ver_1.2
     RDKit          3D

 13 13  0  0  0  0  0  0  0  0999 V2000
    2.5990   -0.1810    1.7106 C   0  0  0  0  0  0  0  0  0  0  0  0
    3.5602   -0.6818    0.6300 C   0  0  0  0  0  0  0  0  0  0  0  0
    2.9175   -0.6849   -0.6937 C   0  0  0  0  0  0  0  0  0  0  0  0
    1.6894   -0.3193   -0.9727 C   0  0  0  0  0  0  0  0  0  0  0  0
    1.0279   -0.3177   -2.3059 C   0  0  0  0  0  0  0  0  0  0  0  0
   -0.2623    0.4683   -2.0982 C   0  0  0  0  0  0  0  0  0  0  0  0
   -0.5478    0.3211   -0.6633 N   0  0  0  0  0  0  0  0  0  0  0  0
   -1.8482    0.3281   -0.0856 C   0  0  0  0  0  0  0  0  0  0  0  0
   -2.8288    0.4721   -0.8709 O   0  0  0  0  0  0  0  0  0  0  0  0
   -1.9937    0.1708    1.3688 C   0  0  0  0  0  0  0  0  0  0  0  0
   -1.4539   -1.0974    1.9330 C   0  0  0  0  0  0  0  0  0  0  0  0
   -3.5710    0.6922    2.0259 S   0  0  0  0  0  0  0  0  0  0  0  0
    0.7117    0.1729    0.0220 C   0  0  0  0  0  0  0  0  0  0  0  0
  1  2  1  0
  2  3  1  0
  3  4  2  3
  4  5  1  0
  5  6  1  0
  6  7  1  0
  7  8  1  0
  8  9  2  0
  8 10  1  0
 10 11  1  0
 10 12  1  0
  7 13  1  0
 13  4  1  0
M  END
>  <ref_url>  (1) 
https://hippo.winokan.com

>  <submitter_name>  (1) 
Max Winokan

>  <submitter_email>  (1) 
max.winokan@diamond.ac.uk

>  <submitter_institution>  (1) 
DLS

>  <generation_date>  (1) 
2025-10-16

>  <method>  (1) 
openbind_a71ev2a_c1_elab_chemspace_filtered

>  <HIPPO Pose ID>  (1) 
HIPPO Pose ID

>  <HIPPO Compound ID>  (1) 
HIPPO Compound ID

>  <smiles>  (1) 
smiles

>  <ref_pdb>  (1) 
protein reference

>  <ref_mols>  (1) 
fragment inspirations

>  <alias>  (1) 
alias

>  <distance_score>  (1) 
distance_score

>  <energy_score>  (1) 
energy_score

>  <inspiration_score>  (1) 
inspiration_score

$$$$
P5840
     RDKit          3D

 19 21  0  0  0  0  0  0  0  0999 V2000
    8.2120   14.8205   26.6574 O   0  0  0  0  0  0  0  0  0  0  0  0
    7.2519   14.0684   26.6828 C   0  0  0  0  0  0  0  0  0  0  0  0
    6.0283   14.2882   27.5405 C   0  0  0  0  0  0  0  0  0  0  0  0
    5.0197   13.2919   27.0090 C   0  0  0  0  0  0  0  0  0  0  0  0
    5.8960   12.1780   26.5100 C   0  0  0  0  0  0  0  0  0  0  0  0
    7.0849   12.8442   26.0425 N   0  0  0  0  0  0  0  0  0  0  0  0
    8.1036   12.0512   25.3770 C   0  0  0  0  0  0  0  0  0  0  0  0
    9.1872   12.7761   24.6128 C   0  0  0  0  0  0  0  0  0  0  0  0
    8.7187   13.3182   23.2749 C   0  0  0  0  0  0  0  0  0  0  0  0
    7.6504   13.1722   22.8054 O   0  0  0  0  0  0  0  0  0  0  0  0
    9.9646   13.9692   22.6993 N   0  0  0  0  0  0  0  0  0  0  0  0
   10.2349   14.5297   21.3223 C   0  0  1  0  0  0  0  0  0  0  0  0
    9.3099   15.6156   20.8636 C   0  0  0  0  0  0  0  0  0  0  0  0
    9.1963   16.3624   22.1223 C   0  0  0  0  0  0  0  0  0  0  0  0
   10.0134   15.4556   23.0293 C   0  0  2  0  0  0  0  0  0  0  0  0
   11.4728   15.8698   23.2712 C   0  0  0  0  0  0  0  0  0  0  0  0
   12.2206   15.8793   21.9611 C   0  0  2  0  0  0  0  0  0  0  0  0
   11.9679   17.0594   21.3487 F   0  0  0  0  0  0  0  0  0  0  0  0
   11.7285   14.7595   21.0784 C   0  0  0  0  0  0  0  0  0  0  0  0
  1  2  2  0
  2  3  1  0
  3  4  1  0
  4  5  1  0
  5  6  1  0
  6  7  1  0
  7  8  1  0
  8  9  1  0
  9 10  2  0
  9 11  1  0
 11 12  1  0
 12 13  1  1
 13 14  1  0
 15 14  1  6
 15 16  1  0
 16 17  1  0
 17 18  1  6
 17 19  1  0
  6  2  1  0
 15 11  1  0
 19 12  1  0
M  END
>  <energy_score>  (1) 
19.687705

>  <inchikey>  (1) 
NDDWJXLQTNLSHN-UHFFFAOYSA-N

>  <smiles>  (1) 
O=C1CCCN1CCC(=O)N1[C@@H]2CC[C@H]1C[C@@H](F)C2

>  <ref_pdb>  (1) 
A4445b

>  <alias>  (1) 
None

>  <HIPPO Pose ID>  (1) 
5840

>  <name>  (1) 
P5840

>  <HIPPO Compound ID>  (1) 
31471

>  <ref_mols>  (1) 
A4445b,A0528a

>  <distance_score>  (1) 
1.853852

>  <inspiration_score>  (1) 
None

$$$$
P12401
     RDKit          3D

 24 26  0  0  0  0  0  0  0  0999 V2000
   19.5632    1.0171   19.9234 C   0  0  0  0  0  0  0  0  0  0  0  0
   19.8257    1.1915   21.4190 C   0  0  0  0  0  0  0  0  0  0  0  0
   21.2620    0.7757   21.7418 C   0  0  0  0  0  0  0  0  0  0  0  0
   18.8399    0.4047   22.2768 C   0  0  0  0  0  0  0  0  0  0  0  0
   17.4263    0.8764   22.1711 C   0  0  0  0  0  0  0  0  0  0  0  0
   16.5198    0.3317   21.3780 N   0  0  0  0  0  0  0  0  0  0  0  0
   15.2034    0.7731   21.8469 N   0  0  0  0  0  0  0  0  0  0  0  0
   15.3055    1.7036   22.8031 C   0  0  0  0  0  0  0  0  0  0  0  0
   14.3905    2.8616   23.3007 C   0  0  0  0  0  0  0  0  0  0  0  0
   12.6162    3.2695   22.7968 C   0  0  0  0  0  0  0  0  0  0  0  0
   11.7793    2.3766   22.6978 O   0  0  0  0  0  0  0  0  0  0  0  0
   11.8749    4.7840   22.5649 O   0  0  0  0  0  0  0  0  0  0  0  0
   10.4453    5.9128   23.2040 C   0  0  1  0  0  0  0  0  0  0  0  0
   11.3754    7.3059   23.6633 C   0  0  0  0  0  0  0  0  0  0  0  0
    9.4004    7.3976   22.9462 C   0  0  0  0  0  0  0  0  0  0  0  0
    9.6194    8.4677   22.0780 C   0  0  0  0  0  0  0  0  0  0  0  0
    9.6017    9.8045   22.5516 C   0  0  0  0  0  0  0  0  0  0  0  0
    9.0517   10.2490   23.6913 N   0  0  0  0  0  0  0  0  0  0  0  0
    8.5926    9.2799   24.4573 C   0  0  0  0  0  0  0  0  0  0  0  0
    8.8437    7.9385   24.1585 C   0  0  0  0  0  0  0  0  0  0  0  0
   15.2565    3.5559   24.1161 C   0  0  0  0  0  0  0  0  0  0  0  0
   16.5586    3.2770   24.6949 C   0  0  0  0  0  0  0  0  0  0  0  0
   17.3277    2.3828   24.1098 C   0  0  0  0  0  0  0  0  0  0  0  0
   16.7580    1.7151   23.0722 N   0  0  0  0  0  0  0  0  0  0  0  0
  1  2  1  0
  2  3  1  0
  2  4  1  0
  4  5  1  0
  5  6  2  0
  6  7  1  0
  7  8  2  0
  8  9  1  0
  9 10  1  0
 10 11  2  0
 10 12  1  0
 12 13  1  0
 13 14  1  1
 13 15  1  0
 15 16  2  0
 16 17  1  0
 17 18  2  0
 18 19  1  0
 19 20  2  0
  9 21  2  0
 21 22  1  0
 22 23  2  0
 23 24  1  0
 24  5  1  0
 24  8  1  0
 20 15  1  0
M  END
>  <energy_score>  (2) 
367.720342

>  <inchikey>  (2) 
CEZUNCADWGOBSF-UHFFFAOYSA-N

>  <smiles>  (2) 
CC(C)Cc1nnc2c(C(=O)O[C@@H](C)c3ccncc3)cccn12

>  <ref_pdb>  (2) 
A3194a

>  <alias>  (2) 
None

>  <HIPPO Pose ID>  (2) 
12401

>  <name>  (2) 
P12401

>  <HIPPO Compound ID>  (2) 
104497

>  <ref_mols>  (2) 
A1293a,A3194a

>  <distance_score>  (2) 
4.959837

>  <inspiration_score>  (2) 
None

$$$$
P20859
     RDKit          3D

 25 28  0  0  0  0  0  0  0  0999 V2000
   11.3008   20.8624   24.1781 O   0  0  0  0  0  0  0  0  0  0  0  0
   10.3644   20.4284   24.7865 C   0  0  0  0  0  0  0  0  0  0  0  0
    9.4254   18.7354   24.1874 C   0  0  0  0  0  0  0  0  0  0  0  0
    8.1863   18.2182   22.1641 S   0  0  0  0  0  0  0  0  0  0  0  0
    7.9863   16.5110   21.5883 C   0  0  0  0  0  0  0  0  0  0  0  0
    6.8143   16.0282   21.2056 N   0  0  0  0  0  0  0  0  0  0  0  0
    6.6486   14.8723   21.9272 C   0  0  0  0  0  0  0  0  0  0  0  0
    5.5342   14.5361   22.7179 C   0  0  0  0  0  0  0  0  0  0  0  0
    5.7180   13.6855   23.8101 C   0  0  0  0  0  0  0  0  0  0  0  0
    6.9053   12.9865   23.9710 C   0  0  0  0  0  0  0  0  0  0  0  0
    7.9592   13.1564   23.0634 C   0  0  0  0  0  0  0  0  0  0  0  0
    7.8481   14.1789   22.0980 C   0  0  0  0  0  0  0  0  0  0  0  0
    9.0349   15.1713   21.2115 S   0  0  0  0  0  0  0  0  0  0  0  0
    9.8127   20.9438   26.0708 N   0  0  0  0  0  0  0  0  0  0  0  0
    8.7306   21.9783   25.8054 C   0  0  0  0  0  0  0  0  0  0  0  0
    7.7933   22.4560   26.9718 C   0  0  0  0  0  0  0  0  0  0  0  0
    8.2129   21.9371   28.2826 N   0  0  0  0  0  0  0  0  0  0  0  0
    7.6220   20.7125   28.6501 C   0  0  0  0  0  0  0  0  0  0  0  0
    7.9367   20.1210   29.8792 C   0  0  0  0  0  0  0  0  0  0  0  0
    7.3539   18.9097   30.2543 C   0  0  0  0  0  0  0  0  0  0  0  0
    6.4353   18.3144   29.4082 C   0  0  0  0  0  0  0  0  0  0  0  0
    6.1357   18.9695   28.2310 C   0  0  0  0  0  0  0  0  0  0  0  0
    6.6992   20.1398   27.8495 N   0  0  0  0  0  0  0  0  0  0  0  0
    9.6766   21.9622   28.3973 C   0  0  0  0  0  0  0  0  0  0  0  0
   10.3013   22.0178   26.9922 C   0  0  0  0  0  0  0  0  0  0  0  0
  1  2  2  0
  2  3  1  0
  3  4  1  0
  4  5  1  0
  5  6  2  0
  6  7  1  0
  7  8  2  0
  8  9  1  0
  9 10  2  0
 10 11  1  0
 11 12  2  0
 12 13  1  0
  2 14  1  0
 14 15  1  0
 15 16  1  0
 16 17  1  0
 17 18  1  0
 18 19  2  0
 19 20  1  0
 20 21  2  0
 21 22  1  0
 22 23  2  0
 17 24  1  0
 24 25  1  0
 13  5  1  0
 25 14  1  0
 12  7  1  0
 23 18  1  0
M  END
>  <energy_score>  (3) 
291.926851

>  <inchikey>  (3) 
SIMBRKSHCAHBTI-UHFFFAOYSA-N

>  <smiles>  (3) 
O=C(CSc1nc2ccccc2s1)N1CCN(c2ccccn2)CC1

>  <ref_pdb>  (3) 
A0469a

>  <alias>  (3) 
None

>  <HIPPO Pose ID>  (3) 
20859

>  <name>  (3) 
P20859

>  <HIPPO Compound ID>  (3) 
18489

>  <ref_mols>  (3) 
A4031b,A0469a

>  <distance_score>  (3) 
3.54979

>  <inspiration_score>  (3) 
None

$$$$
P21244
     RDKit          3D

 22 24  0  0  0  0  0  0  0  0999 V2000
   14.4953   11.2431   15.9959 C   0  0  0  0  0  0  0  0  0  0  0  0
   13.1522   12.0269   16.1597 C   0  0  0  0  0  0  0  0  0  0  0  0
   11.9871   13.6877   16.2676 C   0  0  0  0  0  0  0  0  0  0  0  0
   13.1265   11.9135   14.2152 N   0  0  0  0  0  0  0  0  0  0  0  0
   11.7478   11.8478   12.9918 C   0  0  0  0  0  0  0  0  0  0  0  0
   10.5462   11.7792   13.2055 O   0  0  0  0  0  0  0  0  0  0  0  0
   12.2585   11.7246   11.0195 C   0  0  1  0  0  0  0  0  0  0  0  0
   13.7198   11.6319   10.5867 C   0  0  0  0  0  0  0  0  0  0  0  0
   14.5071   12.3166    9.0407 C   0  0  0  0  0  0  0  0  0  0  0  0
   13.5688   12.5598    8.0429 N   0  0  0  0  0  0  0  0  0  0  0  0
   13.0747   11.2407    8.1815 C   0  0  0  0  0  0  0  0  0  0  0  0
   13.4088   10.5974    6.9053 C   0  0  0  0  0  0  0  0  0  0  0  0
   12.8189    9.4428    6.5367 C   0  0  0  0  0  0  0  0  0  0  0  0
   11.9124    9.0475    7.4559 C   0  0  0  0  0  0  0  0  0  0  0  0
   11.7587    9.6293    8.8191 C   0  0  0  0  0  0  0  0  0  0  0  0
   12.3160   10.7527    9.4169 C   0  0  0  0  0  0  0  0  0  0  0  0
   12.9582   11.7466   18.2566 C   0  0  0  0  0  0  0  0  0  0  0  0
   12.1507   13.5365   18.7232 C   0  0  0  0  0  0  0  0  0  0  0  0
   12.9465   14.3829   19.4746 C   0  0  0  0  0  0  0  0  0  0  0  0
   12.6199   13.4455   20.3465 N   0  0  0  0  0  0  0  0  0  0  0  0
   12.4424   12.1457   20.5874 C   0  0  0  0  0  0  0  0  0  0  0  0
   13.3221   11.2335   19.7673 C   0  0  0  0  0  0  0  0  0  0  0  0
  1  2  1  0
  2  3  1  0
  2  4  1  0
  4  5  1  0
  5  6  2  0
  7  5  1  1
  7  8  1  0
  8  9  1  0
  9 10  1  0
 10 11  1  0
 11 12  2  0
 12 13  1  0
 13 14  2  0
 14 15  1  0
 15 16  2  0
  2 17  1  0
 17 18  1  0
 18 19  1  0
 19 20  1  0
 20 21  1  0
 21 22  1  0
 16  7  1  0
 22 17  1  0
 16 11  1  0
M  END
>  <energy_score>  (4) 
1058.82127

>  <inchikey>  (4) 
JSISJDOIDMQNPL-UHFFFAOYSA-N

>  <smiles>  (4) 
CC(C)(NC(=O)[C@H]1CCNc2ccccc21)C1CCNCC1

>  <ref_pdb>  (4) 
A0586a

>  <alias>  (4) 
None

>  <HIPPO Pose ID>  (4) 
21244

>  <name>  (4) 
P21244

>  <HIPPO Compound ID>  (4) 
124015

>  <ref_mols>  (4) 
A0875a,A0586a

>  <distance_score>  (4) 
7.883489

>  <inspiration_score>  (4) 
None

$$$$
P23665
     RDKit          3D

 27 29  0  0  0  0  0  0  0  0999 V2000
   24.7248   19.0855   22.0572 C   0  0  0  0  0  0  0  0  0  0  0  0
   23.3054   19.6875   22.1539 C   0  0  0  0  0  0  0  0  0  0  0  0
   22.8489   19.9927   23.5933 N   0  0  0  0  0  0  0  0  0  0  0  0
   23.4808   21.3277   23.2813 C   0  0  0  0  0  0  0  0  0  0  0  0
   22.5463   22.4093   22.7288 C   0  0  0  0  0  0  0  0  0  0  0  0
   21.4685   19.6252   23.7629 C   0  0  0  0  0  0  0  0  0  0  0  0
   20.4641   20.2694   23.6100 O   0  0  0  0  0  0  0  0  0  0  0  0
   21.2916   18.2066   24.2627 C   0  0  0  0  0  0  0  0  0  0  0  0
   22.4079   17.3843   24.4772 C   0  0  0  0  0  0  0  0  0  0  0  0
   22.2325   16.0573   24.8442 C   0  0  0  0  0  0  0  0  0  0  0  0
   20.9381   15.5440   25.0021 C   0  0  0  0  0  0  0  0  0  0  0  0
   19.7918   16.3283   24.7823 C   0  0  0  0  0  0  0  0  0  0  0  0
   18.4914   15.7487   24.9727 N   0  0  0  0  0  0  0  0  0  0  0  0
   17.5575   14.5751   23.9878 C   0  0  0  0  0  0  0  0  0  0  0  0
   17.9545   14.1954   22.9240 O   0  0  0  0  0  0  0  0  0  0  0  0
   15.8105   13.5249   24.5004 C   0  0  2  0  0  0  0  0  0  0  0  0
   16.2371   11.6540   24.5636 C   0  0  0  0  0  0  0  0  0  0  0  0
   13.8701   13.7032   23.9218 N   0  0  0  0  0  0  0  0  0  0  0  0
   13.2890   14.5309   22.6812 C   0  0  0  0  0  0  0  0  0  0  0  0
   11.7974   14.7363   22.8298 C   0  0  0  0  0  0  0  0  0  0  0  0
   11.4985   13.4411   23.4451 C   0  0  0  0  0  0  0  0  0  0  0  0
   10.2276   12.8684   23.3889 C   0  0  0  0  0  0  0  0  0  0  0  0
   10.0766   11.6215   23.9267 C   0  0  0  0  0  0  0  0  0  0  0  0
   11.1786   11.0540   24.5434 C   0  0  0  0  0  0  0  0  0  0  0  0
   12.4240   11.7388   24.7148 C   0  0  0  0  0  0  0  0  0  0  0  0
   12.6550   12.9039   24.0668 C   0  0  0  0  0  0  0  0  0  0  0  0
   19.9867   17.6882   24.4740 C   0  0  0  0  0  0  0  0  0  0  0  0
  1  2  1  0
  2  3  1  0
  3  4  1  0
  4  5  1  0
  3  6  1  0
  6  7  2  0
  6  8  1  0
  8  9  2  0
  9 10  1  0
 10 11  2  0
 11 12  1  0
 12 13  1  0
 13 14  1  0
 14 15  2  0
 14 16  1  0
 16 17  1  6
 16 18  1  0
 18 19  1  0
 19 20  1  0
 20 21  1  0
 21 22  2  0
 22 23  1  0
 23 24  2  0
 24 25  1  0
 25 26  2  0
 12 27  2  0
 27  8  1  0
 26 18  1  0
 26 21  1  0
M  END
>  <energy_score>  (5) 
435.571228

>  <inchikey>  (5) 
ISSCSRGHWYYCPW-UHFFFAOYSA-N

>  <smiles>  (5) 
CCN(CC)C(=O)c1cccc(NC(=O)[C@H](C)N2CCc3ccccc32)c1

>  <ref_pdb>  (5) 
A0863a

>  <alias>  (5) 
None

>  <HIPPO Pose ID>  (5) 
23665

>  <name>  (5) 
P23665

>  <HIPPO Compound ID>  (5) 
124652

>  <ref_mols>  (5) 
A1778a,A0863a

>  <distance_score>  (5) 
8.2242

>  <inspiration_score>  (5) 
None

$$$$
P34458
     RDKit          3D

 14 14  0  0  0  0  0  0  0  0999 V2000
    8.3582   14.9053   21.8617 C   0  0  0  0  0  0  0  0  0  0  0  0
    7.9745   13.7867   22.6589 O   0  0  0  0  0  0  0  0  0  0  0  0
    8.3242   13.8724   23.9672 C   0  0  0  0  0  0  0  0  0  0  0  0
    8.9310   14.7620   24.5384 O   0  0  0  0  0  0  0  0  0  0  0  0
    7.8967   12.6342   24.6191 C   0  0  0  0  0  0  0  0  0  0  0  0
    8.4555   11.4683   24.1035 C   0  0  0  0  0  0  0  0  0  0  0  0
    8.0042   10.2605   24.5784 C   0  0  0  0  0  0  0  0  0  0  0  0
    8.6023    9.0220   23.9949 C   0  0  0  0  0  0  0  0  0  0  0  0
    7.0359   10.1670   25.5186 N   0  0  0  0  0  0  0  0  0  0  0  0
    6.5404   11.3351   26.0181 C   0  0  0  0  0  0  0  0  0  0  0  0
    6.9483   12.6201   25.6504 C   0  0  0  0  0  0  0  0  0  0  0  0
    6.4493   13.8052   26.2372 N   0  0  0  0  0  0  0  0  0  0  0  0
    5.1541   13.7152   26.9129 C   0  0  0  0  0  0  0  0  0  0  0  0
    7.4124   14.6511   26.8625 N   0  0  0  0  0  0  0  0  0  0  0  0
  1  2  1  0
  2  3  1  0
  3  4  2  0
  3  5  1  0
  5  6  2  0
  6  7  1  0
  7  8  1  0
  7  9  2  0
  9 10  1  0
 10 11  2  0
 11 12  1  0
 12 13  1  0
 12 14  1  0
 11  5  1  0
M  END
>  <energy_score>  (6) 
-30.548267

>  <inchikey>  (6) 
VTHWZLJENYHQED-UHFFFAOYSA-N

>  <smiles>  (6) 
COC(=O)c1cc(C)ncc1N(C)N

>  <ref_pdb>  (6) 
A0514a

>  <alias>  (6) 
None

>  <HIPPO Pose ID>  (6) 
34458

>  <name>  (6) 
P34458

>  <HIPPO Compound ID>  (6) 
141599

>  <ref_mols>  (6) 
A4331a,A0514a

>  <distance_score>  (6) 
0.983263

>  <inspiration_score>  (6) 
None

$$$$
P54398
     RDKit          3D

 17 18  0  0  0  0  0  0  0  0999 V2000
    6.9749   14.1457   24.3310 C   0  0  0  0  0  0  0  0  0  0  0  0
    6.6957   12.8627   25.0539 C   0  0  0  0  0  0  0  0  0  0  0  0
    5.5772   12.8042   25.8989 C   0  0  0  0  0  0  0  0  0  0  0  0
    5.1635   11.5942   26.4514 C   0  0  0  0  0  0  0  0  0  0  0  0
    5.8498   10.4240   26.1499 C   0  0  0  0  0  0  0  0  0  0  0  0
    6.9952   10.4741   25.3563 C   0  0  0  0  0  0  0  0  0  0  0  0
    7.4551   11.6988   24.8524 C   0  0  0  0  0  0  0  0  0  0  0  0
    8.7488   11.6818   24.1016 C   0  0  0  0  0  0  0  0  0  0  0  0
    8.9361   10.8237   23.3374 O   0  0  0  0  0  0  0  0  0  0  0  0
    9.6659   12.8356   24.5524 N   0  0  0  0  0  0  0  0  0  0  0  0
   10.9712   13.2302   24.0867 C   0  0  0  0  0  0  0  0  0  0  0  0
   11.0604   13.3051   22.5780 C   0  0  0  0  0  0  0  0  0  0  0  0
   10.4882   14.5348   22.0057 C   0  0  0  0  0  0  0  0  0  0  0  0
   11.0372   15.3130   21.0168 C   0  0  0  0  0  0  0  0  0  0  0  0
   10.1490   16.2928   20.7153 O   0  0  0  0  0  0  0  0  0  0  0  0
    9.1149   16.0686   21.5681 C   0  0  0  0  0  0  0  0  0  0  0  0
    9.2626   15.0374   22.3686 N   0  0  0  0  0  0  0  0  0  0  0  0
  1  2  1  0
  2  3  2  0
  3  4  1  0
  4  5  2  0
  5  6  1  0
  6  7  2  0
  7  8  1  0
  8  9  2  0
  8 10  1  0
 10 11  1  0
 11 12  1  0
 12 13  1  0
 13 14  2  0
 14 15  1  0
 15 16  1  0
 16 17  2  0
  7  2  1  0
 17 13  1  0
M  END
>  <energy_score>  (7) 
-4.306167

>  <inchikey>  (7) 
UKWNMHGCUDXUJG-UHFFFAOYSA-N

>  <smiles>  (7) 
Cc1ccccc1C(=O)NCCc1cocn1

>  <ref_pdb>  (7) 
A5594a

>  <alias>  (7) 
None

>  <HIPPO Pose ID>  (7) 
54398

>  <name>  (7) 
P54398

>  <HIPPO Compound ID>  (7) 
266892

>  <ref_mols>  (7) 
A3408a,A5594a

>  <distance_score>  (7) 
1.328692

>  <inspiration_score>  (7) 
None

$$$$
P58203
     RDKit          3D

 12 12  0  0  0  0  0  0  0  0999 V2000
    8.0307   17.4738   26.3293 C   0  0  0  0  0  0  0  0  0  0  0  0
    9.4011   16.9658   26.7298 C   0  0  0  0  0  0  0  0  0  0  0  0
    9.7638   17.0381   27.8740 O   0  0  0  0  0  0  0  0  0  0  0  0
   10.0714   16.4692   25.5763 N   0  0  0  0  0  0  0  0  0  0  0  0
   11.4758   15.9818   25.3946 C   0  0  0  0  0  0  0  0  0  0  0  0
   11.6525   15.2545   24.0815 C   0  0  0  0  0  0  0  0  0  0  0  0
   10.3910   14.4594   24.1027 C   0  0  2  0  0  0  0  0  0  0  0  0
    9.5420   14.6933   22.9593 N   0  0  0  0  0  0  0  0  0  0  0  0
    8.3268   13.9682   22.4851 C   0  0  0  0  0  0  0  0  0  0  0  0
    7.9455   14.8043   21.2852 N   0  0  0  0  0  0  0  0  0  0  0  0
    7.8270   12.9917   22.8913 O   0  0  0  0  0  0  0  0  0  0  0  0
    9.7742   14.9977   25.3896 C   0  0  0  0  0  0  0  0  0  0  0  0
  1  2  1  0
  2  3  2  0
  2  4  1  0
  4  5  1  0
  5  6  1  0
  6  7  1  0
  7  8  1  6
  8  9  1  0
  9 10  1  0
  9 11  2  0
  7 12  1  0
 12  4  1  0
M  END
>  <energy_score>  (8) 
230.573228

>  <inchikey>  (8) 
NADGLDRSJLOBRP-UHFFFAOYSA-N

>  <smiles>  (8) 
CC(=O)N1CC[C@H](NC(N)=O)C1

>  <ref_pdb>  (8) 
A3665a

>  <alias>  (8) 
None

>  <HIPPO Pose ID>  (8) 
58203

>  <name>  (8) 
P58203

>  <HIPPO Compound ID>  (8) 
195109

>  <ref_mols>  (8) 
A3665a,A3571b

>  <distance_score>  (8) 
4.026465

>  <inspiration_score>  (8) 
None

$$$$
C50277-P616
     RDKit          3D

 23 25  0  0  0  0  0  0  0  0999 V2000
    8.4705   12.8675   11.1219 O   0  0  0  0  0  0  0  0  0  0  0  0
    7.4830   13.5575   11.2494 C   0  0  0  0  0  0  0  0  0  0  0  0
    7.2028   14.0097   13.2546 C   0  0  0  0  0  0  0  0  0  0  0  0
    7.6871   14.3259   15.1544 O   0  0  0  0  0  0  0  0  0  0  0  0
    8.7441   14.2854   16.7066 C   0  0  1  0  0  0  0  0  0  0  0  0
   10.5231   14.4865   17.5368 C   0  0  0  0  0  0  0  0  0  0  0  0
   10.9699   14.6686   18.9909 C   0  0  0  0  0  0  0  0  0  0  0  0
   10.1935   15.7737   19.6038 C   0  0  0  0  0  0  0  0  0  0  0  0
    8.8844   15.2222   19.4180 N   0  0  0  0  0  0  0  0  0  0  0  0
    8.4035   15.2699   17.9448 C   0  0  0  0  0  0  0  0  0  0  0  0
    6.3809   14.1664    9.9103 N   0  0  0  0  0  0  0  0  0  0  0  0
    6.4872   14.0368    7.9887 C   0  0  0  0  0  0  0  0  0  0  0  0
    6.6308   15.2174    7.0377 C   0  0  0  0  0  0  0  0  0  0  0  0
    6.8936   15.1700    5.7278 N   0  0  0  0  0  0  0  0  0  0  0  0
    6.5877   13.9289    5.4581 N   0  0  0  0  0  0  0  0  0  0  0  0
    6.0030   13.7296    4.1086 C   0  0  1  0  0  0  0  0  0  0  0  0
    6.9411   14.1801    2.9783 C   0  0  0  0  0  0  0  0  0  0  0  0
    8.0273   13.1197    2.8882 C   0  0  0  0  0  0  0  0  0  0  0  0
    7.3032   11.6070    3.5062 S   0  0  0  0  0  0  0  0  0  0  0  0
    7.8323   11.3315    4.8221 O   0  0  0  0  0  0  0  0  0  0  0  0
    7.2433   10.6362    2.4395 O   0  0  0  0  0  0  0  0  0  0  0  0
    5.6975   12.2836    3.7666 C   0  0  0  0  0  0  0  0  0  0  0  0
    5.9653   13.5295    6.6756 C   0  0  0  0  0  0  0  0  0  0  0  0
  1  2  2  0
  2  3  1  0
  3  4  1  0
  5  4  1  6
  5  6  1  0
  6  7  1  0
  7  8  1  0
  8  9  1  0
  9 10  1  0
  2 11  1  0
 11 12  1  0
 12 13  1  0
 13 14  2  0
 14 15  1  0
 16 15  1  1
 16 17  1  0
 17 18  1  0
 18 19  1  0
 19 20  2  0
 19 21  2  0
 19 22  1  0
 15 23  1  0
 10  5  1  0
 23 12  2  0
 22 16  1  0
M  END
>  <energy_score>  (9) 
718.225525

>  <inchikey>  (9) 
GSWNPYWEZMISHZ-UHFFFAOYSA-N

>  <smiles>  (9) 
O=C(CO[C@H]1CCCNC1)Nc1cnn([C@H]2CCS(=O)(=O)C2)c1

>  <ref_pdb>  (9) 
A5424b

>  <alias>  (9) 
C50277-P616

>  <HIPPO Pose ID>  (9) 
130605

>  <name>  (9) 
C50277-P616

>  <HIPPO Compound ID>  (9) 
50277

>  <ref_mols>  (9) 
A5424b,A0354a

>  <distance_score>  (9) 
4.354529

>  <inspiration_score>  (9) 
None

$$$$
C1120-P31
     RDKit          3D

 21 23  0  0  0  0  0  0  0  0999 V2000
    9.1697   14.4202   11.5937 O   0  0  0  0  0  0  0  0  0  0  0  0
   10.2847   14.8214   11.4906 C   0  0  0  0  0  0  0  0  0  0  0  0
   11.5020   15.1109   13.1982 C   0  0  0  0  0  0  0  0  0  0  0  0
   11.5590   15.8852   14.7233 O   0  0  0  0  0  0  0  0  0  0  0  0
   11.4793   15.8401   16.5261 C   0  0  0  0  0  0  0  0  0  0  0  0
   10.2274   16.5311   17.4295 C   0  0  0  0  0  0  0  0  0  0  0  0
   10.1800   15.3836   18.3441 N   0  0  0  0  0  0  0  0  0  0  0  0
   11.1930   14.6423   17.5893 C   0  0  0  0  0  0  0  0  0  0  0  0
   11.0039   15.0288    9.8881 N   0  0  0  0  0  0  0  0  0  0  0  0
   10.3506   14.5519    8.0263 C   0  0  0  0  0  0  0  0  0  0  0  0
    9.0120   14.3162    6.3603 C   0  0  0  0  0  0  0  0  0  0  0  0
    8.3507   13.2212    5.4217 N   0  0  0  0  0  0  0  0  0  0  0  0
    8.5866   13.4682    3.9071 C   0  0  0  0  0  0  0  0  0  0  0  0
    8.4086   12.1791    3.0774 C   0  0  0  0  0  0  0  0  0  0  0  0
    7.3889   11.2725    3.7442 C   0  0  0  0  0  0  0  0  0  0  0  0
    6.3734   12.2030    4.3471 C   0  0  0  0  0  0  0  0  0  0  0  0
    5.0821   12.2596    3.8100 C   0  0  0  0  0  0  0  0  0  0  0  0
    4.2679   13.3471    4.0918 C   0  0  0  0  0  0  0  0  0  0  0  0
    4.7350   14.3599    4.9246 C   0  0  0  0  0  0  0  0  0  0  0  0
    6.0046   14.2810    5.5205 C   0  0  0  0  0  0  0  0  0  0  0  0
    6.8636   13.2043    5.2407 C   0  0  0  0  0  0  0  0  0  0  0  0
  1  2  2  0
  2  3  1  0
  3  4  1  0
  4  5  1  0
  5  6  1  0
  6  7  1  0
  7  8  1  0
  2  9  1  0
  9 10  1  0
 10 11  1  0
 11 12  1  0
 12 13  1  0
 13 14  1  0
 14 15  1  0
 15 16  1  0
 16 17  2  0
 17 18  1  0
 18 19  2  0
 19 20  1  0
 20 21  2  0
  8  5  1  0
 21 12  1  0
 21 16  1  0
M  END
>  <energy_score>  (10) 
701.942577

>  <inchikey>  (10) 
VYQRXFKIGZZHPH-UHFFFAOYSA-N

>  <smiles>  (10) 
O=C(COC1CNC1)NCCN1CCCc2ccccc21

>  <ref_pdb>  (10) 
A0586a

>  <alias>  (10) 
C1120-P31

>  <HIPPO Pose ID>  (10) 
131658

>  <name>  (10) 
C1120-P31

>  <HIPPO Compound ID>  (10) 
1120

>  <ref_mols>  (10) 
A4994a,A0586a

>  <distance_score>  (10) 
4.127261

>  <inspiration_score>  (10) 
None

$$$$
C43009-P543
     RDKit          3D

 13 13  0  0  0  0  0  0  0  0999 V2000
    8.5649   11.9094   24.2488 C   0  0  0  0  0  0  0  0  0  0  0  0
    8.6735   13.4181   24.3705 C   0  0  1  0  0  0  0  0  0  0  0  0
    7.7478   13.9006   25.8581 S   0  0  0  0  0  0  0  0  0  0  0  0
   10.1529   13.8679   24.4518 C   0  0  0  0  0  0  0  0  0  0  0  0
   10.8345   13.7620   25.4087 O   0  0  0  0  0  0  0  0  0  0  0  0
   10.4792   14.4034   23.0678 N   0  0  0  0  0  0  0  0  0  0  0  0
   10.9804   13.2908   22.1385 C   0  0  0  0  0  0  0  0  0  0  0  0
   11.4562   14.3855   21.2177 C   0  0  0  0  0  0  0  0  0  0  0  0
   10.1879   15.1056   20.1997 S   0  0  0  0  0  0  0  0  0  0  0  0
   10.7499   14.8273   18.6264 N   0  0  0  0  0  0  0  0  0  0  0  0
   10.1492   16.5441   20.2945 O   0  0  0  0  0  0  0  0  0  0  0  0
    8.9488   14.3885   20.4200 O   0  0  0  0  0  0  0  0  0  0  0  0
   11.7283   15.0457   22.5358 C   0  0  0  0  0  0  0  0  0  0  0  0
  2  1  1  1
  2  3  1  0
  2  4  1  0
  4  5  2  0
  4  6  1  0
  6  7  1  0
  7  8  1  0
  8  9  1  0
  9 10  1  0
  9 11  2  0
  9 12  2  0
  8 13  1  0
 13  6  1  0
M  END
>  <energy_score>  (11) 
-10.058814

>  <inchikey>  (11) 
JVKJWHGLBOQABM-UHFFFAOYSA-N

>  <smiles>  (11) 
C[C@@H](S)C(=O)N1CC(S(N)(=O)=O)C1

>  <ref_pdb>  (11) 
A4994a

>  <alias>  (11) 
C43009-P543

>  <HIPPO Pose ID>  (11) 
133793

>  <name>  (11) 
C43009-P543

>  <HIPPO Compound ID>  (11) 
43009

>  <ref_mols>  (11) 
A1778a,A4994a

>  <distance_score>  (11) 
1.529457

>  <inspiration_score>  (11) 
None

$$$$
C114736-P550
     RDKit          3D

 22 23  0  0  0  0  0  0  0  0999 V2000
    6.8054   16.6411   23.5948 C   0  0  0  0  0  0  0  0  0  0  0  0
    7.3755   15.6574   22.5751 C   0  0  2  0  0  0  0  0  0  0  0  0
    6.9184   14.2043   22.8155 C   0  0  0  0  0  0  0  0  0  0  0  0
    6.3686   13.5753   21.9984 O   0  0  0  0  0  0  0  0  0  0  0  0
    7.3447   13.8258   24.2546 N   0  0  0  0  0  0  0  0  0  0  0  0
    7.2691   12.5798   24.9459 C   0  0  0  0  0  0  0  0  0  0  0  0
    7.9335   11.4650   24.1419 C   0  0  2  0  0  0  0  0  0  0  0  0
    7.5653   10.1107   24.7185 C   0  0  0  0  0  0  0  0  0  0  0  0
    8.4465    9.1552   23.9398 C   0  0  0  0  0  0  0  0  0  0  0  0
    9.6336    9.9978   23.5312 C   0  0  0  0  0  0  0  0  0  0  0  0
    9.3879   11.3214   24.1321 N   0  0  0  0  0  0  0  0  0  0  0  0
   10.2298   12.3909   23.5891 C   0  0  0  0  0  0  0  0  0  0  0  0
   11.3843   12.7238   24.5664 C   0  0  0  0  0  0  0  0  0  0  0  0
   12.7328   13.1953   24.1003 C   0  0  0  0  0  0  0  0  0  0  0  0
   13.8209   12.4822   24.7247 O   0  0  0  0  0  0  0  0  0  0  0  0
    8.8340   15.6930   22.3225 N   0  0  0  0  0  0  0  0  0  0  0  0
    9.1959   15.8253   20.9109 C   0  0  0  0  0  0  0  0  0  0  0  0
   10.6389   15.5282   20.5594 C   0  0  0  0  0  0  0  0  0  0  0  0
   11.5075   16.2806   21.5360 C   0  0  0  0  0  0  0  0  0  0  0  0
   11.2313   15.7377   22.9023 C   0  0  0  0  0  0  0  0  0  0  0  0
    9.7838   15.7072   23.3277 C   0  0  0  0  0  0  0  0  0  0  0  0
    9.5210   15.5869   24.5291 O   0  0  0  0  0  0  0  0  0  0  0  0
  2  1  1  1
  2  3  1  0
  3  4  2  0
  3  5  1  0
  5  6  1  0
  7  6  1  1
  7  8  1  0
  8  9  1  0
  9 10  1  0
 10 11  1  0
 11 12  1  0
 12 13  1  0
 13 14  1  0
 14 15  1  0
  2 16  1  0
 16 17  1  0
 17 18  1  0
 18 19  1  0
 19 20  1  0
 20 21  1  0
 21 22  2  0
 11  7  1  0
 21 16  1  0
M  END
>  <energy_score>  (12) 
-9.048334

>  <inchikey>  (12) 
YIUKMRZVTRJRKY-UHFFFAOYSA-N

>  <smiles>  (12) 
C[C@H](C(=O)NC[C@@H]1CCCN1CCCO)N1CCCCC1=O

>  <ref_pdb>  (12) 
A5036a

>  <alias>  (12) 
C114736-P550

>  <HIPPO Pose ID>  (12) 
138552

>  <name>  (12) 
C114736-P550

>  <HIPPO Compound ID>  (12) 
114736

>  <ref_mols>  (12) 
A1140a,A5036a

>  <distance_score>  (12) 
1.763187

>  <inspiration_score>  (12) 
None

$$$$
C47059-P440
     RDKit          3D

 20 22  0  0  0  0  0  0  0  0999 V2000
   15.3524   19.2643   21.5286 O   0  0  0  0  0  0  0  0  0  0  0  0
   15.4349   18.3752   20.7190 C   0  0  0  0  0  0  0  0  0  0  0  0
   16.6936   18.7046   19.6477 C   0  0  0  0  0  0  0  0  0  0  0  0
   17.6931   19.6935   20.4292 C   0  0  0  0  0  0  0  0  0  0  0  0
   19.1998   19.7779   20.1931 C   0  0  0  0  0  0  0  0  0  0  0  0
   20.0575   18.9394   20.7381 N   0  0  0  0  0  0  0  0  0  0  0  0
   21.3287   19.4896   20.8320 C   0  0  0  0  0  0  0  0  0  0  0  0
   22.4352   18.9197   21.4989 C   0  0  0  0  0  0  0  0  0  0  0  0
   23.6471   19.6185   21.5731 C   0  0  0  0  0  0  0  0  0  0  0  0
   23.7839   20.8523   20.9443 C   0  0  0  0  0  0  0  0  0  0  0  0
   22.7074   21.4273   20.2559 C   0  0  0  0  0  0  0  0  0  0  0  0
   21.4763   20.7416   20.2399 C   0  0  0  0  0  0  0  0  0  0  0  0
   19.9440   21.2270   19.6048 S   0  0  0  0  0  0  0  0  0  0  0  0
   14.4526   16.8673   20.5558 N   0  0  0  0  0  0  0  0  0  0  0  0
   13.0382   16.3029   21.4214 C   0  0  2  0  0  0  0  0  0  0  0  0
   12.8335   15.4466   22.6999 C   0  0  0  0  0  0  0  0  0  0  0  0
   11.9667   14.1661   22.6019 C   0  0  0  0  0  0  0  0  0  0  0  0
   10.9524   14.2062   21.4789 C   0  0  0  0  0  0  0  0  0  0  0  0
   10.4383   15.5536   21.4171 N   0  0  0  0  0  0  0  0  0  0  0  0
   11.4901   16.4876   20.9414 C   0  0  0  0  0  0  0  0  0  0  0  0
  1  2  2  0
  2  3  1  0
  3  4  1  0
  4  5  1  0
  5  6  2  0
  6  7  1  0
  7  8  2  0
  8  9  1  0
  9 10  2  0
 10 11  1  0
 11 12  2  0
 12 13  1  0
  2 14  1  0
 15 14  1  6
 15 16  1  0
 16 17  1  0
 17 18  1  0
 18 19  1  0
 19 20  1  0
 13  5  1  0
 20 15  1  0
 12  7  1  0
M  END
>  <energy_score>  (13) 
95.268206

>  <inchikey>  (13) 
BNUQBQTZOCNMQQ-UHFFFAOYSA-N

>  <smiles>  (13) 
O=C(CCc1nc2ccccc2s1)N[C@@H]1CCCNC1

>  <ref_pdb>  (13) 
A4707a

>  <alias>  (13) 
C47059-P440

>  <HIPPO Pose ID>  (13) 
139075

>  <name>  (13) 
C47059-P440

>  <HIPPO Compound ID>  (13) 
47059

>  <ref_mols>  (13) 
A0514b,A4707a

>  <distance_score>  (13) 
4.546425

>  <inspiration_score>  (13) 
None

$$$$
C13612-P153
     RDKit          3D

 20 22  0  0  0  0  0  0  0  0999 V2000
    5.8757   14.3534   25.0312 C   0  0  0  0  0  0  0  0  0  0  0  0
    7.1648   14.2186   24.2071 C   0  0  2  0  0  0  0  0  0  0  0  0
    8.5188   13.5187   25.2271 S   0  0  0  0  0  0  0  0  0  0  0  0
    7.9505   11.8793   25.4345 C   0  0  0  0  0  0  0  0  0  0  0  0
    8.4809   10.8123   24.7312 C   0  0  0  0  0  0  0  0  0  0  0  0
    7.9541    9.5619   24.9882 C   0  0  0  0  0  0  0  0  0  0  0  0
    6.8944    9.4567   25.8837 C   0  0  0  0  0  0  0  0  0  0  0  0
    6.4552   10.5589   26.5684 C   0  0  0  0  0  0  0  0  0  0  0  0
    6.9987   11.7583   26.3847 N   0  0  0  0  0  0  0  0  0  0  0  0
    7.5037   15.6176   23.6074 C   0  0  0  0  0  0  0  0  0  0  0  0
    6.8415   16.5547   23.8786 O   0  0  0  0  0  0  0  0  0  0  0  0
    8.6666   15.4816   22.6309 N   0  0  0  0  0  0  0  0  0  0  0  0
    9.2513   16.4786   21.6445 C   0  0  0  0  0  0  0  0  0  0  0  0
    9.9578   15.9162   20.3853 C   0  0  0  0  0  0  0  0  0  0  0  0
   11.2263   15.2973   20.5301 O   0  0  0  0  0  0  0  0  0  0  0  0
   11.9104   15.6035   21.7288 C   0  0  0  0  0  0  0  0  0  0  0  0
   11.1655   14.9493   22.8568 C   0  0  0  0  0  0  0  0  0  0  0  0
   11.8918   14.1250   23.9160 C   0  0  0  0  0  0  0  0  0  0  0  0
   11.1159   13.4335   22.8450 C   0  0  0  0  0  0  0  0  0  0  0  0
    9.9901   15.7699   23.3108 C   0  0  0  0  0  0  0  0  0  0  0  0
  2  1  1  1
  2  3  1  0
  3  4  1  0
  4  5  2  0
  5  6  1  0
  6  7  2  0
  7  8  1  0
  8  9  2  0
  2 10  1  0
 10 11  2  0
 10 12  1  0
 12 13  1  0
 13 14  1  0
 14 15  1  0
 15 16  1  0
 16 17  1  0
 17 18  1  0
 18 19  1  0
 17 20  1  0
  9  4  1  0
 20 12  1  0
 19 17  1  0
M  END
>  <energy_score>  (14) 
57.016144

>  <inchikey>  (14) 
MOTCXMZSKQJLGN-UHFFFAOYSA-N

>  <smiles>  (14) 
C[C@H](Sc1ccccn1)C(=O)N1CCOCC2(CC2)C1

>  <ref_pdb>  (14) 
A3207a

>  <alias>  (14) 
C13612-P153

>  <HIPPO Pose ID>  (14) 
139612

>  <name>  (14) 
C13612-P153

>  <HIPPO Compound ID>  (14) 
13612

>  <ref_mols>  (14) 
A3207a,A1778a

>  <distance_score>  (14) 
2.046363

>  <inspiration_score>  (14) 
None

$$$$
C124499-P141
     RDKit          3D

 17 17  0  0  0  0  0  0  0  0999 V2000
    8.8671   16.6486   28.0192 C   0  0  0  0  0  0  0  0  0  0  0  0
    8.2749   15.4611   27.2799 C   0  0  0  0  0  0  0  0  0  0  0  0
    9.5389   14.7346   26.1825 S   0  0  0  0  0  0  0  0  0  0  0  0
    8.6676   13.2277   25.6181 C   0  0  0  0  0  0  0  0  0  0  0  0
    9.1302   12.7000   24.4424 C   0  0  0  0  0  0  0  0  0  0  0  0
    8.3923   13.1825   23.3804 C   0  0  0  0  0  0  0  0  0  0  0  0
    9.0787   13.9873   22.3307 C   0  0  0  0  0  0  0  0  0  0  0  0
    8.4847   14.3394   21.3922 O   0  0  0  0  0  0  0  0  0  0  0  0
   10.5239   14.2973   22.7743 N   0  0  0  0  0  0  0  0  0  0  0  0
   11.5059   15.1790   22.2062 C   0  0  1  0  0  0  0  0  0  0  0  0
   12.7068   15.1143   23.1226 C   0  0  0  0  0  0  0  0  0  0  0  0
   11.8677   14.8905   20.7654 C   0  0  0  0  0  0  0  0  0  0  0  0
   10.8509   15.5074   19.9979 O   0  0  0  0  0  0  0  0  0  0  0  0
   11.0120   15.3186   18.6148 C   0  0  0  0  0  0  0  0  0  0  0  0
    7.0283   13.3533   23.5702 C   0  0  0  0  0  0  0  0  0  0  0  0
    6.5490   13.1844   24.8573 C   0  0  0  0  0  0  0  0  0  0  0  0
    7.3702   13.1334   25.9220 N   0  0  0  0  0  0  0  0  0  0  0  0
  1  2  1  0
  2  3  1  0
  3  4  1  0
  4  5  2  0
  5  6  1  0
  6  7  1  0
  7  8  2  0
  7  9  1  0
  9 10  1  0
 10 11  1  1
 10 12  1  0
 12 13  1  0
 13 14  1  0
  6 15  2  0
 15 16  1  0
 16 17  2  0
 17  4  1  0
M  END
>  <energy_score>  (15) 
64.167379

>  <inchikey>  (15) 
LZIRKMRYXZIKJB-UHFFFAOYSA-N

>  <smiles>  (15) 
CCSc1cc(C(=O)N[C@@H](C)COC)ccn1

>  <ref_pdb>  (15) 
A3176a

>  <alias>  (15) 
C124499-P141

>  <HIPPO Pose ID>  (15) 
140512

>  <name>  (15) 
C124499-P141

>  <HIPPO Compound ID>  (15) 
124499

>  <ref_mols>  (15) 
A3176a,A2629a

>  <distance_score>  (15) 
1.930764

>  <inspiration_score>  (15) 
None

$$$$
C48075-P87
     RDKit          3D

 19 20  0  0  0  0  0  0  0  0999 V2000
   10.3935    9.3792   23.8425 C   0  0  0  0  0  0  0  0  0  0  0  0
   10.6820   10.6998   24.2784 O   0  0  0  0  0  0  0  0  0  0  0  0
    9.4687   11.3304   24.5244 N   0  0  0  0  0  0  0  0  0  0  0  0
    9.5774   12.6163   24.6460 C   0  0  0  0  0  0  0  0  0  0  0  0
   10.7785   13.5137   24.5977 C   0  0  0  0  0  0  0  0  0  0  0  0
   10.5406   14.6663   24.2563 O   0  0  0  0  0  0  0  0  0  0  0  0
   12.0330   13.0862   25.0157 N   0  0  0  0  0  0  0  0  0  0  0  0
   12.4116   13.1424   26.3996 C   0  0  0  0  0  0  0  0  0  0  0  0
   13.7639   12.5264   26.8487 C   0  0  0  0  0  0  0  0  0  0  0  0
   14.7446   12.1350   25.7501 C   0  0  0  0  0  0  0  0  0  0  0  0
   15.8417   11.1573   26.2160 C   0  0  0  0  0  0  0  0  0  0  0  0
   16.6473   11.6629   27.3790 C   0  0  0  0  0  0  0  0  0  0  0  0
   17.4631   12.7915   27.2731 C   0  0  0  0  0  0  0  0  0  0  0  0
   18.1793   13.2372   28.3799 C   0  0  0  0  0  0  0  0  0  0  0  0
   18.0558   12.5363   29.5664 C   0  0  0  0  0  0  0  0  0  0  0  0
   17.2794   11.4422   29.7111 N   0  0  0  0  0  0  0  0  0  0  0  0
   16.6014   11.0292   28.6182 C   0  0  0  0  0  0  0  0  0  0  0  0
   13.9230   11.5418   24.6286 C   0  0  0  0  0  0  0  0  0  0  0  0
   12.9586   12.5863   24.0565 C   0  0  0  0  0  0  0  0  0  0  0  0
  1  2  1  0
  2  3  1  0
  3  4  2  3
  4  5  1  0
  5  6  2  0
  5  7  1  0
  7  8  1  0
  8  9  1  0
  9 10  1  0
 10 11  1  0
 11 12  1  0
 12 13  2  0
 13 14  1  0
 14 15  2  0
 15 16  1  0
 16 17  2  0
 10 18  1  0
 18 19  1  0
 19  7  1  0
 17 12  1  0
M  END
>  <energy_score>  (16) 
-13.862761

>  <inchikey>  (16) 
VFUUPOXSKSPMQN-UHFFFAOYSA-N

>  <smiles>  (16) 
CON=CC(=O)N1CCC(Cc2cccnc2)CC1

>  <ref_pdb>  (16) 
A0875a

>  <alias>  (16) 
C48075-P87

>  <HIPPO Pose ID>  (16) 
159260

>  <name>  (16) 
C48075-P87

>  <HIPPO Compound ID>  (16) 
48075

>  <ref_mols>  (16) 
A2629a,A0875a

>  <distance_score>  (16) 
1.992921

>  <inspiration_score>  (16) 
None

$$$$
C45999-P441
     RDKit          3D

 25 28  0  0  0  0  0  0  0  0999 V2000
    6.0396   12.8398   22.3902 O   0  0  0  0  0  0  0  0  0  0  0  0
    6.3094   13.8173   22.9457 C   0  0  0  0  0  0  0  0  0  0  0  0
    7.1494   14.9977   22.5046 N   0  0  0  0  0  0  0  0  0  0  0  0
    7.9331   15.1996   21.3023 C   0  0  0  0  0  0  0  0  0  0  0  0
    9.3169   14.6386   21.6279 C   0  0  0  0  0  0  0  0  0  0  0  0
   10.4425   14.6275   20.6203 C   0  0  0  0  0  0  0  0  0  0  0  0
   11.6965   14.0272   21.3182 C   0  0  0  0  0  0  0  0  0  0  0  0
   11.7322   14.0737   22.8010 N   0  0  0  0  0  0  0  0  0  0  0  0
   11.4878   12.8805   23.6333 C   0  0  0  0  0  0  0  0  0  0  0  0
   11.6184   13.1149   25.1491 C   0  0  0  0  0  0  0  0  0  0  0  0
   10.2802   13.3948   25.8073 C   0  0  0  0  0  0  0  0  0  0  0  0
    9.4121   12.2834   25.6137 O   0  0  0  0  0  0  0  0  0  0  0  0
    9.0706   12.1747   24.2347 C   0  0  0  0  0  0  0  0  0  0  0  0
   10.3032   11.9054   23.4089 C   0  0  0  0  0  0  0  0  0  0  0  0
   11.2260   15.3356   23.2174 C   0  0  0  0  0  0  0  0  0  0  0  0
    9.8082   15.4804   22.7814 C   0  0  0  0  0  0  0  0  0  0  0  0
    5.8503   13.9189   24.3712 C   0  0  0  0  0  0  0  0  0  0  0  0
    5.5513   15.1025   25.0522 C   0  0  0  0  0  0  0  0  0  0  0  0
    5.2958   15.0697   26.4355 C   0  0  0  0  0  0  0  0  0  0  0  0
    5.3735   13.8661   27.1194 C   0  0  0  0  0  0  0  0  0  0  0  0
    5.6801   12.6937   26.4503 C   0  0  0  0  0  0  0  0  0  0  0  0
    5.9226   12.7068   25.0946 C   0  0  0  0  0  0  0  0  0  0  0  0
    5.6436   11.5479   27.3930 C   0  0  0  0  0  0  0  0  0  0  0  0
    5.5747   12.3053   28.7359 C   0  0  0  0  0  0  0  0  0  0  0  0
    5.0416   13.6524   28.4758 N   0  0  0  0  0  0  0  0  0  0  0  0
  1  2  2  0
  2  3  1  0
  3  4  1  0
  4  5  1  0
  5  6  1  0
  6  7  1  0
  7  8  1  0
  8  9  1  0
  9 10  1  0
 10 11  1  0
 11 12  1  0
 12 13  1  0
 13 14  1  0
  8 15  1  0
 15 16  1  0
  2 17  1  0
 17 18  2  0
 18 19  1  0
 19 20  2  0
 20 21  1  0
 21 22  2  0
 21 23  1  0
 23 24  1  0
 24 25  1  0
 16  5  1  0
 22 17  1  0
 14  9  1  0
 25 20  1  0
M  END
>  <energy_score>  (17) 
7.910897

>  <inchikey>  (17) 
IDVYXFNNIDSPJK-UHFFFAOYSA-N

>  <smiles>  (17) 
O=C(NCC1CCN(C2CCOCC2)CC1)c1ccc2c(c1)CCN2

>  <ref_pdb>  (17) 
A4708a

>  <alias>  (17) 
C45999-P441

>  <HIPPO Pose ID>  (17) 
160679

>  <name>  (17) 
C45999-P441

>  <HIPPO Compound ID>  (17) 
45999

>  <ref_mols>  (17) 
A4708a,A1778a

>  <distance_score>  (17) 
1.884056

>  <inspiration_score>  (17) 
None

$$$$
C45686-P271
     RDKit          3D

 21 22  0  0  0  0  0  0  0  0999 V2000
    9.5166   15.1335   19.9807 C   0  0  0  0  0  0  0  0  0  0  0  0
   10.7607   15.8343   20.4422 C   0  0  0  0  0  0  0  0  0  0  0  0
   10.3686   17.2965   20.6060 C   0  0  0  0  0  0  0  0  0  0  0  0
   11.7977   15.5798   19.3471 C   0  0  0  0  0  0  0  0  0  0  0  0
   11.2431   15.1821   21.7533 C   0  0  1  0  0  0  0  0  0  0  0  0
   12.4590   15.8304   22.4138 C   0  0  0  0  0  0  0  0  0  0  0  0
   12.7987   15.1205   23.6696 N   0  0  0  0  0  0  0  0  0  0  0  0
   10.1779   15.0064   22.7187 N   0  0  0  0  0  0  0  0  0  0  0  0
    9.8583   15.7844   24.0075 C   0  0  0  0  0  0  0  0  0  0  0  0
   10.3540   16.7363   24.4564 O   0  0  0  0  0  0  0  0  0  0  0  0
    8.8299   15.0666   24.7136 C   0  0  0  0  0  0  0  0  0  0  0  0
    8.8418   14.7468   26.0819 C   0  0  0  0  0  0  0  0  0  0  0  0
    8.0902   13.6737   26.3339 N   0  0  0  0  0  0  0  0  0  0  0  0
    7.6479   13.3257   25.1159 N   0  0  0  0  0  0  0  0  0  0  0  0
    7.6359   11.9303   24.7195 C   0  0  2  0  0  0  0  0  0  0  0  0
    7.3282   10.9481   25.8349 C   0  0  0  0  0  0  0  0  0  0  0  0
    7.4384    9.5205   25.3360 C   0  0  0  0  0  0  0  0  0  0  0  0
    8.6998    9.2323   24.5214 C   0  0  0  0  0  0  0  0  0  0  0  0
    8.9288   10.2053   23.4764 N   0  0  0  0  0  0  0  0  0  0  0  0
    8.9551   11.5591   24.0175 C   0  0  0  0  0  0  0  0  0  0  0  0
    7.7893   14.3269   24.1893 C   0  0  0  0  0  0  0  0  0  0  0  0
  1  2  1  0
  2  3  1  0
  2  4  1  0
  2  5  1  0
  5  6  1  1
  6  7  1  0
  5  8  1  0
  8  9  1  0
  9 10  2  0
  9 11  1  0
 11 12  1  0
 12 13  2  0
 13 14  1  0
 15 14  1  1
 15 16  1  0
 16 17  1  0
 17 18  1  0
 18 19  1  0
 19 20  1  0
 14 21  1  0
 21 11  2  0
 20 15  1  0
M  END
>  <energy_score>  (18) 
-1.970724

>  <inchikey>  (18) 
NNQHEEWKOFTWLP-UHFFFAOYSA-N

>  <smiles>  (18) 
CC(C)(C)[C@@H](CN)NC(=O)c1cnn([C@@H]2CCCNC2)c1

>  <ref_pdb>  (18) 
A4020b

>  <alias>  (18) 
C45686-P271

>  <HIPPO Pose ID>  (18) 
163189

>  <name>  (18) 
C45686-P271

>  <HIPPO Compound ID>  (18) 
45686

>  <ref_mols>  (18) 
A0556a,A4020b

>  <distance_score>  (18) 
1.38514

>  <inspiration_score>  (18) 
None

$$$$
C102808-P9
     RDKit          3D

 23 26  0  0  0  0  0  0  0  0999 V2000
    8.2473   13.6718    2.5604 C   0  0  0  0  0  0  0  0  0  0  0  0
    8.8459   14.9223    2.8203 C   0  0  0  0  0  0  0  0  0  0  0  0
    9.8008   15.0944    1.8310 C   0  0  0  0  0  0  0  0  0  0  0  0
   10.8565   16.0937    1.5985 C   0  0  0  0  0  0  0  0  0  0  0  0
   11.4752   16.2129    0.3393 C   0  0  0  0  0  0  0  0  0  0  0  0
   12.5971   17.0376    0.1346 C   0  0  0  0  0  0  0  0  0  0  0  0
   13.1532   17.7706    1.1868 C   0  0  0  0  0  0  0  0  0  0  0  0
   14.3862   18.6491    0.9892 C   0  0  0  0  0  0  0  0  0  0  0  0
   15.4662   17.9895    0.2376 N   0  0  0  0  0  0  0  0  0  0  0  0
   16.8307   18.4166    0.6238 C   0  0  0  0  0  0  0  0  0  0  0  0
   17.5210   17.3650    1.4871 C   0  0  0  0  0  0  0  0  0  0  0  0
   16.8735   16.9722    2.6641 C   0  0  0  0  0  0  0  0  0  0  0  0
   17.2286   15.8091    3.3360 C   0  0  0  0  0  0  0  0  0  0  0  0
   18.3048   15.0589    2.8572 C   0  0  0  0  0  0  0  0  0  0  0  0
   18.8993   13.8325    3.2008 C   0  0  0  0  0  0  0  0  0  0  0  0
   19.9386   13.5336    2.4254 N   0  0  0  0  0  0  0  0  0  0  0  0
   20.0476   14.6061    1.6180 N   0  0  0  0  0  0  0  0  0  0  0  0
   19.0469   15.5320    1.7834 C   0  0  0  0  0  0  0  0  0  0  0  0
   18.6914   16.6912    1.0727 C   0  0  0  0  0  0  0  0  0  0  0  0
   12.4975   17.7104    2.4289 C   0  0  0  0  0  0  0  0  0  0  0  0
   11.3646   16.8922    2.6297 C   0  0  0  0  0  0  0  0  0  0  0  0
    9.6565   13.9787    1.0372 N   0  0  0  0  0  0  0  0  0  0  0  0
    8.7429   13.1010    1.4647 N   0  0  0  0  0  0  0  0  0  0  0  0
  1  2  1  0
  2  3  2  0
  3  4  1  0
  4  5  2  0
  5  6  1  0
  6  7  2  0
  7  8  1  0
  8  9  1  0
  9 10  1  0
 10 11  1  0
 11 12  2  0
 12 13  1  0
 13 14  2  0
 14 15  1  0
 15 16  2  0
 16 17  1  0
 17 18  1  0
 18 19  2  0
  7 20  1  0
 20 21  2  0
  3 22  1  0
 22 23  1  0
 23  1  2  0
 21  4  1  0
 19 11  1  0
 18 14  1  0
M  END
>  <energy_score>  (19) 
-20.688134

>  <inchikey>  (19) 
MOLXQHJGKHTSPF-UHFFFAOYSA-N

>  <smiles>  (19) 
c1cc(-c2ccc(CNCc3ccc4cn[nH]c4c3)cc2)[nH]n1

>  <ref_pdb>  (19) 
A0486a

>  <alias>  (19) 
C102808-P9

>  <HIPPO Pose ID>  (19) 
165073

>  <name>  (19) 
C102808-P9

>  <HIPPO Compound ID>  (19) 
102808

>  <ref_mols>  (19) 
A0486a,A0717a

>  <distance_score>  (19) 
1.848816

>  <inspiration_score>  (19) 
None

$$$$
C47021-P439
     RDKit          3D

 23 24  0  0  0  0  0  0  0  0999 V2000
   14.5739   14.2116   30.2295 C   0  0  0  0  0  0  0  0  0  0  0  0
   14.7584   13.8447   28.8645 O   0  0  0  0  0  0  0  0  0  0  0  0
   15.2664   12.5096   28.7657 C   0  0  0  0  0  0  0  0  0  0  0  0
   15.1986   12.0671   27.2993 C   0  0  1  0  0  0  0  0  0  0  0  0
   16.0600   10.8302   27.1155 C   0  0  0  0  0  0  0  0  0  0  0  0
   13.7973   11.8576   26.9788 O   0  0  0  0  0  0  0  0  0  0  0  0
   13.5010   11.9818   25.6598 C   0  0  0  0  0  0  0  0  0  0  0  0
   14.2688   11.6868   24.7540 O   0  0  0  0  0  0  0  0  0  0  0  0
   12.1383   12.6034   25.4328 C   0  0  0  0  0  0  0  0  0  0  0  0
   12.2325   13.4998   24.2035 C   0  0  0  0  0  0  0  0  0  0  0  0
   10.9524   14.2370   23.9067 C   0  0  0  0  0  0  0  0  0  0  0  0
    9.7709   13.3658   24.1118 N   0  0  0  0  0  0  0  0  0  0  0  0
    8.7118   13.9986   25.2356 S   0  0  0  0  0  0  0  0  0  0  0  0
    8.4414   15.3411   24.7829 O   0  0  0  0  0  0  0  0  0  0  0  0
    9.2563   13.7703   26.5535 O   0  0  0  0  0  0  0  0  0  0  0  0
    7.3296   13.0568   25.0254 N   0  0  0  0  0  0  0  0  0  0  0  0
    7.2715   11.7453   25.7289 C   0  0  0  0  0  0  0  0  0  0  0  0
    6.0748   11.6298   26.6655 C   0  0  0  0  0  0  0  0  0  0  0  0
    5.8656   12.8992   27.4763 C   0  0  0  0  0  0  0  0  0  0  0  0
    5.7274   14.1274   26.5741 C   0  0  0  0  0  0  0  0  0  0  0  0
    6.0589   13.8240   25.1144 C   0  0  0  0  0  0  0  0  0  0  0  0
   10.0820   11.9357   24.0797 C   0  0  0  0  0  0  0  0  0  0  0  0
   11.0103   11.5872   25.2395 C   0  0  0  0  0  0  0  0  0  0  0  0
  1  2  1  0
  2  3  1  0
  3  4  1  0
  4  5  1  1
  4  6  1  0
  6  7  1  0
  7  8  2  0
  7  9  1  0
  9 10  1  0
 10 11  1  0
 11 12  1  0
 12 13  1  0
 13 14  2  0
 13 15  2  0
 13 16  1  0
 16 17  1  0
 17 18  1  0
 18 19  1  0
 19 20  1  0
 20 21  1  0
 12 22  1  0
 22 23  1  0
 23  9  1  0
 21 16  1  0
M  END
>  <energy_score>  (20) 
-53.642925

>  <inchikey>  (20) 
HYTGBCNVCLBUHL-UHFFFAOYSA-N

>  <smiles>  (20) 
COC[C@@H](C)OC(=O)C1CCN(S(=O)(=O)N2CCCCC2)CC1

>  <ref_pdb>  (20) 
A4706a

>  <alias>  (20) 
C47021-P439

>  <HIPPO Pose ID>  (20) 
170310

>  <name>  (20) 
C47021-P439

>  <HIPPO Compound ID>  (20) 
47021

>  <ref_mols>  (20) 
A4706a,A0875a

>  <distance_score>  (20) 
1.546714

>  <inspiration_score>  (20) 
None

$$$$
C46596-P257
     RDKit          3D

 22 23  0  0  0  0  0  0  0  0999 V2000
    8.0322   10.2524   24.9864 C   0  0  0  0  0  0  0  0  0  0  0  0
    8.9469   11.0083   24.1994 N   0  0  0  0  0  0  0  0  0  0  0  0
    9.7308   12.2081   24.5263 C   0  0  0  0  0  0  0  0  0  0  0  0
    9.8454   12.7793   25.5376 O   0  0  0  0  0  0  0  0  0  0  0  0
   10.3085   12.4945   23.2070 N   0  0  0  0  0  0  0  0  0  0  0  0
   11.0967   13.5986   22.7520 C   0  0  0  0  0  0  0  0  0  0  0  0
   10.2948   14.9420   22.8056 C   0  0  1  0  0  0  0  0  0  0  0  0
   11.2119   16.1711   22.9135 C   0  0  0  0  0  0  0  0  0  0  0  0
   11.2945   16.8926   21.5999 C   0  0  0  0  0  0  0  0  0  0  0  0
   10.9979   15.9225   20.4943 C   0  0  0  0  0  0  0  0  0  0  0  0
    9.8164   15.0252   20.8664 C   0  0  0  0  0  0  0  0  0  0  0  0
    8.9540   15.2259   22.0687 N   0  0  0  0  0  0  0  0  0  0  0  0
    7.9095   14.4110   22.6159 C   0  0  0  0  0  0  0  0  0  0  0  0
    7.5229   13.3140   22.2983 O   0  0  0  0  0  0  0  0  0  0  0  0
    7.2193   15.2048   23.7246 C   0  0  0  0  0  0  0  0  0  0  0  0
    6.3377   14.3009   24.5861 C   0  0  0  0  0  0  0  0  0  0  0  0
    5.9155   14.9429   25.9229 C   0  0  2  0  0  0  0  0  0  0  0  0
    5.0676   13.9542   26.7425 C   0  0  0  0  0  0  0  0  0  0  0  0
    3.6524   13.8216   26.1826 C   0  0  0  0  0  0  0  0  0  0  0  0
    3.0035   15.1878   25.9798 C   0  0  0  0  0  0  0  0  0  0  0  0
    3.8255   16.0790   25.1634 N   0  0  0  0  0  0  0  0  0  0  0  0
    5.1481   16.2676   25.7663 C   0  0  0  0  0  0  0  0  0  0  0  0
  1  2  1  0
  2  3  1  0
  3  4  2  0
  3  5  1  0
  5  6  1  0
  7  6  1  6
  7  8  1  0
  8  9  1  0
  9 10  1  0
 10 11  1  0
 11 12  1  0
 12 13  1  0
 13 14  2  0
 13 15  1  0
 15 16  1  0
 17 16  1  6
 17 18  1  0
 18 19  1  0
 19 20  1  0
 20 21  1  0
 21 22  1  0
 12  7  1  0
 22 17  1  0
M  END
>  <energy_score>  (21) 
55.238462

>  <inchikey>  (21) 
FEDASQWRWJBYJV-UHFFFAOYSA-N

>  <smiles>  (21) 
CNC(=O)NC[C@H]1CCCCN1C(=O)CC[C@@H]1CCCNC1

>  <ref_pdb>  (21) 
A3986b

>  <alias>  (21) 
C46596-P257

>  <HIPPO Pose ID>  (21) 
172717

>  <name>  (21) 
C46596-P257

>  <HIPPO Compound ID>  (21) 
46596

>  <ref_mols>  (21) 
A3986b,A1779a

>  <distance_score>  (21) 
1.52404

>  <inspiration_score>  (21) 
None

$$$$
C4120-P465
     RDKit          3D

 21 23  0  0  0  0  0  0  0  0999 V2000
    8.9300    8.8074   24.6816 O   0  0  0  0  0  0  0  0  0  0  0  0
    8.7203   10.0131   24.6437 C   0  0  0  0  0  0  0  0  0  0  0  0
    9.7069   10.9523   24.0241 C   0  0  0  0  0  0  0  0  0  0  0  0
    9.4362   12.4130   24.2952 C   0  0  0  0  0  0  0  0  0  0  0  0
    8.5949   13.0848   23.2039 C   0  0  0  0  0  0  0  0  0  0  0  0
    7.4505   12.7629   23.0270 O   0  0  0  0  0  0  0  0  0  0  0  0
    9.3720   14.1217   22.6041 N   0  0  0  0  0  0  0  0  0  0  0  0
    9.2644   15.3649   23.4058 C   0  0  0  0  0  0  0  0  0  0  0  0
   10.6118   16.1082   23.3727 C   0  0  0  0  0  0  0  0  0  0  0  0
   10.7642   16.7636   22.0224 C   0  0  0  0  0  0  0  0  0  0  0  0
    9.4076   16.6532   21.3716 C   0  0  0  0  0  0  0  0  0  0  0  0
    9.0263   15.1237   21.4161 C   0  0  1  0  0  0  0  0  0  0  0  0
    9.8662   14.6396   20.2486 C   0  0  0  0  0  0  0  0  0  0  0  0
    9.7707   15.0929   19.0119 N   0  0  0  0  0  0  0  0  0  0  0  0
   11.0521   15.0956   18.5472 C   0  0  0  0  0  0  0  0  0  0  0  0
   11.9049   14.5407   19.4564 C   0  0  0  0  0  0  0  0  0  0  0  0
   11.1123   14.1065   20.4656 N   0  0  0  0  0  0  0  0  0  0  0  0
    8.7895   12.6313   25.6573 C   0  0  0  0  0  0  0  0  0  0  0  0
    7.6309   11.7062   25.9170 C   0  0  0  0  0  0  0  0  0  0  0  0
    6.8189   11.9107   26.8156 O   0  0  0  0  0  0  0  0  0  0  0  0
    7.6089   10.5451   25.2142 N   0  0  0  0  0  0  0  0  0  0  0  0
  1  2  2  0
  2  3  1  0
  3  4  1  0
  4  5  1  0
  5  6  2  0
  5  7  1  0
  7  8  1  0
  8  9  1  0
  9 10  1  0
 10 11  1  0
 11 12  1  0
 12 13  1  6
 13 14  2  0
 14 15  1  0
 15 16  2  0
 16 17  1  0
  4 18  1  0
 18 19  1  0
 19 20  2  0
 19 21  1  0
 21  2  1  0
 12  7  1  0
 17 13  1  0
M  END
>  <energy_score>  (22) 
39.637811

>  <inchikey>  (22) 
KDADROVQHHWUNE-UHFFFAOYSA-N

>  <smiles>  (22) 
O=C1CC(C(=O)N2CCCC[C@H]2c2ncc[nH]2)CC(=O)N1

>  <ref_pdb>  (22) 
A4786a

>  <alias>  (22) 
C4120-P465

>  <HIPPO Pose ID>  (22) 
177973

>  <name>  (22) 
C4120-P465

>  <HIPPO Compound ID>  (22) 
4120

>  <ref_mols>  (22) 
A4786a,A1209a

>  <distance_score>  (22) 
1.154844

>  <inspiration_score>  (22) 
None

$$$$
C45979-P228
     RDKit          3D

 23 25  0  0  0  0  0  0  0  0999 V2000
   11.3720   14.6438   18.5138 C   0  0  0  0  0  0  0  0  0  0  0  0
   10.6385   15.8469   18.9741 C   0  0  0  0  0  0  0  0  0  0  0  0
   11.5467   16.8171   19.1595 F   0  0  0  0  0  0  0  0  0  0  0  0
    9.8182   16.2939   17.9887 F   0  0  0  0  0  0  0  0  0  0  0  0
    9.8202   15.7687   20.2430 C   0  0  0  0  0  0  0  0  0  0  0  0
   10.3781   15.2908   21.5261 N   0  0  0  0  0  0  0  0  0  0  0  0
   11.6984   15.8552   21.8089 C   0  0  0  0  0  0  0  0  0  0  0  0
   12.1706   15.3284   23.1572 C   0  0  0  0  0  0  0  0  0  0  0  0
   11.2551   15.7794   24.2814 C   0  0  0  0  0  0  0  0  0  0  0  0
    9.8000   15.4291   24.0024 C   0  0  2  0  0  0  0  0  0  0  0  0
    9.3690   13.8312   24.6750 S   0  0  0  0  0  0  0  0  0  0  0  0
   10.3698   12.8482   24.3143 O   0  0  0  0  0  0  0  0  0  0  0  0
    9.0678   14.0619   26.0775 O   0  0  0  0  0  0  0  0  0  0  0  0
    7.8870   13.4169   23.9208 N   0  0  0  0  0  0  0  0  0  0  0  0
    6.7608   14.4128   24.0900 C   0  0  0  0  0  0  0  0  0  0  0  0
    5.8940   13.9206   25.2539 C   0  0  0  0  0  0  0  0  0  0  0  0
    6.2346   12.4725   25.2707 C   0  0  0  0  0  0  0  0  0  0  0  0
    5.6145   11.4680   25.9802 C   0  0  0  0  0  0  0  0  0  0  0  0
    6.1058   10.1743   25.8307 C   0  0  0  0  0  0  0  0  0  0  0  0
    7.2355    9.9128   25.0341 C   0  0  0  0  0  0  0  0  0  0  0  0
    7.8889   10.9435   24.3691 C   0  0  0  0  0  0  0  0  0  0  0  0
    7.3591   12.2101   24.4894 C   0  0  0  0  0  0  0  0  0  0  0  0
    9.4027   15.6699   22.5578 C   0  0  0  0  0  0  0  0  0  0  0  0
  1  2  1  0
  2  3  1  0
  2  4  1  0
  2  5  1  0
  5  6  1  0
  6  7  1  0
  7  8  1  0
  8  9  1  0
  9 10  1  0
 10 11  1  6
 11 12  2  0
 11 13  2  0
 11 14  1  0
 14 15  1  0
 15 16  1  0
 16 17  1  0
 17 18  2  0
 18 19  1  0
 19 20  2  0
 20 21  1  0
 21 22  2  0
 10 23  1  0
 23  6  1  0
 22 14  1  0
 22 17  1  0
M  END
>  <energy_score>  (23) 
-51.911721

>  <inchikey>  (23) 
RBXTZVLYSUIEGL-UHFFFAOYSA-N

>  <smiles>  (23) 
CC(F)(F)CN1CCC[C@H](S(=O)(=O)N2CCc3ccccc32)C1

>  <ref_pdb>  (23) 
A3868a

>  <alias>  (23) 
C45979-P228

>  <HIPPO Pose ID>  (23) 
180750

>  <name>  (23) 
C45979-P228

>  <HIPPO Compound ID>  (23) 
45979

>  <ref_mols>  (23) 
A1778a,A3868a

>  <distance_score>  (23) 
0.979673

>  <inspiration_score>  (23) 
None

$$$$
C46686-P93
     RDKit          3D

 22 24  0  0  0  0  0  0  0  0999 V2000
    5.6971   12.9480   25.0783 C   0  0  0  0  0  0  0  0  0  0  0  0
    6.1962   14.0441   24.1788 N   0  0  0  0  0  0  0  0  0  0  0  0
    7.2561   14.0883   25.2476 C   0  0  0  0  0  0  0  0  0  0  0  0
    8.3492   15.0566   24.7468 C   0  0  0  0  0  0  0  0  0  0  0  0
    9.1125   14.6392   23.5956 N   0  0  0  0  0  0  0  0  0  0  0  0
   10.2257   13.8472   23.6164 C   0  0  0  0  0  0  0  0  0  0  0  0
   10.6828   13.8514   22.3188 C   0  0  0  0  0  0  0  0  0  0  0  0
    9.8742   14.6178   21.5208 N   0  0  0  0  0  0  0  0  0  0  0  0
    8.9750   15.1285   22.3276 C   0  0  0  0  0  0  0  0  0  0  0  0
    5.0869   15.0281   23.8435 C   0  0  0  0  0  0  0  0  0  0  0  0
    4.7511   16.0137   24.3935 O   0  0  0  0  0  0  0  0  0  0  0  0
    4.5015   14.5820   22.5572 C   0  0  0  0  0  0  0  0  0  0  0  0
    5.3191   14.3188   21.4358 C   0  0  0  0  0  0  0  0  0  0  0  0
    4.4693   13.9618   20.4324 C   0  0  0  0  0  0  0  0  0  0  0  0
    3.2362   13.8690   20.9886 N   0  0  0  0  0  0  0  0  0  0  0  0
    2.0774   13.1931   20.4139 C   0  0  1  0  0  0  0  0  0  0  0  0
    2.0774   13.1095   18.8761 C   0  0  0  0  0  0  0  0  0  0  0  0
    2.9639   12.0117   18.2937 C   0  0  0  0  0  0  0  0  0  0  0  0
    2.8765   10.7023   19.0643 C   0  0  0  0  0  0  0  0  0  0  0  0
    2.9272   10.8444   20.5008 N   0  0  0  0  0  0  0  0  0  0  0  0
    1.9220   11.7866   21.0032 C   0  0  0  0  0  0  0  0  0  0  0  0
    3.1968   14.4062   22.2476 N   0  0  0  0  0  0  0  0  0  0  0  0
  1  2  1  0
  2  3  1  0
  3  4  1  0
  4  5  1  0
  5  6  1  0
  6  7  2  0
  7  8  1  0
  8  9  2  0
  2 10  1  0
 10 11  2  0
 10 12  1  0
 12 13  1  0
 13 14  2  0
 14 15  1  0
 16 15  1  1
 16 17  1  0
 17 18  1  0
 18 19  1  0
 19 20  1  0
 20 21  1  0
 15 22  1  0
  9  5  1  0
 22 12  2  0
 21 16  1  0
M  END
>  <energy_score>  (24) 
47.604667

>  <inchikey>  (24) 
GWOLOIVXCHIADQ-UHFFFAOYSA-N

>  <smiles>  (24) 
CN(CCn1ccnc1)C(=O)c1ccn([C@H]2CCCNC2)n1

>  <ref_pdb>  (24) 
A0926a

>  <alias>  (24) 
C46686-P93

>  <HIPPO Pose ID>  (24) 
184844

>  <name>  (24) 
C46686-P93

>  <HIPPO Compound ID>  (24) 
46686

>  <ref_mols>  (24) 
A1180a,A0926a

>  <distance_score>  (24) 
2.058213

>  <inspiration_score>  (24) 
None

$$$$
C105126-P273
     RDKit          3D

 21 22  0  0  0  0  0  0  0  0999 V2000
    4.1052   12.0909   29.5769 C   0  0  0  0  0  0  0  0  0  0  0  0
    4.6251   11.0620   28.7404 O   0  0  0  0  0  0  0  0  0  0  0  0
    5.4547   11.5450   27.7479 C   0  0  0  0  0  0  0  0  0  0  0  0
    5.9337   10.6129   26.8425 C   0  0  0  0  0  0  0  0  0  0  0  0
    6.7801   11.0393   25.8344 C   0  0  0  0  0  0  0  0  0  0  0  0
    7.1023   12.3931   25.7388 C   0  0  0  0  0  0  0  0  0  0  0  0
    8.0429   12.8333   24.6659 C   0  0  0  0  0  0  0  0  0  0  0  0
    7.6589   14.1252   23.8825 C   0  0  0  0  0  0  0  0  0  0  0  0
    8.8011   14.8082   23.1618 N   0  0  0  0  0  0  0  0  0  0  0  0
    8.5964   13.6387   22.2608 C   0  0  0  0  0  0  0  0  0  0  0  0
   10.2518   14.9574   23.5411 C   0  0  0  0  0  0  0  0  0  0  0  0
   10.8525   14.5081   24.4495 O   0  0  0  0  0  0  0  0  0  0  0  0
   10.9878   15.7504   22.4672 C   0  0  1  0  0  0  0  0  0  0  0  0
   11.9336   14.7058   21.8595 C   0  0  0  0  0  0  0  0  0  0  0  0
   12.3470   15.0649   20.4666 C   0  0  0  0  0  0  0  0  0  0  0  0
   11.1643   15.2248   19.5715 C   0  0  0  0  0  0  0  0  0  0  0  0
   11.1526   14.7957   18.4271 O   0  0  0  0  0  0  0  0  0  0  0  0
   10.1093   15.8845   20.1234 N   0  0  0  0  0  0  0  0  0  0  0  0
   10.1715   16.5274   21.4189 C   0  0  0  0  0  0  0  0  0  0  0  0
    6.5875   13.2486   26.7078 C   0  0  0  0  0  0  0  0  0  0  0  0
    5.7794   12.8518   27.7150 N   0  0  0  0  0  0  0  0  0  0  0  0
  1  2  1  0
  2  3  1  0
  3  4  2  0
  4  5  1  0
  5  6  2  0
  6  7  1  0
  7  8  1  0
  8  9  1  0
  9 10  1  0
  9 11  1  0
 11 12  2  0
 13 11  1  1
 13 14  1  0
 14 15  1  0
 15 16  1  0
 16 17  2  0
 16 18  1  0
 18 19  1  0
  6 20  1  0
 20 21  2  0
 21  3  1  0
 19 13  1  0
M  END
>  <energy_score>  (25) 
53.445984

>  <inchikey>  (25) 
LAQMOCRJNXWRNA-UHFFFAOYSA-N

>  <smiles>  (25) 
COc1ccc(CCN(C)C(=O)[C@H]2CCC(=O)NC2)cn1

>  <ref_pdb>  (25) 
A4029a

>  <alias>  (25) 
C105126-P273

>  <HIPPO Pose ID>  (25) 
185670

>  <name>  (25) 
C105126-P273

>  <HIPPO Compound ID>  (25) 
105126

>  <ref_mols>  (25) 
A4029a,A2629a

>  <distance_score>  (25) 
1.940224

>  <inspiration_score>  (25) 
None

$$$$
C2124-P138
     RDKit          3D

 21 22  0  0  0  0  0  0  0  0999 V2000
   11.3106   15.7313   24.4963 C   0  0  0  0  0  0  0  0  0  0  0  0
   11.4028   15.3569   23.0264 C   0  0  0  0  0  0  0  0  0  0  0  0
   11.1356   13.9562   22.8762 O   0  0  0  0  0  0  0  0  0  0  0  0
    9.8258   13.6118   23.0054 C   0  0  0  0  0  0  0  0  0  0  0  0
    8.9533   14.4086   23.1493 O   0  0  0  0  0  0  0  0  0  0  0  0
    9.7997   12.2131   23.0177 N   0  0  0  0  0  0  0  0  0  0  0  0
    8.7324   11.2907   23.3009 C   0  0  2  0  0  0  0  0  0  0  0  0
    8.4427   11.2291   24.7867 C   0  0  0  0  0  0  0  0  0  0  0  0
    8.0928    9.8126   25.1863 C   0  0  0  0  0  0  0  0  0  0  0  0
    8.7526    8.7212   24.2720 C   0  0  0  0  0  0  0  0  0  0  0  0
    7.8224    8.8264   23.1743 N   0  0  0  0  0  0  0  0  0  0  0  0
    7.4698    7.8363   22.0540 C   0  0  0  0  0  0  0  0  0  0  0  0
    7.9742    6.7729   21.7949 O   0  0  0  0  0  0  0  0  0  0  0  0
    5.8662    8.1509   20.9011 C   0  0  0  0  0  0  0  0  0  0  0  0
    4.3746    8.8100   19.8398 C   0  0  0  0  0  0  0  0  0  0  0  0
    3.7310   10.2109   19.9871 C   0  0  0  0  0  0  0  0  0  0  0  0
    3.7532   11.3010   19.1390 C   0  0  0  0  0  0  0  0  0  0  0  0
    2.9234   12.2326   19.7033 N   0  0  0  0  0  0  0  0  0  0  0  0
    2.3873   11.6694   20.8181 C   0  0  0  0  0  0  0  0  0  0  0  0
    2.8403   10.4535   20.9957 N   0  0  0  0  0  0  0  0  0  0  0  0
    8.9113    9.8752   22.6859 C   0  0  0  0  0  0  0  0  0  0  0  0
  1  2  1  0
  2  3  1  0
  3  4  1  0
  4  5  2  0
  4  6  1  0
  7  6  1  1
  7  8  1  0
  8  9  1  0
  9 10  1  0
 10 11  1  0
 11 12  1  0
 12 13  2  0
 12 14  1  0
 14 15  1  0
 15 16  1  0
 16 17  2  0
 17 18  1  0
 18 19  1  0
 19 20  2  0
 11 21  1  0
 21  7  1  0
 20 16  1  0
M  END
>  <energy_score>  (26) 
310.477145

>  <inchikey>  (26) 
YZZSISWBYNOQBH-UHFFFAOYSA-N

>  <smiles>  (26) 
CCOC(=O)N[C@@H]1CCCN(C(=O)CCc2c[nH]cn2)C1

>  <ref_pdb>  (26) 
A3054a

>  <alias>  (26) 
C2124-P138

>  <HIPPO Pose ID>  (26) 
198999

>  <name>  (26) 
C2124-P138

>  <HIPPO Compound ID>  (26) 
2124

>  <ref_mols>  (26) 
A1180a,A3054a

>  <distance_score>  (26) 
2.224937

>  <inspiration_score>  (26) 
None

$$$$
C46492-P557
     RDKit          3D

 23 25  0  0  0  0  0  0  0  0999 V2000
   12.0036   13.9963   25.5773 O   0  0  0  0  0  0  0  0  0  0  0  0
   11.0158   14.4511   25.1614 C   0  0  0  0  0  0  0  0  0  0  0  0
   10.8813   15.9121   24.8621 C   0  0  0  0  0  0  0  0  0  0  0  0
   11.2352   16.0768   23.4036 C   0  0  0  0  0  0  0  0  0  0  0  0
   10.0416   16.3294   22.5955 C   0  0  0  0  0  0  0  0  0  0  0  0
    9.0094   15.5509   22.3433 N   0  0  0  0  0  0  0  0  0  0  0  0
    8.8677   15.9079   21.0051 C   0  0  0  0  0  0  0  0  0  0  0  0
    9.7212   15.1349   20.0733 C   0  0  0  0  0  0  0  0  0  0  0  0
   10.4943   14.1845   20.7230 C   0  0  0  0  0  0  0  0  0  0  0  0
   11.8300   14.1485   20.4342 C   0  0  0  0  0  0  0  0  0  0  0  0
   12.3016   14.8772   19.3778 C   0  0  0  0  0  0  0  0  0  0  0  0
   11.4138   15.6087   18.6248 C   0  0  0  0  0  0  0  0  0  0  0  0
   10.1275   15.7767   18.9562 N   0  0  0  0  0  0  0  0  0  0  0  0
    8.9781   17.2520   20.9194 N   0  0  0  0  0  0  0  0  0  0  0  0
   10.0726   17.4292   21.7742 O   0  0  0  0  0  0  0  0  0  0  0  0
    9.6947   13.7683   24.7548 N   0  0  0  0  0  0  0  0  0  0  0  0
    9.2851   12.4090   24.8631 C   0  0  0  0  0  0  0  0  0  0  0  0
    7.8217   12.1225   24.6143 C   0  0  2  0  0  0  0  0  0  0  0  0
    6.8443   12.9090   25.5062 C   0  0  0  0  0  0  0  0  0  0  0  0
    6.4832   12.2337   26.8261 C   0  0  0  0  0  0  0  0  0  0  0  0
    6.2433   10.7405   26.6828 C   0  0  0  0  0  0  0  0  0  0  0  0
    7.4108   10.1016   26.0840 N   0  0  0  0  0  0  0  0  0  0  0  0
    7.6236   10.6092   24.7368 C   0  0  0  0  0  0  0  0  0  0  0  0
  1  2  2  0
  2  3  1  0
  3  4  1  0
  4  5  1  0
  5  6  2  0
  6  7  1  0
  7  8  1  0
  8  9  2  0
  9 10  1  0
 10 11  2  0
 11 12  1  0
 12 13  2  0
  7 14  2  0
 14 15  1  0
  2 16  1  0
 16 17  1  0
 18 17  1  1
 18 19  1  0
 19 20  1  0
 20 21  1  0
 21 22  1  0
 22 23  1  0
 15  5  1  0
 23 18  1  0
 13  8  1  0
M  END
>  <energy_score>  (27) 
31.758901

>  <inchikey>  (27) 
KEAWWPSTAFAMJW-UHFFFAOYSA-N

>  <smiles>  (27) 
O=C(CCc1nc(-c2ccccn2)no1)NC[C@@H]1CCCNC1

>  <ref_pdb>  (27) 
A5079a

>  <alias>  (27) 
C46492-P557

>  <HIPPO Pose ID>  (27) 
201694

>  <name>  (27) 
C46492-P557

>  <HIPPO Compound ID>  (27) 
46492

>  <ref_mols>  (27) 
A5079a,A2629a

>  <distance_score>  (27) 
1.927489

>  <inspiration_score>  (27) 
None

$$$$
C124752-P87
     RDKit          3D

 21 23  0  0  0  0  0  0  0  0999 V2000
    8.1379   14.6453   21.2388 O   0  0  0  0  0  0  0  0  0  0  0  0
    8.7400   14.9239   22.2110 C   0  0  0  0  0  0  0  0  0  0  0  0
    8.1044   14.8433   23.5559 C   0  0  0  0  0  0  0  0  0  0  0  0
    6.9843   13.8089   23.7565 C   0  0  0  0  0  0  0  0  0  0  0  0
    7.2466   12.7677   24.8650 C   0  0  0  0  0  0  0  0  0  0  0  0
    8.4599   11.9592   24.7410 N   0  0  0  0  0  0  0  0  0  0  0  0
    8.2859   10.6048   25.1663 C   0  0  0  0  0  0  0  0  0  0  0  0
    9.3971    9.6546   24.7791 C   0  0  0  0  0  0  0  0  0  0  0  0
    9.8034    9.6596   23.3547 C   0  0  0  0  0  0  0  0  0  0  0  0
   10.2089   11.0588   23.1391 C   0  0  0  0  0  0  0  0  0  0  0  0
    9.1190   12.0433   23.4730 C   0  0  0  0  0  0  0  0  0  0  0  0
   10.1446   15.4915   22.3711 N   0  0  0  0  0  0  0  0  0  0  0  0
   11.1231   15.9504   21.3537 C   0  0  0  0  0  0  0  0  0  0  0  0
   12.2636   15.1575   21.7983 C   0  0  0  0  0  0  0  0  0  0  0  0
   11.2377   14.3247   22.4881 C   0  0  1  0  0  0  0  0  0  0  0  0
   11.7594   13.6428   23.8384 C   0  0  0  0  0  0  0  0  0  0  0  0
   12.8113   12.7364   23.6791 C   0  0  0  0  0  0  0  0  0  0  0  0
   13.5092   12.0914   24.7024 C   0  0  0  0  0  0  0  0  0  0  0  0
   13.1507   12.3738   25.9909 C   0  0  0  0  0  0  0  0  0  0  0  0
   12.0534   13.2017   26.2015 C   0  0  0  0  0  0  0  0  0  0  0  0
   11.3208   13.7548   25.1478 C   0  0  0  0  0  0  0  0  0  0  0  0
  1  2  2  0
  2  3  1  0
  3  4  1  0
  4  5  1  0
  5  6  1  0
  6  7  1  0
  7  8  1  0
  8  9  1  0
  9 10  1  0
 10 11  1  0
  2 12  1  0
 12 13  1  0
 13 14  1  0
 14 15  1  0
 15 16  1  1
 16 17  2  0
 17 18  1  0
 18 19  2  0
 19 20  1  0
 20 21  2  0
 11  6  1  0
 15 12  1  0
 21 16  1  0
M  END
>  <energy_score>  (28) 
46.163301

>  <inchikey>  (28) 
ISSCSRGHWYYCPW-UHFFFAOYSA-N

>  <smiles>  (28) 
O=C(CCCN1CCCCC1)N1CC[C@H]1c1ccccc1

>  <ref_pdb>  (28) 
A0875a

>  <alias>  (28) 
C124752-P87

>  <HIPPO Pose ID>  (28) 
208197

>  <name>  (28) 
C124752-P87

>  <HIPPO Compound ID>  (28) 
124752

>  <ref_mols>  (28) 
A4715a,A0875a

>  <distance_score>  (28) 
2.282718

>  <inspiration_score>  (28) 
None

$$$$
C46019-P439
     RDKit          3D

 22 24  0  0  0  0  0  0  0  0999 V2000
    8.7240   10.2320   25.1015 C   0  0  0  0  0  0  0  0  0  0  0  0
   10.1773   10.3024   24.7275 C   0  0  0  0  0  0  0  0  0  0  0  0
   10.6120   11.6734   24.6326 O   0  0  0  0  0  0  0  0  0  0  0  0
   10.2807   12.2537   23.4413 C   0  0  0  0  0  0  0  0  0  0  0  0
    9.6919   11.6500   22.5667 O   0  0  0  0  0  0  0  0  0  0  0  0
   10.7748   13.6765   23.3477 C   0  0  1  0  0  0  0  0  0  0  0  0
   11.1074   14.1238   21.9419 C   0  0  0  0  0  0  0  0  0  0  0  0
    9.8242   14.6175   21.3219 C   0  0  0  0  0  0  0  0  0  0  0  0
    9.1724   15.5632   22.3314 C   0  0  0  0  0  0  0  0  0  0  0  0
    8.3789   15.0168   23.5094 N   0  0  0  0  0  0  0  0  0  0  0  0
    7.4742   13.8090   23.6122 C   0  0  0  0  0  0  0  0  0  0  0  0
    7.2373   12.9661   22.8261 O   0  0  0  0  0  0  0  0  0  0  0  0
    6.8912   13.6714   24.9980 C   0  0  0  0  0  0  0  0  0  0  0  0
    6.3066   12.4356   25.3443 C   0  0  0  0  0  0  0  0  0  0  0  0
    5.9035   12.1426   26.6494 C   0  0  0  0  0  0  0  0  0  0  0  0
    6.0299   13.1326   27.5966 C   0  0  0  0  0  0  0  0  0  0  0  0
    6.5732   14.3740   27.2601 C   0  0  0  0  0  0  0  0  0  0  0  0
    6.9980   14.6686   25.9715 C   0  0  0  0  0  0  0  0  0  0  0  0
    6.6497   15.2185   28.4856 C   0  0  0  0  0  0  0  0  0  0  0  0
    5.7556   14.4051   29.4394 C   0  0  0  0  0  0  0  0  0  0  0  0
    5.7555   13.0009   28.9800 N   0  0  0  0  0  0  0  0  0  0  0  0
    9.8093   14.6852   23.9810 C   0  0  0  0  0  0  0  0  0  0  0  0
  1  2  1  0
  2  3  1  0
  3  4  1  0
  4  5  2  0
  6  4  1  6
  6  7  1  0
  7  8  1  0
  8  9  1  0
  9 10  1  0
 10 11  1  0
 11 12  2  0
 11 13  1  0
 13 14  2  0
 14 15  1  0
 15 16  2  0
 16 17  1  0
 17 18  2  0
 17 19  1  0
 19 20  1  0
 20 21  1  0
 10 22  1  0
 22  6  1  0
 18 13  1  0
 21 16  1  0
M  END
>  <energy_score>  (29) 
54.347793

>  <inchikey>  (29) 
KMTBLQZQABEFPL-UHFFFAOYSA-N

>  <smiles>  (29) 
CCOC(=O)[C@H]1CCCN(C(=O)c2ccc3c(c2)CCN3)C1

>  <ref_pdb>  (29) 
A4706a

>  <alias>  (29) 
C46019-P439

>  <HIPPO Pose ID>  (29) 
215801

>  <name>  (29) 
C46019-P439

>  <HIPPO Compound ID>  (29) 
46019

>  <ref_mols>  (29) 
A1778a,A4706a

>  <distance_score>  (29) 
1.53229

>  <inspiration_score>  (29) 
None

$$$$
C21631-P384
     RDKit          3D

 20 22  0  0  0  0  0  0  0  0999 V2000
    8.0523   14.3320   21.9614 O   0  0  0  0  0  0  0  0  0  0  0  0
    8.3781   14.2721   23.0913 C   0  0  0  0  0  0  0  0  0  0  0  0
    7.7533   13.2916   24.0480 C   0  0  0  0  0  0  0  0  0  0  0  0
    8.8062   12.3318   24.5200 C   0  0  0  0  0  0  0  0  0  0  0  0
    8.3643   10.9903   24.7056 N   0  0  0  0  0  0  0  0  0  0  0  0
    9.0525    9.9104   24.2584 C   0  0  0  0  0  0  0  0  0  0  0  0
    8.3176    8.8567   24.7081 C   0  0  0  0  0  0  0  0  0  0  0  0
    7.1874    9.2732   25.3653 N   0  0  0  0  0  0  0  0  0  0  0  0
    7.2568   10.5817   25.3709 C   0  0  0  0  0  0  0  0  0  0  0  0
    9.3441   15.1411   23.8857 N   0  0  0  0  0  0  0  0  0  0  0  0
   10.7878   14.5806   23.8225 C   0  0  2  0  0  0  0  0  0  0  0  0
   11.7628   15.3744   24.6657 C   0  0  0  0  0  0  0  0  0  0  0  0
   11.1035   16.6864   24.5592 C   0  0  0  0  0  0  0  0  0  0  0  0
   10.0771   16.3712   23.4992 C   0  0  1  0  0  0  0  0  0  0  0  0
   10.4732   16.5101   22.0109 C   0  0  0  0  0  0  0  0  0  0  0  0
   11.4095   15.4289   21.5057 C   0  0  2  0  0  0  0  0  0  0  0  0
   11.0525   14.9493   20.0957 C   0  0  0  0  0  0  0  0  0  0  0  0
   11.0069   15.9479   18.9663 C   0  0  0  0  0  0  0  0  0  0  0  0
   10.4056   17.0950   19.3439 F   0  0  0  0  0  0  0  0  0  0  0  0
   11.3248   14.2240   22.4345 C   0  0  0  0  0  0  0  0  0  0  0  0
  1  2  2  0
  2  3  1  0
  3  4  1  0
  4  5  1  0
  5  6  1  0
  6  7  2  0
  7  8  1  0
  8  9  2  0
  2 10  1  0
 10 11  1  0
 11 12  1  6
 12 13  1  0
 14 13  1  1
 14 15  1  0
 15 16  1  0
 16 17  1  6
 17 18  1  0
 18 19  1  0
 16 20  1  0
  9  5  1  0
 14 10  1  0
 20 11  1  0
M  END
>  <energy_score>  (30) 
60.266439

>  <inchikey>  (30) 
CZITVJJPKTYXFR-UHFFFAOYSA-N

>  <smiles>  (30) 
O=C(CCn1ccnc1)N1[C@@H]2CC[C@H]1C[C@H](CCF)C2

>  <ref_pdb>  (30) 
A4509a

>  <alias>  (30) 
C21631-P384

>  <HIPPO Pose ID>  (30) 
219398

>  <name>  (30) 
C21631-P384

>  <HIPPO Compound ID>  (30) 
21631

>  <ref_mols>  (30) 
A4509a,A3371a

>  <distance_score>  (30) 
1.530375

>  <inspiration_score>  (30) 
None

$$$$
C45868-P363
     RDKit          3D

 20 21  0  0  0  0  0  0  0  0999 V2000
    8.2697   15.4086   24.6003 C   0  0  0  0  0  0  0  0  0  0  0  0
    9.7911   15.5504   24.4668 C   0  0  1  0  0  0  0  0  0  0  0  0
   10.4513   14.4351   25.1183 N   0  0  0  0  0  0  0  0  0  0  0  0
   11.9470   14.0314   25.1505 C   0  0  0  0  0  0  0  0  0  0  0  0
   12.8854   14.5751   24.7242 O   0  0  0  0  0  0  0  0  0  0  0  0
   12.0154   12.6624   25.7802 C   0  0  0  0  0  0  0  0  0  0  0  0
   11.6269   11.6558   24.8215 O   0  0  0  0  0  0  0  0  0  0  0  0
   10.2504   11.3023   24.8440 C   0  0  1  0  0  0  0  0  0  0  0  0
    9.2700   12.0055   23.9065 C   0  0  0  0  0  0  0  0  0  0  0  0
    7.9114   11.8943   24.5992 C   0  0  0  0  0  0  0  0  0  0  0  0
    7.7711   10.5319   25.2870 C   0  0  0  0  0  0  0  0  0  0  0  0
    8.5873    9.4605   24.6959 N   0  0  0  0  0  0  0  0  0  0  0  0
   10.0058    9.8294   24.4989 C   0  0  0  0  0  0  0  0  0  0  0  0
   10.1395   15.5271   22.9758 C   0  0  0  0  0  0  0  0  0  0  0  0
   11.0606   14.6207   22.5974 N   0  0  0  0  0  0  0  0  0  0  0  0
   11.3552   14.5318   21.3008 C   0  0  0  0  0  0  0  0  0  0  0  0
   10.7473   15.2999   20.3546 C   0  0  0  0  0  0  0  0  0  0  0  0
   11.1460   15.0731   18.5615 Br  0  0  0  0  0  0  0  0  0  0  0  0
    9.8204   16.1952   20.8192 C   0  0  0  0  0  0  0  0  0  0  0  0
    9.4680   16.3111   22.1200 N   0  0  0  0  0  0  0  0  0  0  0  0
  2  1  1  6
  2  3  1  0
  3  4  1  0
  4  5  2  0
  4  6  1  0
  6  7  1  0
  8  7  1  6
  8  9  1  0
  9 10  1  0
 10 11  1  0
 11 12  1  0
 12 13  1  0
  2 14  1  0
 14 15  2  0
 15 16  1  0
 16 17  2  0
 17 18  1  0
 17 19  1  0
 19 20  2  0
 13  8  1  0
 20 14  1  0
M  END
>  <energy_score>  (31) 
22.999365

>  <inchikey>  (31) 
ZALQEUITBPVZKN-UHFFFAOYSA-N

>  <smiles>  (31) 
C[C@@H](NC(=O)CO[C@H]1CCCNC1)c1ncc(Br)cn1

>  <ref_pdb>  (31) 
A4445a

>  <alias>  (31) 
C45868-P363

>  <HIPPO Pose ID>  (31) 
223853

>  <name>  (31) 
C45868-P363

>  <HIPPO Compound ID>  (31) 
45868

>  <ref_mols>  (31) 
A4445a,A1068a

>  <distance_score>  (31) 
1.640072

>  <inspiration_score>  (31) 
None

$$$$
C48106-P344
     RDKit          3D

 22 24  0  0  0  0  0  0  0  0999 V2000
   19.3964   -0.1189   23.2221 C   0  0  0  0  0  0  0  0  0  0  0  0
   18.5911    0.9893   23.7737 C   0  0  0  0  0  0  0  0  0  0  0  0
   17.7592    1.8636   23.1118 C   0  0  0  0  0  0  0  0  0  0  0  0
   17.2436    2.7424   24.0416 N   0  0  0  0  0  0  0  0  0  0  0  0
   16.3811    3.8326   23.7917 N   0  0  0  0  0  0  0  0  0  0  0  0
   16.4647    4.8219   24.6843 C   0  0  0  0  0  0  0  0  0  0  0  0
   15.7454    6.1318   24.4596 N   0  0  0  0  0  0  0  0  0  0  0  0
   15.8075    7.9424   24.7127 C   0  0  0  0  0  0  0  0  0  0  0  0
   14.6000    9.0939   24.6551 C   0  0  0  0  0  0  0  0  0  0  0  0
   12.4360    8.9666   24.3022 C   0  0  0  0  0  0  0  0  0  0  0  0
   10.8012    9.8163   23.9774 C   0  0  0  0  0  0  0  0  0  0  0  0
    9.3123    9.5816   24.3715 C   0  0  0  0  0  0  0  0  0  0  0  0
    8.7147   10.7009   25.1730 N   0  0  0  0  0  0  0  0  0  0  0  0
    8.8324   12.0112   24.4929 C   0  0  0  0  0  0  0  0  0  0  0  0
    7.6555   12.9765   24.6468 C   0  0  0  0  0  0  0  0  0  0  0  0
    7.0032   12.8995   26.0126 C   0  0  0  0  0  0  0  0  0  0  0  0
    6.6868   11.4664   26.4201 C   0  0  0  0  0  0  0  0  0  0  0  0
    7.3281   10.4135   25.5202 C   0  0  0  0  0  0  0  0  0  0  0  0
   17.1442    4.4582   26.0445 C   0  0  0  0  0  0  0  0  0  0  0  0
   17.8596    3.3495   26.2384 C   0  0  0  0  0  0  0  0  0  0  0  0
   17.9642    2.4403   25.1891 C   0  0  0  0  0  0  0  0  0  0  0  0
   18.6531    1.3158   25.1009 N   0  0  0  0  0  0  0  0  0  0  0  0
  1  2  1  0
  2  3  2  0
  3  4  1  0
  4  5  1  0
  5  6  2  0
  6  7  1  0
  7  8  1  0
  8  9  1  0
  9 10  1  0
 10 11  1  0
 11 12  1  0
 12 13  1  0
 13 14  1  0
 14 15  1  0
 15 16  1  0
 16 17  1  0
 17 18  1  0
  6 19  1  0
 19 20  2  0
 20 21  1  0
 21 22  2  0
 22  2  1  0
 21  4  1  0
 18 13  1  0
M  END
>  <energy_score>  (32) 
320.408399

>  <inchikey>  (32) 
IXRUQHOZMZJFPK-UHFFFAOYSA-N

>  <smiles>  (32) 
Cc1cn2nc(NCCCCCN3CCCCC3)ccc2n1

>  <ref_pdb>  (32) 
A4274b

>  <alias>  (32) 
C48106-P344

>  <HIPPO Pose ID>  (32) 
224824

>  <name>  (32) 
C48106-P344

>  <HIPPO Compound ID>  (32) 
48106

>  <ref_mols>  (32) 
A4274b,A0202a

>  <distance_score>  (32) 
4.044445

>  <inspiration_score>  (32) 
None

$$$$
C18492-P7
     RDKit          3D

 26 29  0  0  0  0  0  0  0  0999 V2000
   12.1750   21.5349   26.9621 O   0  0  0  0  0  0  0  0  0  0  0  0
   11.2272   20.7939   26.8653 C   0  0  0  0  0  0  0  0  0  0  0  0
   11.1673   19.9253   25.5481 C   0  0  0  0  0  0  0  0  0  0  0  0
   10.4190   18.2739   25.0172 C   0  0  0  0  0  0  0  0  0  0  0  0
   10.6881   16.1990   25.2855 N   0  0  0  0  0  0  0  0  0  0  0  0
   10.1331   14.6572   25.9381 C   0  0  0  0  0  0  0  0  0  0  0  0
    9.3643   14.6651   27.0680 N   0  0  0  0  0  0  0  0  0  0  0  0
    8.0613   14.0605   27.0718 C   0  0  0  0  0  0  0  0  0  0  0  0
    7.1337   14.1961   28.1222 C   0  0  0  0  0  0  0  0  0  0  0  0
    5.9195   13.5083   28.0742 C   0  0  0  0  0  0  0  0  0  0  0  0
    5.6203   12.6840   26.9999 C   0  0  0  0  0  0  0  0  0  0  0  0
    6.5216   12.5390   25.9494 C   0  0  0  0  0  0  0  0  0  0  0  0
    7.7372   13.2390   26.0035 C   0  0  0  0  0  0  0  0  0  0  0  0
    8.9978   13.1680   24.8304 S   0  0  0  0  0  0  0  0  0  0  0  0
   10.1491   20.5750   27.7360 N   0  0  0  0  0  0  0  0  0  0  0  0
    8.9901   21.5166   27.3895 C   0  0  0  0  0  0  0  0  0  0  0  0
    7.5867   20.9853   27.7321 C   0  0  0  0  0  0  0  0  0  0  0  0
    7.4417   20.7221   29.1713 N   0  0  0  0  0  0  0  0  0  0  0  0
    6.4196   19.7833   29.4286 C   0  0  0  0  0  0  0  0  0  0  0  0
    6.2355   19.2474   30.7038 C   0  0  0  0  0  0  0  0  0  0  0  0
    5.2836   18.2492   30.9102 C   0  0  0  0  0  0  0  0  0  0  0  0
    4.5136   17.8127   29.8439 C   0  0  0  0  0  0  0  0  0  0  0  0
    4.7135   18.4157   28.6199 C   0  0  0  0  0  0  0  0  0  0  0  0
    5.6225   19.3907   28.4103 N   0  0  0  0  0  0  0  0  0  0  0  0
    8.7096   20.4144   29.8354 C   0  0  0  0  0  0  0  0  0  0  0  0
    9.8771   21.1015   29.1152 C   0  0  0  0  0  0  0  0  0  0  0  0
  1  2  2  0
  2  3  1  0
  3  4  1  0
  4  5  1  0
  5  6  1  0
  6  7  2  0
  7  8  1  0
  8  9  2  0
  9 10  1  0
 10 11  2  0
 11 12  1  0
 12 13  2  0
 13 14  1  0
  2 15  1  0
 15 16  1  0
 16 17  1  0
 17 18  1  0
 18 19  1  0
 19 20  2  0
 20 21  1  0
 21 22  2  0
 22 23  1  0
 23 24  2  0
 18 25  1  0
 25 26  1  0
 14  6  1  0
 26 15  1  0
 13  8  1  0
 24 19  1  0
M  END
>  <energy_score>  (33) 
464.305418

>  <inchikey>  (33) 
DBFFYNGDFGHYFG-UHFFFAOYSA-N

>  <smiles>  (33) 
O=C(CCNc1nc2ccccc2s1)N1CCN(c2ccccn2)CC1

>  <ref_pdb>  (33) 
A0469a

>  <alias>  (33) 
C18492-P7

>  <HIPPO Pose ID>  (33) 
224978

>  <name>  (33) 
C18492-P7

>  <HIPPO Compound ID>  (33) 
18492

>  <ref_mols>  (33) 
A4274a,A0469a

>  <distance_score>  (33) 
3.244246

>  <inspiration_score>  (33) 
None

$$$$
C48114-P275
     RDKit          3D

 24 26  0  0  0  0  0  0  0  0999 V2000
   18.8200    1.4809   22.1279 C   0  0  0  0  0  0  0  0  0  0  0  0
   19.2857    0.2128   21.6415 O   0  0  0  0  0  0  0  0  0  0  0  0
   18.3960   -0.4991   20.9119 C   0  0  0  0  0  0  0  0  0  0  0  0
   18.9742   -1.8126   20.6031 C   0  0  0  0  0  0  0  0  0  0  0  0
   18.2086   -2.6219   19.8610 C   0  0  0  0  0  0  0  0  0  0  0  0
   16.9144   -2.2044   19.4654 C   0  0  0  0  0  0  0  0  0  0  0  0
   16.0266   -2.7844   18.7251 N   0  0  0  0  0  0  0  0  0  0  0  0
   14.8750   -1.9942   18.7909 C   0  0  0  0  0  0  0  0  0  0  0  0
   14.9196   -0.7003   19.4939 C   0  0  0  0  0  0  0  0  0  0  0  0
   14.2127    0.5952   20.6459 C   0  0  0  0  0  0  0  0  0  0  0  0
   14.8868    0.6495   21.6133 O   0  0  0  0  0  0  0  0  0  0  0  0
   12.6821    1.6696   20.7125 N   0  0  0  0  0  0  0  0  0  0  0  0
   11.9295    2.7477   22.1399 C   0  0  0  0  0  0  0  0  0  0  0  0
   10.7177    4.3109   22.6065 C   0  0  0  0  0  0  0  0  0  0  0  0
   10.2860    6.1235   23.3193 C   0  0  1  0  0  0  0  0  0  0  0  0
   11.3334    7.2948   23.5910 C   0  0  0  0  0  0  0  0  0  0  0  0
    9.2376    7.4218   23.0157 N   0  0  0  0  0  0  0  0  0  0  0  0
    8.7650    8.3683   24.2188 C   0  0  0  0  0  0  0  0  0  0  0  0
    9.2518    9.7663   24.5282 C   0  0  0  0  0  0  0  0  0  0  0  0
    9.3697   10.6383   23.3394 C   0  0  0  0  0  0  0  0  0  0  0  0
    9.9916    9.7395   22.3066 C   0  0  0  0  0  0  0  0  0  0  0  0
    9.3246    8.4108   21.9931 C   0  0  0  0  0  0  0  0  0  0  0  0
   16.4673   -0.9848   19.9007 N   0  0  0  0  0  0  0  0  0  0  0  0
   17.2352   -0.0619   20.5648 N   0  0  0  0  0  0  0  0  0  0  0  0
  1  2  1  0
  2  3  1  0
  3  4  1  0
  4  5  2  0
  5  6  1  0
  6  7  2  0
  7  8  1  0
  8  9  2  0
  9 10  1  0
 10 11  2  0
 10 12  1  0
 12 13  1  0
 13 14  1  0
 14 15  1  0
 15 16  1  6
 15 17  1  0
 17 18  1  0
 18 19  1  0
 19 20  1  0
 20 21  1  0
 21 22  1  0
  9 23  1  0
 23 24  1  0
 24  3  2  0
 23  6  1  0
 22 17  1  0
M  END
>  <energy_score>  (34) 
566.317011

>  <inchikey>  (34) 
WUKQNJFBINFBNA-UHFFFAOYSA-N

>  <smiles>  (34) 
COc1ccc2ncc(C(=O)NCC[C@@H](C)N3CCCCC3)n2n1

>  <ref_pdb>  (34) 
A4031b

>  <alias>  (34) 
C48114-P275

>  <HIPPO Pose ID>  (34) 
227634

>  <name>  (34) 
C48114-P275

>  <HIPPO Compound ID>  (34) 
48114

>  <ref_mols>  (34) 
A4031b,A0202a

>  <distance_score>  (34) 
4.284223

>  <inspiration_score>  (34) 
None

$$$$
C26549-P87
     RDKit          3D

 19 20  0  0  0  0  0  0  0  0999 V2000
   10.3073   14.7679   24.0639 C   0  0  0  0  0  0  0  0  0  0  0  0
   10.9727   13.8705   23.1199 N   0  0  0  0  0  0  0  0  0  0  0  0
   12.3492   13.7331   23.4502 C   0  0  0  0  0  0  0  0  0  0  0  0
   13.3040   14.3619   23.0846 O   0  0  0  0  0  0  0  0  0  0  0  0
   12.6867   12.6434   24.5102 C   0  0  0  0  0  0  0  0  0  0  0  0
   12.1901   11.3262   24.4478 O   0  0  0  0  0  0  0  0  0  0  0  0
   10.7918   11.3313   24.2246 C   0  0  0  0  0  0  0  0  0  0  0  0
   10.0664   11.9500   25.4058 C   0  0  0  0  0  0  0  0  0  0  0  0
    8.6113   12.2108   25.1810 C   0  0  0  0  0  0  0  0  0  0  0  0
    8.1289   11.2708   24.2178 N   0  0  0  0  0  0  0  0  0  0  0  0
    8.7890    9.9640   24.2379 C   0  0  0  0  0  0  0  0  0  0  0  0
   10.2911    9.9281   24.0556 C   0  0  0  0  0  0  0  0  0  0  0  0
   10.2698   14.7903   22.1037 C   0  0  2  0  0  0  0  0  0  0  0  0
   10.5533   14.1566   20.7764 C   0  0  0  0  0  0  0  0  0  0  0  0
   12.0357   14.2224   20.3616 C   0  0  0  0  0  0  0  0  0  0  0  0
   12.6719   15.6077   20.5150 C   0  0  0  0  0  0  0  0  0  0  0  0
   12.1370   16.3369   21.6391 N   0  0  0  0  0  0  0  0  0  0  0  0
   10.7672   16.2323   21.8128 C   0  0  0  0  0  0  0  0  0  0  0  0
    9.9994   17.1759   21.6566 O   0  0  0  0  0  0  0  0  0  0  0  0
  1  2  1  0
  2  3  1  0
  3  4  2  0
  3  5  1  0
  5  6  1  0
  6  7  1  0
  7  8  1  0
  8  9  1  0
  9 10  1  0
 10 11  1  0
 11 12  1  0
 13  2  1  1
 13 14  1  0
 14 15  1  0
 15 16  1  0
 16 17  1  0
 17 18  1  0
 18 19  2  0
 12  7  1  0
 18 13  1  0
M  END
>  <energy_score>  (35) 
90.996125

>  <inchikey>  (35) 
MDVDEUZVIOBSGX-UHFFFAOYSA-N

>  <smiles>  (35) 
CN(C(=O)COC1CCNCC1)[C@@H]1CCCNC1=O

>  <ref_pdb>  (35) 
A0875a

>  <alias>  (35) 
C26549-P87

>  <HIPPO Pose ID>  (35) 
229720

>  <name>  (35) 
C26549-P87

>  <HIPPO Compound ID>  (35) 
26549

>  <ref_mols>  (35) 
A5036a,A0875a

>  <distance_score>  (35) 
2.520728

>  <inspiration_score>  (35) 
None

$$$$
C12140-P71
     RDKit          3D

 21 22  0  0  0  0  0  0  0  0999 V2000
    9.4529    9.1119    3.3030 C   0  0  0  0  0  0  0  0  0  0  0  0
    8.5428   10.1816    3.5603 O   0  0  0  0  0  0  0  0  0  0  0  0
    7.3123   10.0399    2.9938 C   0  0  0  0  0  0  0  0  0  0  0  0
    6.9510    9.0736    2.3281 O   0  0  0  0  0  0  0  0  0  0  0  0
    6.4466   11.2809    3.2661 C   0  0  2  0  0  0  0  0  0  0  0  0
    5.0664   10.9471    2.9530 N   0  0  0  0  0  0  0  0  0  0  0  0
    3.8370   11.5845    3.3226 C   0  0  0  0  0  0  0  0  0  0  0  0
    3.6338   12.6042    3.9189 O   0  0  0  0  0  0  0  0  0  0  0  0
    2.6057   10.7254    2.8261 C   0  0  2  0  0  0  0  0  0  0  0  0
    1.2882   11.3137    3.3678 C   0  0  0  0  0  0  0  0  0  0  0  0
    0.4708   10.1756    3.6945 N   0  0  0  0  0  0  0  0  0  0  0  0
    1.2162    9.0156    3.7163 C   0  0  0  0  0  0  0  0  0  0  0  0
    0.7888    7.9383    4.0978 O   0  0  0  0  0  0  0  0  0  0  0  0
    2.4767    9.3028    3.1958 N   0  0  0  0  0  0  0  0  0  0  0  0
    3.3823    8.2533    2.7973 C   0  0  0  0  0  0  0  0  0  0  0  0
    6.9504   12.5415    2.5996 C   0  0  0  0  0  0  0  0  0  0  0  0
    6.6165   13.7980    3.1177 C   0  0  0  0  0  0  0  0  0  0  0  0
    7.1311   14.9552    2.5391 C   0  0  0  0  0  0  0  0  0  0  0  0
    7.9750   14.8272    1.4518 C   0  0  0  0  0  0  0  0  0  0  0  0
    8.3228   13.6409    0.9180 N   0  0  0  0  0  0  0  0  0  0  0  0
    7.7935   12.5326    1.4907 C   0  0  0  0  0  0  0  0  0  0  0  0
  1  2  1  0
  2  3  1  0
  3  4  2  0
  3  5  1  0
  5  6  1  6
  6  7  1  0
  7  8  2  0
  9  7  1  1
  9 10  1  0
 10 11  1  0
 11 12  1  0
 12 13  2  0
 12 14  1  0
 14 15  1  0
  5 16  1  0
 16 17  2  0
 17 18  1  0
 18 19  2  0
 19 20  1  0
 20 21  2  0
 14  9  1  0
 21 16  1  0
M  END
>  <energy_score>  (36) 
-16.080398

>  <inchikey>  (36) 
ILPVFEPAZRNWNN-UHFFFAOYSA-N

>  <smiles>  (36) 
COC(=O)[C@H](NC(=O)[C@@H]1CNC(=O)N1C)c1cccnc1

>  <ref_pdb>  (36) 
A0428a

>  <alias>  (36) 
C12140-P71

>  <HIPPO Pose ID>  (36) 
230285

>  <name>  (36) 
C12140-P71

>  <HIPPO Compound ID>  (36) 
12140

>  <ref_mols>  (36) 
A1081b,A0428a

>  <distance_score>  (36) 
3.469799

>  <inspiration_score>  (36) 
None

$$$$
C46745-P151
     RDKit          3D

 24 25  0  0  0  0  0  0  0  0999 V2000
    9.4551   25.2872   26.3623 C   0  0  0  0  0  0  0  0  0  0  0  0
    8.8733   24.1616   27.2118 C   0  0  0  0  0  0  0  0  0  0  0  0
    7.8737   23.3214   26.4277 C   0  0  0  0  0  0  0  0  0  0  0  0
    7.3786   22.0908   27.2131 C   0  0  0  0  0  0  0  0  0  0  0  0
    8.4766   21.2061   27.6465 N   0  0  0  0  0  0  0  0  0  0  0  0
    8.0558   19.9639   28.4123 C   0  0  2  0  0  0  0  0  0  0  0  0
    9.0790   18.7821   28.1980 C   0  0  0  0  0  0  0  0  0  0  0  0
    8.9824   17.8611   27.0730 N   0  0  0  0  0  0  0  0  0  0  0  0
    9.7097   16.5005   26.8095 C   0  0  0  0  0  0  0  0  0  0  0  0
   10.4338   15.8831   27.4924 O   0  0  0  0  0  0  0  0  0  0  0  0
    9.2736   15.9610   25.4252 C   0  0  0  0  0  0  0  0  0  0  0  0
   10.2907   14.9387   24.8352 C   0  0  0  0  0  0  0  0  0  0  0  0
   10.5057   14.9861   23.3348 C   0  0  0  0  0  0  0  0  0  0  0  0
   11.0992   16.1891   22.8072 C   0  0  0  0  0  0  0  0  0  0  0  0
   11.2780   16.3885   21.4988 C   0  0  0  0  0  0  0  0  0  0  0  0
   10.8960   15.3474   20.5321 C   0  0  0  0  0  0  0  0  0  0  0  0
   10.9608   15.5433   19.3269 O   0  0  0  0  0  0  0  0  0  0  0  0
   10.4932   14.1667   21.1110 N   0  0  0  0  0  0  0  0  0  0  0  0
   10.2718   13.9890   22.4641 C   0  0  0  0  0  0  0  0  0  0  0  0
    6.5558   19.5089   28.4176 C   0  0  0  0  0  0  0  0  0  0  0  0
    6.2607   18.5985   29.6225 C   0  0  0  0  0  0  0  0  0  0  0  0
    6.0552   18.8095   27.1587 C   0  0  0  0  0  0  0  0  0  0  0  0
    9.3679   22.0347   28.4890 C   0  0  0  0  0  0  0  0  0  0  0  0
    9.9581   23.2583   27.7753 C   0  0  0  0  0  0  0  0  0  0  0  0
  1  2  1  0
  2  3  1  0
  3  4  1  0
  4  5  1  0
  5  6  1  0
  6  7  1  6
  7  8  1  0
  8  9  1  0
  9 10  2  0
  9 11  1  0
 11 12  1  0
 12 13  1  0
 13 14  1  0
 14 15  2  0
 15 16  1  0
 16 17  2  0
 16 18  1  0
 18 19  1  0
  6 20  1  0
 20 21  1  0
 20 22  1  0
  5 23  1  0
 23 24  1  0
 24  2  1  0
 19 13  2  0
M  END
>  <energy_score>  (37) 
-44.66706

>  <inchikey>  (37) 
FHSDHUWGJMMYKU-UHFFFAOYSA-N

>  <smiles>  (37) 
CC1CCN([C@H](CNC(=O)CCc2ccc(=O)[nH]c2)C(C)C)CC1

>  <ref_pdb>  (37) 
A3194a

>  <alias>  (37) 
C46745-P151

>  <HIPPO Pose ID>  (37) 
232053

>  <name>  (37) 
C46745-P151

>  <HIPPO Compound ID>  (37) 
46745

>  <ref_mols>  (37) 
A0525a,A3194a

>  <distance_score>  (37) 
3.22645

>  <inspiration_score>  (37) 
None

$$$$
C45746-P325
     RDKit          3D

 28 31  0  0  0  0  0  0  0  0999 V2000
    5.8023   14.9909   23.1342 C   0  0  0  0  0  0  0  0  0  0  0  0
    7.2455   15.2941   23.5105 C   0  0  1  0  0  0  0  0  0  0  0  0
    7.9292   14.4978   25.0034 S   0  0  0  0  0  0  0  0  0  0  0  0
    6.7355   13.3748   25.5685 C   0  0  0  0  0  0  0  0  0  0  0  0
    5.6637   13.9822   25.9668 N   0  0  0  0  0  0  0  0  0  0  0  0
    4.6023   13.2376   26.4497 C   0  0  0  0  0  0  0  0  0  0  0  0
    3.4048   13.8799   26.7754 C   0  0  0  0  0  0  0  0  0  0  0  0
    2.3271   13.1536   27.2848 C   0  0  0  0  0  0  0  0  0  0  0  0
    2.4483   11.7787   27.4675 C   0  0  0  0  0  0  0  0  0  0  0  0
    3.6444   11.1393   27.1379 C   0  0  0  0  0  0  0  0  0  0  0  0
    4.7120   11.8747   26.6293 C   0  0  0  0  0  0  0  0  0  0  0  0
    5.9835   11.2304   26.3010 C   0  0  0  0  0  0  0  0  0  0  0  0
    6.1101   10.0757   26.7045 O   0  0  0  0  0  0  0  0  0  0  0  0
    6.9660   11.9952   25.6564 N   0  0  0  0  0  0  0  0  0  0  0  0
    8.1621   11.3045   25.1960 C   0  0  0  0  0  0  0  0  0  0  0  0
    9.4209   11.8961   25.0938 C   0  0  0  0  0  0  0  0  0  0  0  0
   10.5220   11.2125   24.5897 C   0  0  0  0  0  0  0  0  0  0  0  0
   10.4059    9.8786   24.2284 C   0  0  0  0  0  0  0  0  0  0  0  0
    9.1923    9.2528   24.3237 C   0  0  0  0  0  0  0  0  0  0  0  0
    8.1083    9.9466   24.8428 C   0  0  0  0  0  0  0  0  0  0  0  0
    8.1660   14.9104   22.3317 C   0  0  0  0  0  0  0  0  0  0  0  0
    8.0524   13.8965   21.7357 O   0  0  0  0  0  0  0  0  0  0  0  0
    9.1028   16.1014   22.0936 N   0  0  0  0  0  0  0  0  0  0  0  0
   10.4224   15.9294   22.8526 C   0  0  0  0  0  0  0  0  0  0  0  0
   11.2446   14.6491   22.6516 C   0  0  0  0  0  0  0  0  0  0  0  0
   11.8740   14.7097   21.2839 C   0  0  0  0  0  0  0  0  0  0  0  0
   10.8152   15.1974   20.3313 C   0  0  0  0  0  0  0  0  0  0  0  0
   10.0798   16.3750   20.9739 C   0  0  0  0  0  0  0  0  0  0  0  0
  2  1  1  6
  2  3  1  0
  3  4  1  0
  4  5  2  0
  5  6  1  0
  6  7  2  0
  7  8  1  0
  8  9  2  0
  9 10  1  0
 10 11  2  0
 11 12  1  0
 12 13  2  0
 12 14  1  0
 14 15  1  0
 15 16  2  0
 16 17  1  0
 17 18  2  0
 18 19  1  0
 19 20  2  0
  2 21  1  0
 21 22  2  0
 21 23  1  0
 23 24  1  0
 24 25  1  0
 25 26  1  0
 26 27  1  0
 27 28  1  0
 14  4  1  0
 20 15  1  0
 28 23  1  0
 11  6  1  0
M  END
>  <energy_score>  (38) 
55.960628

>  <inchikey>  (38) 
FMFAVFPZVUFHSH-UHFFFAOYSA-N

>  <smiles>  (38) 
C[C@@H](Sc1nc2ccccc2c(=O)n1-c1ccccc1)C(=O)N1CCCCC1

>  <ref_pdb>  (38) 
A4368a

>  <alias>  (38) 
C45746-P325

>  <HIPPO Pose ID>  (38) 
232418

>  <name>  (38) 
C45746-P325

>  <HIPPO Compound ID>  (38) 
45746

>  <ref_mols>  (38) 
A1776a,A4368a

>  <distance_score>  (38) 
1.883325

>  <inspiration_score>  (38) 
None

$$$$
C48099-P265
     RDKit          3D

 19 21  0  0  0  0  0  0  0  0999 V2000
   14.5598    3.1178   23.6047 O   0  0  0  0  0  0  0  0  0  0  0  0
   15.4289    3.8310   23.1517 C   0  0  0  0  0  0  0  0  0  0  0  0
   15.2586    5.2224   22.2394 N   0  0  0  0  0  0  0  0  0  0  0  0
   13.5197    6.2588   21.6534 C   0  0  0  0  0  0  0  0  0  0  0  0
   12.0409    7.4850   22.6365 C   0  0  2  0  0  0  0  0  0  0  0  0
   11.6785    8.8542   23.5411 C   0  0  0  0  0  0  0  0  0  0  0  0
   10.4631   10.0147   23.6031 C   0  0  0  0  0  0  0  0  0  0  0  0
    9.1825    9.4510   24.0683 C   0  0  0  0  0  0  0  0  0  0  0  0
    9.2117    8.0218   23.9709 N   0  0  0  0  0  0  0  0  0  0  0  0
   10.1570    7.2669   23.0556 C   0  0  0  0  0  0  0  0  0  0  0  0
   16.7557    3.2335   23.4159 C   0  0  0  0  0  0  0  0  0  0  0  0
   17.6063    2.4050   22.6663 C   0  0  0  0  0  0  0  0  0  0  0  0
   18.4459    1.6121   23.4113 N   0  0  0  0  0  0  0  0  0  0  0  0
   18.3052    2.0963   24.6171 C   0  0  0  0  0  0  0  0  0  0  0  0
   19.0393    1.7981   25.7865 C   0  0  0  0  0  0  0  0  0  0  0  0
   18.8694    2.5561   26.8724 C   0  0  0  0  0  0  0  0  0  0  0  0
   17.8708    3.6423   26.7638 C   0  0  0  0  0  0  0  0  0  0  0  0
   17.1086    3.8955   25.7551 N   0  0  0  0  0  0  0  0  0  0  0  0
   17.3382    3.1045   24.6757 N   0  0  0  0  0  0  0  0  0  0  0  0
  1  2  2  0
  2  3  1  0
  3  4  1  0
  5  4  1  1
  5  6  1  0
  6  7  1  0
  7  8  1  0
  8  9  1  0
  9 10  1  0
  2 11  1  0
 11 12  2  0
 12 13  1  0
 13 14  2  0
 14 15  1  0
 15 16  2  0
 16 17  1  0
 17 18  2  0
 18 19  1  0
 10  5  1  0
 19 11  1  0
 19 14  1  0
M  END
>  <energy_score>  (39) 
512.386688

>  <inchikey>  (39) 
WUSUVIQEMHPDEP-UHFFFAOYSA-N

>  <smiles>  (39) 
O=C(NC[C@@H]1CCCNC1)c1cnc2cccnn12

>  <ref_pdb>  (39) 
A4012b

>  <alias>  (39) 
C48099-P265

>  <HIPPO Pose ID>  (39) 
235406

>  <name>  (39) 
C48099-P265

>  <HIPPO Compound ID>  (39) 
48099

>  <ref_mols>  (39) 
A4012b,A0202a

>  <distance_score>  (39) 
4.848381

>  <inspiration_score>  (39) 
None

$$$$
C28778-P464
     RDKit          3D

 26 28  0  0  0  0  0  0  0  0999 V2000
    8.1234   18.8357   19.9450 C   0  0  0  0  0  0  0  0  0  0  0  0
    8.7101   17.5471   20.4928 C   0  0  0  0  0  0  0  0  0  0  0  0
    8.3112   17.0835   21.5146 O   0  0  0  0  0  0  0  0  0  0  0  0
    9.7099   17.0880   19.5919 N   0  0  0  0  0  0  0  0  0  0  0  0
   10.6495   15.9387   19.6763 C   0  0  1  0  0  0  0  0  0  0  0  0
   11.3538   16.1088   18.3206 C   0  0  0  0  0  0  0  0  0  0  0  0
   11.4067   15.8973   21.2388 C   0  0  0  0  0  0  0  0  0  0  0  0
   11.8749   16.8300   21.7121 O   0  0  0  0  0  0  0  0  0  0  0  0
   11.1734   14.3897   21.7892 N   0  0  0  0  0  0  0  0  0  0  0  0
   11.8919   13.7912   23.5037 C   0  0  0  0  0  0  0  0  0  0  0  0
   11.2431   14.3247   25.0269 C   0  0  0  0  0  0  0  0  0  0  0  0
    9.7561   14.1342   24.9299 C   0  0  0  0  0  0  0  0  0  0  0  0
    9.0597   12.8683   25.3298 C   0  0  0  0  0  0  0  0  0  0  0  0
    9.3202   11.5613   24.9614 C   0  0  0  0  0  0  0  0  0  0  0  0
    8.2646   10.7784   25.3558 N   0  0  0  0  0  0  0  0  0  0  0  0
    7.3491   11.5273   26.0519 C   0  0  0  0  0  0  0  0  0  0  0  0
    6.1510   11.1498   26.6697 C   0  0  0  0  0  0  0  0  0  0  0  0
    5.3923   12.1442   27.2896 C   0  0  0  0  0  0  0  0  0  0  0  0
    5.8086   13.4699   27.2748 C   0  0  0  0  0  0  0  0  0  0  0  0
    7.0064   13.8311   26.6503 C   0  0  0  0  0  0  0  0  0  0  0  0
    7.8089   12.8411   26.0432 C   0  0  0  0  0  0  0  0  0  0  0  0
    9.6815   14.2827   23.4466 C   0  0  0  0  0  0  0  0  0  0  0  0
   11.3200   13.7654   22.9214 C   0  0  0  0  0  0  0  0  0  0  0  0
   10.1670   14.5502   19.4759 C   0  0  0  0  0  0  0  0  0  0  0  0
    8.9442   14.3818   20.4102 C   0  0  0  0  0  0  0  0  0  0  0  0
   10.3106   14.0003   18.0086 C   0  0  0  0  0  0  0  0  0  0  0  0
  1  2  1  0
  2  3  2  0
  2  4  1  0
  4  5  1  0
  5  6  1  6
  5  7  1  0
  7  8  2  0
  7  9  1  0
  9 10  1  0
 10 11  1  0
 11 12  1  0
 12 13  1  0
 13 14  2  0
 14 15  1  0
 15 16  1  0
 16 17  2  0
 17 18  1  0
 18 19  2  0
 19 20  1  0
 20 21  2  0
 12 22  1  0
 22 23  1  0
  5 24  1  0
 24 25  1  0
 24 26  1  0
 23  9  1  0
 21 13  1  0
 21 16  1  0
M  END
>  <energy_score>  (40) 
804.394629

>  <inchikey>  (40) 
JHZAPGJXKWIQQE-UHFFFAOYSA-N

>  <smiles>  (40) 
CC(=O)N[C@@](C)(C(=O)N1CCC(c2c[nH]c3ccccc23)CC1)C(C)C

>  <ref_pdb>  (40) 
A4784a

>  <alias>  (40) 
C28778-P464

>  <HIPPO Pose ID>  (40) 
243772

>  <name>  (40) 
C28778-P464

>  <HIPPO Compound ID>  (40) 
28778

>  <ref_mols>  (40) 
A4784a,A3568a

>  <distance_score>  (40) 
1.857102

>  <inspiration_score>  (40) 
None

$$$$
C45975-P303
     RDKit          3D

 25 27  0  0  0  0  0  0  0  0999 V2000
   12.0943   14.4853   19.7930 C   0  0  0  0  0  0  0  0  0  0  0  0
   10.6843   14.7292   19.2832 C   0  0  0  0  0  0  0  0  0  0  0  0
   10.5184   14.0565   17.9960 C   0  0  0  0  0  0  0  0  0  0  0  0
   10.3554   16.1318   19.0172 C   0  0  0  0  0  0  0  0  0  0  0  0
    9.7937   17.1461   19.1007 N   0  0  0  0  0  0  0  0  0  0  0  0
    9.5467   14.6473   20.2901 C   0  0  0  0  0  0  0  0  0  0  0  0
    8.4203   14.7653   19.9410 O   0  0  0  0  0  0  0  0  0  0  0  0
   10.0700   14.5337   21.5208 N   0  0  0  0  0  0  0  0  0  0  0  0
   10.4037   15.8290   22.0420 C   0  0  0  0  0  0  0  0  0  0  0  0
   11.6580   15.6718   22.9016 C   0  0  0  0  0  0  0  0  0  0  0  0
   11.4611   14.8726   24.1479 C   0  0  0  0  0  0  0  0  0  0  0  0
   10.3181   13.9883   23.8776 C   0  0  1  0  0  0  0  0  0  0  0  0
    9.3284   13.7379   25.2459 S   0  0  0  0  0  0  0  0  0  0  0  0
    8.9086   14.9688   25.8667 O   0  0  0  0  0  0  0  0  0  0  0  0
   10.1986   12.8133   25.8942 O   0  0  0  0  0  0  0  0  0  0  0  0
    7.9922   12.9471   24.6014 N   0  0  0  0  0  0  0  0  0  0  0  0
    6.9189   12.6708   25.6159 C   0  0  0  0  0  0  0  0  0  0  0  0
    7.0439   11.1862   25.9621 C   0  0  0  0  0  0  0  0  0  0  0  0
    8.0234   10.7223   24.9526 C   0  0  0  0  0  0  0  0  0  0  0  0
    8.6295    9.5218   24.7771 C   0  0  0  0  0  0  0  0  0  0  0  0
    9.6029    9.2531   23.8175 C   0  0  0  0  0  0  0  0  0  0  0  0
    9.8094   10.1657   22.8576 C   0  0  0  0  0  0  0  0  0  0  0  0
    9.2956   11.4121   23.0560 C   0  0  0  0  0  0  0  0  0  0  0  0
    8.4249   11.6878   24.1078 C   0  0  0  0  0  0  0  0  0  0  0  0
    9.4374   14.4145   22.7969 C   0  0  0  0  0  0  0  0  0  0  0  0
  1  2  1  0
  2  3  1  0
  2  4  1  0
  4  5  3  0
  2  6  1  0
  6  7  2  0
  6  8  1  0
  8  9  1  0
  9 10  1  0
 10 11  1  0
 11 12  1  0
 12 13  1  1
 13 14  2  0
 13 15  2  0
 13 16  1  0
 16 17  1  0
 17 18  1  0
 18 19  1  0
 19 20  2  0
 20 21  1  0
 21 22  2  0
 22 23  1  0
 23 24  2  0
 12 25  1  0
 25  8  1  0
 24 16  1  0
 24 19  1  0
M  END
>  <energy_score>  (41) 
128.24934

>  <inchikey>  (41) 
CXUYUFRBAKGUHD-UHFFFAOYSA-N

>  <smiles>  (41) 
CC(C)(C#N)C(=O)N1CCC[C@@H](S(=O)(=O)N2CCc3ccccc32)C1

>  <ref_pdb>  (41) 
A4320a

>  <alias>  (41) 
C45975-P303

>  <HIPPO Pose ID>  (41) 
255744

>  <name>  (41) 
C45975-P303

>  <HIPPO Compound ID>  (41) 
45975

>  <ref_mols>  (41) 
A1778a,A4320a

>  <distance_score>  (41) 
2.187852

>  <inspiration_score>  (41) 
None

$$$$
C4100-P87
     RDKit          3D

 19 20  0  0  0  0  0  0  0  0999 V2000
   15.9040   13.3254   28.0024 C   0  0  0  0  0  0  0  0  0  0  0  0
   14.9184   12.2730   27.5377 C   0  0  0  0  0  0  0  0  0  0  0  0
   14.3775   11.5471   28.2712 O   0  0  0  0  0  0  0  0  0  0  0  0
   14.8107   12.4082   25.9987 N   0  0  0  0  0  0  0  0  0  0  0  0
   14.0814   11.6088   25.0313 C   0  0  1  0  0  0  0  0  0  0  0  0
   14.6834   10.2232   25.1310 C   0  0  0  0  0  0  0  0  0  0  0  0
   12.5236   11.8838   25.0015 C   0  0  0  0  0  0  0  0  0  0  0  0
   12.2393   13.0698   24.0543 C   0  0  0  0  0  0  0  0  0  0  0  0
   10.7768   13.5043   24.1325 C   0  0  0  0  0  0  0  0  0  0  0  0
    9.9028   12.3979   23.8060 N   0  0  0  0  0  0  0  0  0  0  0  0
    8.5414   12.5679   23.7790 C   0  0  0  0  0  0  0  0  0  0  0  0
    7.9640   12.9053   22.7496 O   0  0  0  0  0  0  0  0  0  0  0  0
    7.8518   12.2230   24.9986 C   0  0  0  0  0  0  0  0  0  0  0  0
    7.4104   13.0908   25.8770 N   0  0  0  0  0  0  0  0  0  0  0  0
    6.4801   12.4425   26.6288 C   0  0  0  0  0  0  0  0  0  0  0  0
    6.4477   11.1210   26.2897 C   0  0  0  0  0  0  0  0  0  0  0  0
    7.4311   10.9695   25.3499 N   0  0  0  0  0  0  0  0  0  0  0  0
   10.4900   11.1132   23.5094 C   0  0  0  0  0  0  0  0  0  0  0  0
   11.4675   10.7680   24.6408 C   0  0  0  0  0  0  0  0  0  0  0  0
  1  2  1  0
  2  3  2  0
  2  4  1  0
  4  5  1  0
  5  6  1  1
  5  7  1  0
  7  8  1  0
  8  9  1  0
  9 10  1  0
 10 11  1  0
 11 12  2  0
 11 13  1  0
 13 14  2  0
 14 15  1  0
 15 16  2  0
 16 17  1  0
 10 18  1  0
 18 19  1  0
 19  7  1  0
 17 13  1  0
M  END
>  <energy_score>  (42) 
28.030794

>  <inchikey>  (42) 
AMFKEYBPQSGCKV-UHFFFAOYSA-N

>  <smiles>  (42) 
CC(=O)N[C@@H](C)C1CCN(C(=O)c2ncc[nH]2)CC1

>  <ref_pdb>  (42) 
A0875a

>  <alias>  (42) 
C4100-P87

>  <HIPPO Pose ID>  (42) 
258510

>  <name>  (42) 
C4100-P87

>  <HIPPO Compound ID>  (42) 
4100

>  <ref_mols>  (42) 
A1209a,A0875a

>  <distance_score>  (42) 
1.628314

>  <inspiration_score>  (42) 
None

$$$$
C47450-P255
     RDKit          3D

 23 24  0  0  0  0  0  0  0  0999 V2000
   12.3337   23.3864   22.7971 C   0  0  0  0  0  0  0  0  0  0  0  0
   11.7215   21.5168   23.2284 C   0  0  0  0  0  0  0  0  0  0  0  0
   12.4074   19.8157   24.4914 C   0  0  1  0  0  0  0  0  0  0  0  0
   13.5396   19.7991   25.5160 C   0  0  0  0  0  0  0  0  0  0  0  0
   11.9214   18.2513   25.0246 N   0  0  0  0  0  0  0  0  0  0  0  0
   11.2629   17.1830   24.3352 C   0  0  0  0  0  0  0  0  0  0  0  0
   10.9533   17.0735   23.1943 O   0  0  0  0  0  0  0  0  0  0  0  0
   10.9793   16.0426   25.3341 C   0  0  0  0  0  0  0  0  0  0  0  0
   10.0088   16.3780   26.4273 N   0  0  0  0  0  0  0  0  0  0  0  0
    8.7471   17.0043   25.9495 C   0  0  0  0  0  0  0  0  0  0  0  0
    7.8763   16.1718   24.9802 C   0  0  0  0  0  0  0  0  0  0  0  0
    8.3865   14.8053   24.8483 N   0  0  0  0  0  0  0  0  0  0  0  0
    7.6049   13.9725   23.9422 C   0  0  0  0  0  0  0  0  0  0  0  0
    7.6383   14.4579   22.4700 C   0  0  0  0  0  0  0  0  0  0  0  0
    6.6793   14.1816   21.7897 O   0  0  0  0  0  0  0  0  0  0  0  0
    8.8531   15.1532   22.1352 N   0  0  0  0  0  0  0  0  0  0  0  0
    9.8951   14.1757   21.6841 C   0  0  0  0  0  0  0  0  0  0  0  0
   11.3815   14.5077   21.7681 C   0  0  0  0  0  0  0  0  0  0  0  0
   11.7480   15.4661   20.6678 C   0  0  0  0  0  0  0  0  0  0  0  0
   10.6263   16.4538   20.5047 C   0  0  0  0  0  0  0  0  0  0  0  0
    9.2662   15.8549   20.8643 C   0  0  0  0  0  0  0  0  0  0  0  0
    8.6542   14.2067   26.1502 C   0  0  0  0  0  0  0  0  0  0  0  0
    9.5804   15.0930   27.0465 C   0  0  0  0  0  0  0  0  0  0  0  0
  1  2  1  0
  2  3  1  0
  3  4  1  1
  3  5  1  0
  5  6  1  0
  6  7  2  0
  6  8  1  0
  8  9  1  0
  9 10  1  0
 10 11  1  0
 11 12  1  0
 12 13  1  0
 13 14  1  0
 14 15  2  0
 14 16  1  0
 16 17  1  0
 17 18  1  0
 18 19  1  0
 19 20  1  0
 20 21  1  0
 12 22  1  0
 22 23  1  0
 23  9  1  0
 21 16  1  0
M  END
>  <energy_score>  (43) 
418.838024

>  <inchikey>  (43) 
BBPNLFQSWUWSGS-UHFFFAOYSA-N

>  <smiles>  (43) 
CC[C@@H](C)NC(=O)CN1CCN(CC(=O)N2CCCCC2)CC1

>  <ref_pdb>  (43) 
A3982a

>  <alias>  (43) 
C47450-P255

>  <HIPPO Pose ID>  (43) 
270555

>  <name>  (43) 
C47450-P255

>  <HIPPO Compound ID>  (43) 
47450

>  <ref_mols>  (43) 
A3982a,A0469a

>  <distance_score>  (43) 
2.129854

>  <inspiration_score>  (43) 
None

$$$$
C45698-P198
     RDKit          3D

 21 22  0  0  0  0  0  0  0  0999 V2000
    7.5609   13.4747   22.4292 O   0  0  0  0  0  0  0  0  0  0  0  0
    7.5832   14.0478   23.4448 C   0  0  0  0  0  0  0  0  0  0  0  0
    8.1448   15.4452   23.6471 C   0  0  0  0  0  0  0  0  0  0  0  0
    9.6086   15.2907   24.0594 C   0  0  0  0  0  0  0  0  0  0  0  0
   10.5001   14.4946   23.1111 C   0  0  0  0  0  0  0  0  0  0  0  0
   10.7862   15.1868   21.8513 N   0  0  0  0  0  0  0  0  0  0  0  0
    9.7293   15.0466   20.8361 C   0  0  0  0  0  0  0  0  0  0  0  0
   10.0888   15.7548   19.5299 C   0  0  0  0  0  0  0  0  0  0  0  0
   11.3539   15.2062   18.9431 C   0  0  0  0  0  0  0  0  0  0  0  0
   12.4145   15.2107   20.0089 C   0  0  0  0  0  0  0  0  0  0  0  0
   12.0045   14.5789   21.3125 C   0  0  0  0  0  0  0  0  0  0  0  0
    7.1806   13.5863   24.8653 N   0  0  0  0  0  0  0  0  0  0  0  0
    6.7849   12.3792   25.3133 C   0  0  0  0  0  0  0  0  0  0  0  0
    6.9914   11.0975   24.7867 C   0  0  0  0  0  0  0  0  0  0  0  0
    6.3392   10.1714   25.4958 N   0  0  0  0  0  0  0  0  0  0  0  0
    5.6397   10.9070   26.3834 N   0  0  0  0  0  0  0  0  0  0  0  0
    4.5332   10.3115   27.0804 C   0  0  0  0  0  0  0  0  0  0  0  0
    3.5774   11.3186   27.6735 C   0  0  0  0  0  0  0  0  0  0  0  0
    3.0615   12.1458   26.7291 F   0  0  0  0  0  0  0  0  0  0  0  0
    2.5258   10.6699   28.2265 F   0  0  0  0  0  0  0  0  0  0  0  0
    6.0461   12.2054   26.4458 C   0  0  0  0  0  0  0  0  0  0  0  0
  1  2  2  0
  2  3  1  0
  3  4  1  0
  4  5  1  0
  5  6  1  0
  6  7  1  0
  7  8  1  0
  8  9  1  0
  9 10  1  0
 10 11  1  0
  2 12  1  0
 12 13  1  0
 13 14  1  0
 14 15  2  0
 15 16  1  0
 16 17  1  0
 17 18  1  0
 18 19  1  0
 18 20  1  0
 16 21  1  0
 11  6  1  0
 21 13  2  0
M  END
>  <energy_score>  (44) 
-0.607781

>  <inchikey>  (44) 
SXDJEXICYSZTHS-UHFFFAOYSA-N

>  <smiles>  (44) 
O=C(CCCN1CCCCC1)Nc1cnn(CC(F)F)c1

>  <ref_pdb>  (44) 
A3618a

>  <alias>  (44) 
C45698-P198

>  <HIPPO Pose ID>  (44) 
276638

>  <name>  (44) 
C45698-P198

>  <HIPPO Compound ID>  (44) 
45698

>  <ref_mols>  (44) 
A2304a,A3618a

>  <distance_score>  (44) 
1.145661

>  <inspiration_score>  (44) 
None

$$$$
C45621-P423
     RDKit          3D

 21 22  0  0  0  0  0  0  0  0999 V2000
   13.6815   12.6715   25.6119 C   0  0  0  0  0  0  0  0  0  0  0  0
   13.7970   14.1646   25.8947 C   0  0  0  0  0  0  0  0  0  0  0  0
   12.6092   14.9286   25.6054 O   0  0  0  0  0  0  0  0  0  0  0  0
   12.1703   14.9201   24.3151 C   0  0  0  0  0  0  0  0  0  0  0  0
   12.5222   14.1519   23.5228 O   0  0  0  0  0  0  0  0  0  0  0  0
   11.2680   16.1352   24.1777 N   0  0  0  0  0  0  0  0  0  0  0  0
   10.5099   16.6286   23.0343 C   0  0  1  0  0  0  0  0  0  0  0  0
   11.3120   16.7213   21.7425 C   0  0  0  0  0  0  0  0  0  0  0  0
   11.0721   15.4990   20.8794 C   0  0  0  0  0  0  0  0  0  0  0  0
    9.6647   14.9633   21.1139 C   0  0  0  0  0  0  0  0  0  0  0  0
    9.4584   14.3545   22.4707 N   0  0  0  0  0  0  0  0  0  0  0  0
    8.3430   13.4859   22.9989 C   0  0  0  0  0  0  0  0  0  0  0  0
    7.3381   13.1504   22.4946 O   0  0  0  0  0  0  0  0  0  0  0  0
    8.8613   13.0393   24.3643 C   0  0  0  0  0  0  0  0  0  0  0  0
    7.8530   12.3499   25.2695 C   0  0  1  0  0  0  0  0  0  0  0  0
    6.6250   13.2168   25.5700 C   0  0  0  0  0  0  0  0  0  0  0  0
    5.6679   12.4856   26.5016 C   0  0  0  0  0  0  0  0  0  0  0  0
    5.3993   11.0607   26.0347 C   0  0  0  0  0  0  0  0  0  0  0  0
    6.6026   10.3009   25.7081 N   0  0  0  0  0  0  0  0  0  0  0  0
    7.4454   10.9831   24.7349 C   0  0  0  0  0  0  0  0  0  0  0  0
    9.2216   15.8178   22.8056 C   0  0  0  0  0  0  0  0  0  0  0  0
  1  2  1  0
  2  3  1  0
  3  4  1  0
  4  5  2  0
  4  6  1  0
  7  6  1  1
  7  8  1  0
  8  9  1  0
  9 10  1  0
 10 11  1  0
 11 12  1  0
 12 13  2  0
 12 14  1  0
 15 14  1  6
 15 16  1  0
 16 17  1  0
 17 18  1  0
 18 19  1  0
 19 20  1  0
 11 21  1  0
 21  7  1  0
 20 15  1  0
M  END
>  <energy_score>  (45) 
52.116433

>  <inchikey>  (45) 
INVNYAFFMZVEBF-UHFFFAOYSA-N

>  <smiles>  (45) 
CCOC(=O)N[C@H]1CCCN(C(=O)C[C@H]2CCCNC2)C1

>  <ref_pdb>  (45) 
A4650a

>  <alias>  (45) 
C45621-P423

>  <HIPPO Pose ID>  (45) 
286979

>  <name>  (45) 
C45621-P423

>  <HIPPO Compound ID>  (45) 
45621

>  <ref_mols>  (45) 
A4650a,A0875a

>  <distance_score>  (45) 
1.614888

>  <inspiration_score>  (45) 
None

$$$$
C3473-P356
     RDKit          3D

 19 20  0  0  0  0  0  0  0  0999 V2000
    9.7127   14.7905   21.9865 C   0  0  0  0  0  0  0  0  0  0  0  0
   10.8242   15.5539   21.2389 C   0  0  0  0  0  0  0  0  0  0  0  0
   12.1364   15.2711   21.9449 C   0  0  0  0  0  0  0  0  0  0  0  0
   10.8202   15.2737   19.7497 C   0  0  0  0  0  0  0  0  0  0  0  0
    9.6735   15.3210   18.9437 C   0  0  0  0  0  0  0  0  0  0  0  0
    9.9868   14.8485   17.6771 C   0  0  0  0  0  0  0  0  0  0  0  0
    9.0079   14.1085   16.3615 C   0  0  0  0  0  0  0  0  0  0  0  0
    8.1654   14.1660   14.9534 N   0  0  0  0  0  0  0  0  0  0  0  0
    8.4930   13.4443   13.3689 C   0  0  0  0  0  0  0  0  0  0  0  0
    9.4286   12.6708   13.1013 O   0  0  0  0  0  0  0  0  0  0  0  0
    7.4725   13.9075   11.6266 C   0  0  0  0  0  0  0  0  0  0  0  0
    7.3800   13.6252    9.7533 O   0  0  0  0  0  0  0  0  0  0  0  0
    6.8776   14.0183    7.8946 C   0  0  1  0  0  0  0  0  0  0  0  0
    7.0559   15.1485    6.7314 C   0  0  0  0  0  0  0  0  0  0  0  0
    7.7150   14.8405    5.3553 C   0  0  0  0  0  0  0  0  0  0  0  0
    7.9562   13.4421    5.3858 N   0  0  0  0  0  0  0  0  0  0  0  0
    6.9102   12.9965    6.2804 C   0  0  0  0  0  0  0  0  0  0  0  0
   11.3371   14.5421   17.7509 O   0  0  0  0  0  0  0  0  0  0  0  0
   11.8558   14.8670   19.0141 N   0  0  0  0  0  0  0  0  0  0  0  0
  1  2  1  0
  2  3  1  0
  2  4  1  0
  4  5  1  0
  5  6  2  0
  6  7  1  0
  7  8  1  0
  8  9  1  0
  9 10  2  0
  9 11  1  0
 11 12  1  0
 13 12  1  1
 13 14  1  0
 14 15  1  0
 15 16  1  0
 16 17  1  0
  6 18  1  0
 18 19  1  0
 19  4  2  0
 17 13  1  0
M  END
>  <energy_score>  (46) 
626.739564

>  <inchikey>  (46) 
JPTZGLGKRWDLEQ-UHFFFAOYSA-N

>  <smiles>  (46) 
CC(C)c1cc(CNC(=O)CO[C@H]2CCNC2)on1

>  <ref_pdb>  (46) 
A4418a

>  <alias>  (46) 
C3473-P356

>  <HIPPO Pose ID>  (46) 
287259

>  <name>  (46) 
C3473-P356

>  <HIPPO Compound ID>  (46) 
3473

>  <ref_mols>  (46) 
A0541a,A4418a

>  <distance_score>  (46) 
3.749579

>  <inspiration_score>  (46) 
None

$$$$
C119126-P296
     RDKit          3D

 19 20  0  0  0  0  0  0  0  0999 V2000
    4.7713   13.5164   26.1140 C   0  0  0  0  0  0  0  0  0  0  0  0
    5.5472   12.9119   27.2722 C   0  0  0  0  0  0  0  0  0  0  0  0
    6.7720   13.7622   27.5979 C   0  0  0  0  0  0  0  0  0  0  0  0
    5.8023   11.3895   27.1322 C   0  0  0  0  0  0  0  0  0  0  0  0
    6.6894   10.8943   26.0473 C   0  0  0  0  0  0  0  0  0  0  0  0
    7.2005    9.6593   26.0356 N   0  0  0  0  0  0  0  0  0  0  0  0
    8.3264    9.6108   24.7704 S   0  0  0  0  0  0  0  0  0  0  0  0
    8.0757   11.2530   24.4116 C   0  0  0  0  0  0  0  0  0  0  0  0
    8.9167   12.0594   23.7423 N   0  0  0  0  0  0  0  0  0  0  0  0
    9.0220   13.3565   24.4115 C   0  0  1  0  0  0  0  0  0  0  0  0
    9.8451   13.2262   25.6825 C   0  0  0  0  0  0  0  0  0  0  0  0
    9.7293   14.3794   23.5953 C   0  0  0  0  0  0  0  0  0  0  0  0
    9.0618   14.6706   22.2744 C   0  0  0  0  0  0  0  0  0  0  0  0
    9.5318   15.9615   21.7452 N   0  0  0  0  0  0  0  0  0  0  0  0
   10.9449   16.2785   21.9962 C   0  0  0  0  0  0  0  0  0  0  0  0
   11.7134   15.3841   21.0553 C   0  0  0  0  0  0  0  0  0  0  0  0
   10.8198   15.3213   19.8294 C   0  0  0  0  0  0  0  0  0  0  0  0
    9.4933   15.9293   20.2749 C   0  0  0  0  0  0  0  0  0  0  0  0
    7.0428   11.7379   25.0494 N   0  0  0  0  0  0  0  0  0  0  0  0
  1  2  1  0
  2  3  1  0
  2  4  1  0
  4  5  1  0
  5  6  2  0
  6  7  1  0
  7  8  1  0
  8  9  1  0
  9 10  1  0
 10 11  1  1
 10 12  1  0
 12 13  1  0
 13 14  1  0
 14 15  1  0
 15 16  1  0
 16 17  1  0
 17 18  1  0
  8 19  2  0
 19  5  1  0
 18 14  1  0
M  END
>  <energy_score>  (47) 
-49.878332

>  <inchikey>  (47) 
IUBXWEMAFPFTMR-UHFFFAOYSA-N

>  <smiles>  (47) 
CC(C)Cc1nsc(N[C@@H](C)CCN2CCCC2)n1

>  <ref_pdb>  (47) 
A4311a

>  <alias>  (47) 
C119126-P296

>  <HIPPO Pose ID>  (47) 
292336

>  <name>  (47) 
C119126-P296

>  <HIPPO Compound ID>  (47) 
119126

>  <ref_mols>  (47) 
A4311a,A1140a

>  <distance_score>  (47) 
1.78011

>  <inspiration_score>  (47) 
None

$$$$
C45810-P208
     RDKit          3D

 22 24  0  0  0  0  0  0  0  0999 V2000
    8.0920   14.6080   28.0156 O   0  0  0  0  0  0  0  0  0  0  0  0
    7.8950   14.9844   26.9271 C   0  0  0  0  0  0  0  0  0  0  0  0
    6.5639   14.7951   26.2078 C   0  0  0  0  0  0  0  0  0  0  0  0
    6.5626   13.5759   25.2795 C   0  0  2  0  0  0  0  0  0  0  0  0
    6.3835   12.2219   26.0061 C   0  0  0  0  0  0  0  0  0  0  0  0
    7.2654   11.3470   25.1910 C   0  0  0  0  0  0  0  0  0  0  0  0
    7.3764    9.9738   25.1863 C   0  0  0  0  0  0  0  0  0  0  0  0
    8.3700    9.4132   24.3868 C   0  0  0  0  0  0  0  0  0  0  0  0
    9.2631   10.2155   23.6677 C   0  0  0  0  0  0  0  0  0  0  0  0
    9.1437   11.5974   23.6892 C   0  0  0  0  0  0  0  0  0  0  0  0
    8.0947   12.1379   24.4002 C   0  0  0  0  0  0  0  0  0  0  0  0
    7.7780   13.5144   24.4234 N   0  0  0  0  0  0  0  0  0  0  0  0
    8.8595   15.6436   25.8981 N   0  0  0  0  0  0  0  0  0  0  0  0
   10.2837   15.8854   25.9676 C   0  0  0  0  0  0  0  0  0  0  0  0
   10.8526   16.2797   24.6041 C   0  0  0  0  0  0  0  0  0  0  0  0
   11.1237   15.0992   23.6752 C   0  0  0  0  0  0  0  0  0  0  0  0
   11.3891   15.5070   22.2879 N   0  0  0  0  0  0  0  0  0  0  0  0
   10.1613   15.9416   21.5884 C   0  0  0  0  0  0  0  0  0  0  0  0
   10.4655   16.3537   20.1492 C   0  0  0  0  0  0  0  0  0  0  0  0
   11.1286   15.2535   19.3475 C   0  0  0  0  0  0  0  0  0  0  0  0
   12.3117   14.7204   20.1290 C   0  0  0  0  0  0  0  0  0  0  0  0
   11.9301   14.3527   21.5598 C   0  0  0  0  0  0  0  0  0  0  0  0
  1  2  2  0
  2  3  1  0
  4  3  1  1
  4  5  1  0
  5  6  1  0
  6  7  2  0
  7  8  1  0
  8  9  2  0
  9 10  1  0
 10 11  2  0
 11 12  1  0
  2 13  1  0
 13 14  1  0
 14 15  1  0
 15 16  1  0
 16 17  1  0
 17 18  1  0
 18 19  1  0
 19 20  1  0
 20 21  1  0
 21 22  1  0
 12  4  1  0
 22 17  1  0
 11  6  1  0
M  END
>  <energy_score>  (48) 
-25.434607

>  <inchikey>  (48) 
BYSHFDHZCXUNGM-UHFFFAOYSA-N

>  <smiles>  (48) 
O=C(C[C@@H]1Cc2ccccc2N1)NCCCN1CCCCC1

>  <ref_pdb>  (48) 
A3706b

>  <alias>  (48) 
C45810-P208

>  <HIPPO Pose ID>  (48) 
295956

>  <name>  (48) 
C45810-P208

>  <HIPPO Compound ID>  (48) 
45810

>  <ref_mols>  (48) 
A3706b,A1778a

>  <distance_score>  (48) 
1.709705

>  <inspiration_score>  (48) 
None

$$$$
C21091-P489
     RDKit          3D

 21 23  0  0  0  0  0  0  0  0999 V2000
    8.3467   15.5358   23.8076 O   0  0  0  0  0  0  0  0  0  0  0  0
    8.6401   14.3964   23.7828 C   0  0  0  0  0  0  0  0  0  0  0  0
    7.6163   13.3137   24.2536 C   0  0  0  0  0  0  0  0  0  0  0  0
    6.7947   13.9019   25.4199 C   0  0  0  0  0  0  0  0  0  0  0  0
    5.6809   12.9828   25.9116 C   0  0  0  0  0  0  0  0  0  0  0  0
    6.1046   11.5578   26.1219 C   0  0  0  0  0  0  0  0  0  0  0  0
    5.5369   10.8033   27.0723 C   0  0  0  0  0  0  0  0  0  0  0  0
    4.5896   11.2880   27.8961 F   0  0  0  0  0  0  0  0  0  0  0  0
    5.8517    9.5113   27.1723 F   0  0  0  0  0  0  0  0  0  0  0  0
    7.1103   10.9750   25.1632 C   0  0  0  0  0  0  0  0  0  0  0  0
    8.1774   11.9620   24.7041 C   0  0  0  0  0  0  0  0  0  0  0  0
    9.8854   13.7172   23.2540 N   0  0  0  0  0  0  0  0  0  0  0  0
   10.9373   13.5973   24.3237 C   0  0  0  0  0  0  0  0  0  0  0  0
   11.6723   14.8855   24.6145 C   0  0  0  0  0  0  0  0  0  0  0  0
   11.7336   15.4355   23.2502 C   0  0  0  0  0  0  0  0  0  0  0  0
   11.0875   14.2876   22.5030 C   0  0  2  0  0  0  0  0  0  0  0  0
   10.7591   14.7618   21.1273 C   0  0  0  0  0  0  0  0  0  0  0  0
   11.7519   15.0554   20.1578 C   0  0  0  0  0  0  0  0  0  0  0  0
   11.2541   15.4606   18.9984 N   0  0  0  0  0  0  0  0  0  0  0  0
    9.9413   15.4038   19.2017 N   0  0  0  0  0  0  0  0  0  0  0  0
    9.5855   15.0600   20.4781 C   0  0  0  0  0  0  0  0  0  0  0  0
  1  2  2  0
  2  3  1  0
  3  4  1  0
  4  5  1  0
  5  6  1  0
  6  7  2  3
  7  8  1  0
  7  9  1  0
  6 10  1  0
 10 11  1  0
  2 12  1  0
 12 13  1  0
 13 14  1  0
 14 15  1  0
 15 16  1  0
 16 17  1  6
 17 18  1  0
 18 19  2  0
 19 20  1  0
 20 21  1  0
 11  3  1  0
 16 12  1  0
 21 17  2  0
M  END
>  <energy_score>  (49) 
38.352199

>  <inchikey>  (49) 
WSOYYZMSIYXMKE-UHFFFAOYSA-N

>  <smiles>  (49) 
O=C(C1CCC(=C(F)F)CC1)N1CCC[C@@H]1c1cn[nH]c1

>  <ref_pdb>  (49) 
A4855a

>  <alias>  (49) 
C21091-P489

>  <HIPPO Pose ID>  (49) 
298844

>  <name>  (49) 
C21091-P489

>  <HIPPO Compound ID>  (49) 
21091

>  <ref_mols>  (49) 
A4855a,A0556a

>  <distance_score>  (49) 
1.23858

>  <inspiration_score>  (49) 
None

$$$$
C47038-P373
     RDKit          3D

 23 25  0  0  0  0  0  0  0  0999 V2000
   21.3237   24.3691   17.3429 C   0  0  0  0  0  0  0  0  0  0  0  0
   21.9580   24.6249   16.0276 N   0  0  0  0  0  0  0  0  0  0  0  0
   22.9060   23.5144   16.5176 C   0  0  0  0  0  0  0  0  0  0  0  0
   23.9495   23.6783   17.6932 C   0  0  2  0  0  0  0  0  0  0  0  0
   25.3957   23.4544   17.2151 C   0  0  0  0  0  0  0  0  0  0  0  0
   26.4119   23.4915   18.3640 C   0  0  0  0  0  0  0  0  0  0  0  0
   25.7903   23.2141   19.7312 C   0  0  0  0  0  0  0  0  0  0  0  0
   24.7522   22.1936   19.6319 N   0  0  0  0  0  0  0  0  0  0  0  0
   23.6215   22.6687   18.8292 C   0  0  0  0  0  0  0  0  0  0  0  0
   22.7126   25.7447   15.5565 C   0  0  0  0  0  0  0  0  0  0  0  0
   23.1023   26.7267   16.1377 O   0  0  0  0  0  0  0  0  0  0  0  0
   22.9834   25.6215   14.0232 C   0  0  0  0  0  0  0  0  0  0  0  0
   21.7921   25.3413   13.1865 N   0  0  0  0  0  0  0  0  0  0  0  0
   20.7096   26.3112   13.2740 C   0  0  0  0  0  0  0  0  0  0  0  0
   21.4513   24.0637   12.8018 C   0  0  0  0  0  0  0  0  0  0  0  0
   20.2495   23.7457   12.3658 N   0  0  0  0  0  0  0  0  0  0  0  0
   20.0558   22.3770   12.4296 C   0  0  0  0  0  0  0  0  0  0  0  0
   18.6258   21.5849   12.2401 C   0  0  0  0  0  0  0  0  0  0  0  0
   18.6259   19.8546   12.0054 C   0  0  0  0  0  0  0  0  0  0  0  0
   19.8007   18.6668   12.3455 C   0  0  0  0  0  0  0  0  0  0  0  0
   21.3142   19.5844   13.1833 C   0  0  0  0  0  0  0  0  0  0  0  0
   21.3634   21.4375   12.9134 C   0  0  0  0  0  0  0  0  0  0  0  0
   22.6290   22.8047   12.7155 S   0  0  0  0  0  0  0  0  0  0  0  0
  1  2  1  0
  2  3  1  0
  4  3  1  6
  4  5  1  0
  5  6  1  0
  6  7  1  0
  7  8  1  0
  8  9  1  0
  2 10  1  0
 10 11  2  0
 10 12  1  0
 12 13  1  0
 13 14  1  0
 13 15  1  0
 15 16  2  0
 16 17  1  0
 17 18  2  0
 18 19  1  0
 19 20  2  0
 20 21  1  0
 21 22  2  0
 22 23  1  0
  9  4  1  0
 23 15  1  0
 22 17  1  0
M  END
>  <energy_score>  (50) 
314.304149

>  <inchikey>  (50) 
VQKUUICJVHGODM-UHFFFAOYSA-N

>  <smiles>  (50) 
CN(C[C@@H]1CCCNC1)C(=O)CN(C)c1nc2ccccc2s1

>  <ref_pdb>  (50) 
A4461a

>  <alias>  (50) 
C47038-P373

>  <HIPPO Pose ID>  (50) 
301282

>  <name>  (50) 
C47038-P373

>  <HIPPO Compound ID>  (50) 
47038

>  <ref_mols>  (50) 
A0514b,A4461a

>  <distance_score>  (50) 
3.925633

>  <inspiration_score>  (50) 
None

$$$$
C47019-P328
     RDKit          3D

 22 23  0  0  0  0  0  0  0  0999 V2000
   13.9030   11.1326   25.4205 C   0  0  0  0  0  0  0  0  0  0  0  0
   12.4107   11.4895   25.3543 C   0  0  0  0  0  0  0  0  0  0  0  0
   11.4149   10.2710   25.0570 C   0  0  0  0  0  0  0  0  0  0  0  0
   10.2739   10.7080   24.2929 N   0  0  0  0  0  0  0  0  0  0  0  0
    9.6323    9.7124   23.4493 C   0  0  0  0  0  0  0  0  0  0  0  0
    8.4228    9.0345   24.0563 C   0  0  0  0  0  0  0  0  0  0  0  0
    7.4049   10.0187   24.5836 C   0  0  0  0  0  0  0  0  0  0  0  0
    8.0433   11.0123   25.4963 C   0  0  2  0  0  0  0  0  0  0  0  0
    7.1082   12.1317   25.9170 C   0  0  0  0  0  0  0  0  0  0  0  0
    6.6903   12.2424   26.9954 O   0  0  0  0  0  0  0  0  0  0  0  0
    6.9644   13.0472   24.6972 N   0  0  0  0  0  0  0  0  0  0  0  0
    6.3645   14.3242   24.5703 C   0  0  0  0  0  0  0  0  0  0  0  0
    7.6250   15.2199   24.5970 C   0  0  2  0  0  0  0  0  0  0  0  0
    7.4731   16.3070   25.5046 O   0  0  0  0  0  0  0  0  0  0  0  0
    8.0278   15.6956   23.1865 C   0  0  0  0  0  0  0  0  0  0  0  0
    9.2503   15.1053   22.5882 N   0  0  0  0  0  0  0  0  0  0  0  0
   10.4373   15.3951   23.4176 C   0  0  0  0  0  0  0  0  0  0  0  0
   11.7376   14.9608   22.7443 C   0  0  0  0  0  0  0  0  0  0  0  0
   11.9009   15.6619   21.4063 C   0  0  0  0  0  0  0  0  0  0  0  0
   10.6996   15.3553   20.5323 C   0  0  0  0  0  0  0  0  0  0  0  0
    9.4016   15.7165   21.2423 C   0  0  0  0  0  0  0  0  0  0  0  0
    9.3603   11.6244   24.9496 C   0  0  0  0  0  0  0  0  0  0  0  0
  1  2  1  0
  2  3  1  0
  3  4  1  0
  4  5  1  0
  5  6  1  0
  6  7  1  0
  7  8  1  0
  8  9  1  6
  9 10  2  0
  9 11  1  0
 11 12  1  0
 12 13  1  0
 13 14  1  1
 13 15  1  0
 15 16  1  0
 16 17  1  0
 17 18  1  0
 18 19  1  0
 19 20  1  0
 20 21  1  0
  8 22  1  0
 22  4  1  0
 21 16  1  0
M  END
>  <energy_score>  (51) 
-12.215926

>  <inchikey>  (51) 
BMJHPSVXCNOHQF-UHFFFAOYSA-N

>  <smiles>  (51) 
CCCN1CCC[C@H](C(=O)NC[C@H](O)CN2CCCCC2)C1

>  <ref_pdb>  (51) 
A4374a

>  <alias>  (51) 
C47019-P328

>  <HIPPO Pose ID>  (51) 
305573

>  <name>  (51) 
C47019-P328

>  <HIPPO Compound ID>  (51) 
47019

>  <ref_mols>  (51) 
A4374a,A0875a

>  <distance_score>  (51) 
1.861668

>  <inspiration_score>  (51) 
None

$$$$
C107313-P87
     RDKit          3D

 23 25  0  0  0  0  0  0  0  0999 V2000
   21.6572   19.8460   23.5798 O   0  0  0  0  0  0  0  0  0  0  0  0
   22.1404   18.7671   23.5704 C   0  0  0  0  0  0  0  0  0  0  0  0
   21.5253   17.3509   24.0184 N   0  0  0  0  0  0  0  0  0  0  0  0
   20.1337   17.0038   24.6991 C   0  0  1  0  0  0  0  0  0  0  0  0
   18.9080   17.2922   23.7538 C   0  0  0  0  0  0  0  0  0  0  0  0
   18.0370   16.2061   23.5004 O   0  0  0  0  0  0  0  0  0  0  0  0
   19.7380   15.7480   25.6079 C   0  0  0  0  0  0  0  0  0  0  0  0
   19.0761   14.6124   25.1180 N   0  0  0  0  0  0  0  0  0  0  0  0
   18.4688   14.0622   26.1488 C   0  0  0  0  0  0  0  0  0  0  0  0
   18.6669   14.8594   27.2153 N   0  0  0  0  0  0  0  0  0  0  0  0
   19.5139   15.8907   26.9327 N   0  0  0  0  0  0  0  0  0  0  0  0
   23.6328   18.8400   22.9820 C   0  0  0  0  0  0  0  0  0  0  0  0
   24.1827   18.2501   21.8579 C   0  0  0  0  0  0  0  0  0  0  0  0
   25.3280   18.6862   21.1459 N   0  0  0  0  0  0  0  0  0  0  0  0
   25.9943   19.8020   21.5513 C   0  0  0  0  0  0  0  0  0  0  0  0
   27.0955   20.4470   20.6394 C   0  0  0  0  0  0  0  0  0  0  0  0
   28.0484   19.4376   19.9515 C   0  0  0  0  0  0  0  0  0  0  0  0
   29.4903   19.9387   19.7469 C   0  0  0  0  0  0  0  0  0  0  0  0
   29.5266   21.3276   19.3117 N   0  0  0  0  0  0  0  0  0  0  0  0
   28.9323   22.2289   20.2945 C   0  0  0  0  0  0  0  0  0  0  0  0
   27.9414   21.5728   21.2815 C   0  0  0  0  0  0  0  0  0  0  0  0
   25.5587   20.4700   22.6354 N   0  0  0  0  0  0  0  0  0  0  0  0
   24.4051   19.9876   23.2726 C   0  0  0  0  0  0  0  0  0  0  0  0
  1  2  2  0
  2  3  1  0
  3  4  1  0
  4  5  1  6
  5  6  1  0
  4  7  1  0
  7  8  1  0
  8  9  2  0
  9 10  1  0
 10 11  1  0
  2 12  1  0
 12 13  2  0
 13 14  1  0
 14 15  2  0
 15 16  1  0
 16 17  1  0
 17 18  1  0
 18 19  1  0
 19 20  1  0
 20 21  1  0
 15 22  1  0
 22 23  2  0
 11  7  2  0
 23 12  1  0
 21 16  1  0
M  END
>  <energy_score>  (52) 
47.539883

>  <inchikey>  (52) 
UTKHDYJCBLMZTI-UHFFFAOYSA-N

>  <smiles>  (52) 
O=C(N[C@@H](CO)c1nc[nH]n1)c1cnc(C2CCNCC2)nc1

>  <ref_pdb>  (52) 
A0875a

>  <alias>  (52) 
C107313-P87

>  <HIPPO Pose ID>  (52) 
315183

>  <name>  (52) 
C107313-P87

>  <HIPPO Compound ID>  (52) 
107313

>  <ref_mols>  (52) 
A1146a,A0875a

>  <distance_score>  (52) 
5.264092

>  <inspiration_score>  (52) 
None

$$$$
C35612-P128
     RDKit          3D

 23 26  0  0  0  0  0  0  0  0999 V2000
   11.9119   13.6164   25.2830 O   0  0  0  0  0  0  0  0  0  0  0  0
   11.2534   13.4772   24.2952 C   0  0  0  0  0  0  0  0  0  0  0  0
   11.5870   12.9271   23.0262 N   0  0  0  0  0  0  0  0  0  0  0  0
   12.7335   12.3078   22.5839 C   0  0  0  0  0  0  0  0  0  0  0  0
   12.9020   11.9132   21.0232 C   0  0  0  0  0  0  0  0  0  0  0  0
   14.3116   10.8152   20.3832 C   0  0  0  0  0  0  0  0  0  0  0  0
   15.7874   10.8012   21.3539 C   0  0  0  0  0  0  0  0  0  0  0  0
   17.2490    9.6134   21.0641 C   0  0  0  0  0  0  0  0  0  0  0  0
   17.5182    8.3766   21.7629 C   0  0  0  0  0  0  0  0  0  0  0  0
   18.6064    7.7464   21.2295 C   0  0  0  0  0  0  0  0  0  0  0  0
   19.1495    8.6145   20.4006 N   0  0  0  0  0  0  0  0  0  0  0  0
   18.5686    9.7932   20.5773 N   0  0  0  0  0  0  0  0  0  0  0  0
   15.2754   11.0528   23.0166 C   0  0  0  0  0  0  0  0  0  0  0  0
   13.7360   11.6724   23.6428 C   0  0  0  0  0  0  0  0  0  0  0  0
    9.8576   13.8264   24.4037 C   0  0  0  0  0  0  0  0  0  0  0  0
    9.1850   13.9994   25.5980 C   0  0  0  0  0  0  0  0  0  0  0  0
    7.8407   13.9070   25.4380 N   0  0  0  0  0  0  0  0  0  0  0  0
    7.6692   13.9796   24.1399 C   0  0  0  0  0  0  0  0  0  0  0  0
    6.4955   14.1664   23.3871 C   0  0  0  0  0  0  0  0  0  0  0  0
    6.5805   14.3594   22.0725 C   0  0  0  0  0  0  0  0  0  0  0  0
    7.9310   14.2814   21.4907 C   0  0  0  0  0  0  0  0  0  0  0  0
    9.0448   14.0278   22.1038 N   0  0  0  0  0  0  0  0  0  0  0  0
    8.8729   13.9413   23.4588 N   0  0  0  0  0  0  0  0  0  0  0  0
  1  2  2  0
  2  3  1  0
  3  4  1  0
  4  5  2  0
  5  6  1  0
  6  7  2  0
  7  8  1  0
  8  9  1  0
  9 10  2  0
 10 11  1  0
 11 12  1  0
  7 13  1  0
 13 14  2  0
  2 15  1  0
 15 16  2  0
 16 17  1  0
 17 18  2  0
 18 19  1  0
 19 20  2  0
 20 21  1  0
 21 22  2  0
 22 23  1  0
 14  4  1  0
 23 15  1  0
 12  8  2  0
 23 18  1  0
M  END
>  <energy_score>  (53) 
281.951955

>  <inchikey>  (53) 
JYQMCBGVXVNZTI-UHFFFAOYSA-N

>  <smiles>  (53) 
O=C(Nc1ccc(-c2cc[nH]n2)cc1)c1cnc2cccnn12

>  <ref_pdb>  (53) 
A2304a

>  <alias>  (53) 
C35612-P128

>  <HIPPO Pose ID>  (53) 
317958

>  <name>  (53) 
C35612-P128

>  <HIPPO Compound ID>  (53) 
35612

>  <ref_mols>  (53) 
A2304a,A0202a

>  <distance_score>  (53) 
6.227727

>  <inspiration_score>  (53) 
None

$$$$
C47627-P303
     RDKit          3D

 23 24  0  0  0  0  0  0  0  0999 V2000
    7.2726   15.8445   21.5417 C   0  0  0  0  0  0  0  0  0  0  0  0
    8.2379   14.7310   21.0951 C   0  0  2  0  0  0  0  0  0  0  0  0
    8.3181   13.8964   22.2728 N   0  0  0  0  0  0  0  0  0  0  0  0
    7.3210   13.7165   23.4507 C   0  0  0  0  0  0  0  0  0  0  0  0
    6.3211   14.2715   23.6866 O   0  0  0  0  0  0  0  0  0  0  0  0
    7.8865   12.7076   24.4253 C   0  0  0  0  0  0  0  0  0  0  0  0
    6.8737   12.5016   25.5567 C   0  0  0  0  0  0  0  0  0  0  0  0
    7.0312   11.1489   26.2234 C   0  0  0  0  0  0  0  0  0  0  0  0
    6.0003   10.9845   27.3369 C   0  0  0  0  0  0  0  0  0  0  0  0
    6.0265   12.0811   28.3066 N   0  0  0  0  0  0  0  0  0  0  0  0
    5.8238   13.3755   27.6466 C   0  0  0  0  0  0  0  0  0  0  0  0
    6.8958   13.6318   26.5920 C   0  0  0  0  0  0  0  0  0  0  0  0
    9.5086   15.3957   20.4570 C   0  0  0  0  0  0  0  0  0  0  0  0
   10.6631   14.6377   19.8048 C   0  0  0  0  0  0  0  0  0  0  0  0
   11.7854   14.2941   20.7803 C   0  0  0  0  0  0  0  0  0  0  0  0
   11.2033   14.1088   22.1153 N   0  0  0  0  0  0  0  0  0  0  0  0
   12.1275   13.5460   23.0840 C   0  0  0  0  0  0  0  0  0  0  0  0
   11.5358   13.0026   24.3714 C   0  0  0  0  0  0  0  0  0  0  0  0
   12.5435   12.5775   25.1696 F   0  0  0  0  0  0  0  0  0  0  0  0
   10.7278   11.9510   24.1258 F   0  0  0  0  0  0  0  0  0  0  0  0
   10.8411   13.9179   25.0816 F   0  0  0  0  0  0  0  0  0  0  0  0
   10.7530   15.3996   22.6104 C   0  0  0  0  0  0  0  0  0  0  0  0
   10.1387   16.2381   21.5086 C   0  0  0  0  0  0  0  0  0  0  0  0
  2  1  1  1
  2  3  1  0
  3  4  1  0
  4  5  2  0
  4  6  1  0
  6  7  1  0
  7  8  1  0
  8  9  1  0
  9 10  1  0
 10 11  1  0
 11 12  1  0
  2 13  1  0
 13 14  1  0
 14 15  1  0
 15 16  1  0
 16 17  1  0
 17 18  1  0
 18 19  1  0
 18 20  1  0
 18 21  1  0
 16 22  1  0
 22 23  1  0
 12  7  1  0
 23 13  1  0
M  END
>  <energy_score>  (54) 
-0.741983

>  <inchikey>  (54) 
NSEOJLQNOXGNBV-UHFFFAOYSA-N

>  <smiles>  (54) 
C[C@H](NC(=O)CC1CCNCC1)C1CCN(CC(F)(F)F)CC1

>  <ref_pdb>  (54) 
A4320a

>  <alias>  (54) 
C47627-P303

>  <HIPPO Pose ID>  (54) 
325526

>  <name>  (54) 
C47627-P303

>  <HIPPO Compound ID>  (54) 
47627

>  <ref_mols>  (54) 
A0875a,A4320a

>  <distance_score>  (54) 
1.412618

>  <inspiration_score>  (54) 
None

$$$$
C1613-P198
     RDKit          3D

 17 17  0  0  0  0  0  0  0  0999 V2000
    8.0362    9.7053   24.4031 C   0  0  0  0  0  0  0  0  0  0  0  0
    7.7285   11.0217   25.1070 C   0  0  1  0  0  0  0  0  0  0  0  0
    7.9962   12.2666   24.2774 C   0  0  0  0  0  0  0  0  0  0  0  0
    9.2827   12.0910   23.4848 C   0  0  0  0  0  0  0  0  0  0  0  0
    9.9642   13.2972   23.1904 N   0  0  0  0  0  0  0  0  0  0  0  0
   11.4044   13.7471   23.5349 C   0  0  0  0  0  0  0  0  0  0  0  0
   12.2235   13.2274   24.1783 O   0  0  0  0  0  0  0  0  0  0  0  0
   11.5931   14.9828   22.7724 C   0  0  0  0  0  0  0  0  0  0  0  0
   11.6185   14.7893   21.4421 C   0  0  0  0  0  0  0  0  0  0  0  0
   11.0177   15.7253   20.5809 C   0  0  0  0  0  0  0  0  0  0  0  0
   10.8399   15.6580   19.2272 C   0  0  0  0  0  0  0  0  0  0  0  0
   10.0428   16.7106   18.8876 O   0  0  0  0  0  0  0  0  0  0  0  0
    9.7883   17.3463   20.0703 C   0  0  0  0  0  0  0  0  0  0  0  0
   10.3221   16.7738   21.1168 N   0  0  0  0  0  0  0  0  0  0  0  0
    6.2317   10.9211   26.1049 S   0  0  0  0  0  0  0  0  0  0  0  0
    5.6250   12.5961   26.0558 C   0  0  0  0  0  0  0  0  0  0  0  0
    5.1580    9.9161   25.3890 O   0  0  0  0  0  0  0  0  0  0  0  0
  2  1  1  6
  2  3  1  0
  3  4  1  0
  4  5  1  0
  5  6  1  0
  6  7  2  0
  6  8  1  0
  8  9  2  3
  9 10  1  0
 10 11  2  0
 11 12  1  0
 12 13  1  0
 13 14  2  0
  2 15  1  0
 15 16  1  6
 15 17  1  0
 14 10  1  0
M  CHG  2  15   1  17  -1
M  END
>  <energy_score>  (55) 
-13.503376

>  <inchikey>  (55) 
ICXOSEBIRNMDJQ-UHFFFAOYSA-N

>  <smiles>  (55) 
C[C@@H](CCNC(=O)C=Cc1cocn1)[S@@+](C)[O-]

>  <ref_pdb>  (55) 
A3618a

>  <alias>  (55) 
C1613-P198

>  <HIPPO Pose ID>  (55) 
330608

>  <name>  (55) 
C1613-P198

>  <HIPPO Compound ID>  (55) 
1613

>  <ref_mols>  (55) 
A3568a,A3618a

>  <distance_score>  (55) 
1.165304

>  <inspiration_score>  (55) 
None

$$$$
C13863-P127
     RDKit          3D

 23 25  0  0  0  0  0  0  0  0999 V2000
   10.7712   14.2244   24.2229 O   0  0  0  0  0  0  0  0  0  0  0  0
   10.4390   13.4332   23.4322 C   0  0  0  0  0  0  0  0  0  0  0  0
   10.0638   13.6023   21.9456 N   0  0  0  0  0  0  0  0  0  0  0  0
    9.9269   14.7880   21.1467 C   0  0  1  0  0  0  0  0  0  0  0  0
    8.7222   15.5385   21.7403 C   0  0  0  0  0  0  0  0  0  0  0  0
    8.7375   15.6763   23.1495 O   0  0  0  0  0  0  0  0  0  0  0  0
   11.2191   15.6056   20.9723 C   0  0  0  0  0  0  0  0  0  0  0  0
   11.3946   16.2618   19.6582 N   0  0  0  0  0  0  0  0  0  0  0  0
   10.2281   16.9344   19.1033 C   0  0  0  0  0  0  0  0  0  0  0  0
    9.9754   18.2564   19.7975 C   0  0  0  0  0  0  0  0  0  0  0  0
   11.1576   19.2078   19.6569 C   0  0  0  0  0  0  0  0  0  0  0  0
   12.3885   18.5276   19.0721 C   0  0  0  0  0  0  0  0  0  0  0  0
   12.6000   17.1090   19.6186 C   0  0  0  0  0  0  0  0  0  0  0  0
   10.2135   11.9737   23.8667 C   0  0  2  0  0  0  0  0  0  0  0  0
   10.0855   10.9464   22.7546 C   0  0  0  0  0  0  0  0  0  0  0  0
   10.1896    9.5987   23.2820 N   0  0  0  0  0  0  0  0  0  0  0  0
    8.9421    9.2990   23.9693 C   0  0  0  0  0  0  0  0  0  0  0  0
    8.4304   10.4423   24.8312 C   0  0  0  0  0  0  0  0  0  0  0  0
    7.3058   10.2148   25.6339 C   0  0  0  0  0  0  0  0  0  0  0  0
    6.7597   11.2395   26.3986 C   0  0  0  0  0  0  0  0  0  0  0  0
    7.3267   12.5072   26.3624 C   0  0  0  0  0  0  0  0  0  0  0  0
    8.4402   12.7589   25.5618 C   0  0  0  0  0  0  0  0  0  0  0  0
    9.0015   11.7431   24.7775 C   0  0  0  0  0  0  0  0  0  0  0  0
  1  2  2  0
  2  3  1  0
  3  4  1  0
  4  5  1  1
  5  6  1  0
  4  7  1  0
  7  8  1  0
  8  9  1  0
  9 10  1  0
 10 11  1  0
 11 12  1  0
 12 13  1  0
 14  2  1  6
 14 15  1  0
 15 16  1  0
 16 17  1  0
 17 18  1  0
 18 19  2  0
 19 20  1  0
 20 21  2  0
 21 22  1  0
 22 23  2  0
 13  8  1  0
 23 14  1  0
 23 18  1  0
M  END
>  <energy_score>  (56) 
-8.52812

>  <inchikey>  (56) 
LDKHUDYZVRLOHH-UHFFFAOYSA-N

>  <smiles>  (56) 
O=C(N[C@@H](CO)CN1CCCCC1)[C@@H]1CNCc2ccccc21

>  <ref_pdb>  (56) 
A2293a

>  <alias>  (56) 
C13863-P127

>  <HIPPO Pose ID>  (56) 
331389

>  <name>  (56) 
C13863-P127

>  <HIPPO Compound ID>  (56) 
13863

>  <ref_mols>  (56) 
A4806a,A2293a

>  <distance_score>  (56) 
1.672266

>  <inspiration_score>  (56) 
None

$$$$
C1719-P144
     RDKit          3D

 17 18  0  0  0  0  0  0  0  0999 V2000
   12.4813   14.5657   22.9333 C   0  0  0  0  0  0  0  0  0  0  0  0
   11.2261   14.2310   22.1621 C   0  0  1  0  0  0  0  0  0  0  0  0
   10.2211   13.6682   23.0338 N   0  0  0  0  0  0  0  0  0  0  0  0
    9.7246   14.1077   24.2962 C   0  0  0  0  0  0  0  0  0  0  0  0
   10.0661   15.0127   24.9989 O   0  0  0  0  0  0  0  0  0  0  0  0
    8.6017   13.2579   24.7906 C   0  0  0  0  0  0  0  0  0  0  0  0
    7.6534   13.8236   25.6410 C   0  0  0  0  0  0  0  0  0  0  0  0
    6.6654   13.0067   26.1732 C   0  0  0  0  0  0  0  0  0  0  0  0
    6.6713   11.6566   25.8555 C   0  0  0  0  0  0  0  0  0  0  0  0
    7.6540   11.1863   24.9886 C   0  0  0  0  0  0  0  0  0  0  0  0
    7.7317    9.7274   24.6587 C   0  0  0  0  0  0  0  0  0  0  0  0
    8.8637    9.4260   23.8282 N   0  0  0  0  0  0  0  0  0  0  0  0
    6.8854    9.0144   25.1129 O   0  0  0  0  0  0  0  0  0  0  0  0
    8.6317   11.9481   24.4195 N   0  0  0  0  0  0  0  0  0  0  0  0
   10.6787   15.4187   21.4261 C   0  0  0  0  0  0  0  0  0  0  0  0
    9.3251   15.3830   20.7628 C   0  0  0  0  0  0  0  0  0  0  0  0
   10.5658   15.4118   19.9191 C   0  0  0  0  0  0  0  0  0  0  0  0
  2  1  1  1
  2  3  1  0
  3  4  1  0
  4  5  2  0
  4  6  1  0
  6  7  2  0
  7  8  1  0
  8  9  2  0
  9 10  1  0
 10 11  1  0
 11 12  1  0
 11 13  2  0
 10 14  2  0
  2 15  1  0
 15 16  1  0
 16 17  1  0
 14  6  1  0
 17 15  1  0
M  END
>  <energy_score>  (57) 
145.337986

>  <inchikey>  (57) 
DIHHNGIEDGIKTP-UHFFFAOYSA-N

>  <smiles>  (57) 
C[C@@H](NC(=O)c1cccc(C(N)=O)n1)C1CC1

>  <ref_pdb>  (57) 
A3181a

>  <alias>  (57) 
C1719-P144

>  <HIPPO Pose ID>  (57) 
335507

>  <name>  (57) 
C1719-P144

>  <HIPPO Compound ID>  (57) 
1719

>  <ref_mols>  (57) 
A3181a,A3618a

>  <distance_score>  (57) 
1.793619

>  <inspiration_score>  (57) 
None

$$$$
C15998-P239
     RDKit          3D

 17 17  0  0  0  0  0  0  0  0999 V2000
    6.5891   12.8629   28.2360 C   0  0  0  0  0  0  0  0  0  0  0  0
    5.0916   13.1560   28.3476 C   0  0  0  0  0  0  0  0  0  0  0  0
    4.3605   12.2964   29.3974 C   0  0  0  0  0  0  0  0  0  0  0  0
    3.5144   11.1620   28.8440 C   0  0  0  0  0  0  0  0  0  0  0  0
    3.9552   10.2042   28.0048 C   0  0  0  0  0  0  0  0  0  0  0  0
    5.3647    9.9767   27.5960 C   0  0  0  0  0  0  0  0  0  0  0  0
    6.0188    9.2237   28.1976 O   0  0  0  0  0  0  0  0  0  0  0  0
    5.6790   10.7690   26.3045 N   0  0  0  0  0  0  0  0  0  0  0  0
    6.8590   10.8657   25.5653 C   0  0  0  0  0  0  0  0  0  0  0  0
    7.1779   11.9956   24.8301 C   0  0  0  0  0  0  0  0  0  0  0  0
    8.3119   12.0082   24.0142 C   0  0  0  0  0  0  0  0  0  0  0  0
    9.0781   10.8620   23.9279 C   0  0  0  0  0  0  0  0  0  0  0  0
    8.8047    9.7533   24.6329 N   0  0  0  0  0  0  0  0  0  0  0  0
    7.7157    9.7966   25.4422 C   0  0  0  0  0  0  0  0  0  0  0  0
    2.0694   11.1089   29.3268 C   0  0  0  0  0  0  0  0  0  0  0  0
    1.8992   10.7434   30.8071 C   0  0  0  0  0  0  0  0  0  0  0  0
    2.3946    9.3432   31.1393 C   0  0  0  0  0  0  0  0  0  0  0  0
  1  2  1  0
  2  3  1  0
  3  4  1  0
  4  5  2  3
  5  6  1  0
  6  7  2  0
  6  8  1  0
  8  9  1  0
  9 10  2  0
 10 11  1  0
 11 12  2  0
 12 13  1  0
 13 14  2  0
  4 15  1  0
 15 16  1  0
 16 17  1  0
 14  9  1  0
M  END
>  <energy_score>  (58) 
3.098343

>  <inchikey>  (58) 
NQMCYOZKXJJBMJ-UHFFFAOYSA-N

>  <smiles>  (58) 
CCCC(=CC(=O)Nc1cccnc1)CCC

>  <ref_pdb>  (58) 
A3920a

>  <alias>  (58) 
C15998-P239

>  <HIPPO Pose ID>  (58) 
335899

>  <name>  (58) 
C15998-P239

>  <HIPPO Compound ID>  (58) 
15998

>  <ref_mols>  (58) 
A1445a,A3920a

>  <distance_score>  (58) 
1.895648

>  <inspiration_score>  (58) 
None

$$$$
C24648-P145
     RDKit          3D

 19 21  0  0  0  0  0  0  0  0999 V2000
   12.1690   13.8124   25.7358 N   0  0  0  0  0  0  0  0  0  0  0  0
   13.2162   13.3336   24.8225 C   0  0  0  0  0  0  0  0  0  0  0  0
   13.0196   14.1355   23.5927 C   0  0  0  0  0  0  0  0  0  0  0  0
   11.7609   13.8498   23.0484 N   0  0  0  0  0  0  0  0  0  0  0  0
   11.6766   14.5353   21.9521 C   0  0  0  0  0  0  0  0  0  0  0  0
   12.7733   15.3022   21.8078 N   0  0  0  0  0  0  0  0  0  0  0  0
   13.7126   15.1338   22.8618 C   0  0  0  0  0  0  0  0  0  0  0  0
   15.0162   16.2118   22.5294 C   0  0  0  0  0  0  0  0  0  0  0  0
   14.7334   16.8854   21.5569 O   0  0  0  0  0  0  0  0  0  0  0  0
   16.7658   16.3363   23.3602 N   0  0  0  0  0  0  0  0  0  0  0  0
   18.1901   17.4623   23.0145 C   0  0  0  0  0  0  0  0  0  0  0  0
   18.1102   18.5457   22.0133 C   0  0  0  0  0  0  0  0  0  0  0  0
   19.0737   19.5413   21.7711 C   0  0  0  0  0  0  0  0  0  0  0  0
   20.2131   19.6191   22.5477 C   0  0  0  0  0  0  0  0  0  0  0  0
   20.3646   18.6943   23.5853 C   0  0  0  0  0  0  0  0  0  0  0  0
   21.3705   18.4996   24.5564 C   0  0  0  0  0  0  0  0  0  0  0  0
   21.1184   17.4592   25.3448 N   0  0  0  0  0  0  0  0  0  0  0  0
   20.0070   16.9367   24.7991 N   0  0  0  0  0  0  0  0  0  0  0  0
   19.4013   17.6966   23.8211 C   0  0  0  0  0  0  0  0  0  0  0  0
  1  2  1  0
  2  3  1  0
  3  4  1  0
  4  5  2  0
  5  6  1  0
  6  7  1  0
  7  8  1  0
  8  9  2  0
  8 10  1  0
 10 11  1  0
 11 12  2  0
 12 13  1  0
 13 14  2  0
 14 15  1  0
 15 16  1  0
 16 17  2  0
 17 18  1  0
 18 19  1  0
  7  3  2  0
 19 11  1  0
 19 15  2  0
M  END
>  <energy_score>  (59) 
166.252694

>  <inchikey>  (59) 
AVQZSQOUYVLGKZ-UHFFFAOYSA-N

>  <smiles>  (59) 
NCc1nc[nH]c1C(=O)Nc1cccc2cn[nH]c12

>  <ref_pdb>  (59) 
A3181b

>  <alias>  (59) 
C24648-P145

>  <HIPPO Pose ID>  (59) 
337816

>  <name>  (59) 
C24648-P145

>  <HIPPO Compound ID>  (59) 
24648

>  <ref_mols>  (59) 
A3181b,A1209a

>  <distance_score>  (59) 
7.65436

>  <inspiration_score>  (59) 
None

$$$$
C39872-P118
     RDKit          3D

 25 28  0  0  0  0  0  0  0  0999 V2000
   16.4748   10.8067   25.9341 O   0  0  0  0  0  0  0  0  0  0  0  0
   15.4494   10.4410   25.4073 C   0  0  0  0  0  0  0  0  0  0  0  0
   14.2660   11.8555   25.2400 C   0  0  0  0  0  0  0  0  0  0  0  0
   12.6854   12.3479   24.6513 C   0  0  1  0  0  0  0  0  0  0  0  0
   11.8918   13.3986   25.5007 C   0  0  0  0  0  0  0  0  0  0  0  0
   10.3953   13.0529   25.3351 C   0  0  0  0  0  0  0  0  0  0  0  0
   10.4303   12.8463   23.8497 C   0  0  0  0  0  0  0  0  0  0  0  0
    9.3268   13.2123   23.0767 C   0  0  0  0  0  0  0  0  0  0  0  0
    9.5886   13.8527   21.8868 C   0  0  0  0  0  0  0  0  0  0  0  0
   10.9083   14.1657   21.5853 C   0  0  0  0  0  0  0  0  0  0  0  0
   11.9708   13.7211   22.4012 C   0  0  0  0  0  0  0  0  0  0  0  0
   11.7948   12.8316   23.4423 C   0  0  0  0  0  0  0  0  0  0  0  0
   15.0444    9.0877   24.9064 N   0  0  0  0  0  0  0  0  0  0  0  0
   15.8164    7.7922   24.8103 C   0  0  0  0  0  0  0  0  0  0  0  0
   15.7958    5.7755   24.4534 C   0  0  0  0  0  0  0  0  0  0  0  0
   16.3628    4.3329   25.2984 C   0  0  0  0  0  0  0  0  0  0  0  0
   16.6634    3.0866   24.4808 C   0  0  0  0  0  0  0  0  0  0  0  0
   15.9812    2.6070   23.4561 N   0  0  0  0  0  0  0  0  0  0  0  0
   16.7493    1.6431   22.8460 N   0  0  0  0  0  0  0  0  0  0  0  0
   17.8051    1.4196   23.5855 C   0  0  0  0  0  0  0  0  0  0  0  0
   18.8585    0.4685   23.4826 C   0  0  0  0  0  0  0  0  0  0  0  0
   19.7685    0.3810   24.4706 C   0  0  0  0  0  0  0  0  0  0  0  0
   19.7155    1.2720   25.6201 C   0  0  0  0  0  0  0  0  0  0  0  0
   18.7369    2.1934   25.6953 C   0  0  0  0  0  0  0  0  0  0  0  0
   17.7762    2.2651   24.6824 N   0  0  0  0  0  0  0  0  0  0  0  0
  1  2  2  0
  2  3  1  0
  4  3  1  6
  4  5  1  0
  5  6  1  0
  6  7  1  0
  7  8  2  0
  8  9  1  0
  9 10  2  0
 10 11  1  0
 11 12  2  0
  2 13  1  0
 13 14  1  0
 14 15  1  0
 15 16  1  0
 16 17  1  0
 17 18  2  0
 18 19  1  0
 19 20  2  0
 20 21  1  0
 21 22  2  0
 22 23  1  0
 23 24  2  0
 24 25  1  0
 12  4  1  0
 25 17  1  0
 12  7  1  0
 25 20  1  0
M  END
>  <energy_score>  (60) 
290.744917

>  <inchikey>  (60) 
DFUSABQJOGDYQX-UHFFFAOYSA-N

>  <smiles>  (60) 
O=C(C[C@H]1CCc2ccccc21)NCCCc1nnc2ccccn12

>  <ref_pdb>  (60) 
A1293a

>  <alias>  (60) 
C39872-P118

>  <HIPPO Pose ID>  (60) 
338537

>  <name>  (60) 
C39872-P118

>  <HIPPO Compound ID>  (60) 
39872

>  <ref_mols>  (60) 
A1778a,A1293a

>  <distance_score>  (60) 
4.058431

>  <inspiration_score>  (60) 
None

$$$$
C2418-P339
     RDKit          3D

 15 15  0  0  0  0  0  0  0  0999 V2000
    9.8223   15.7536   23.7728 C   0  0  0  0  0  0  0  0  0  0  0  0
    9.6004   14.6024   22.7978 C   0  0  0  0  0  0  0  0  0  0  0  0
    9.2541   15.1798   21.4257 C   0  0  0  0  0  0  0  0  0  0  0  0
    8.5087   13.5998   23.2490 C   0  0  0  0  0  0  0  0  0  0  0  0
    7.7192   13.1519   22.4972 O   0  0  0  0  0  0  0  0  0  0  0  0
    8.6854   13.3701   24.7484 N   0  0  0  0  0  0  0  0  0  0  0  0
    9.6600   12.1622   25.0292 C   0  0  0  0  0  0  0  0  0  0  0  0
    9.8700   11.2121   23.8241 C   0  0  0  0  0  0  0  0  0  0  0  0
   11.0535   12.7986   25.3080 C   0  0  0  0  0  0  0  0  0  0  0  0
    7.8185   12.5631   25.7578 C   0  0  2  0  0  0  0  0  0  0  0  0
    7.2702   11.1460   25.4162 C   0  0  0  0  0  0  0  0  0  0  0  0
    6.1893   10.6480   26.3786 C   0  0  0  0  0  0  0  0  0  0  0  0
    5.3288   11.7322   26.9876 C   0  0  0  0  0  0  0  0  0  0  0  0
    5.2096   12.8627   26.0979 N   0  0  0  0  0  0  0  0  0  0  0  0
    6.5172   13.4939   25.8716 C   0  0  0  0  0  0  0  0  0  0  0  0
  1  2  1  0
  2  3  1  0
  2  4  1  0
  4  5  2  0
  4  6  1  0
  6  7  1  0
  7  8  1  0
  7  9  1  0
 10  6  1  6
 10 11  1  0
 11 12  1  0
 12 13  1  0
 13 14  1  0
 14 15  1  0
 15 10  1  0
M  END
>  <energy_score>  (61) 
60.191784

>  <inchikey>  (61) 
QLEQENYLQKJYBV-UHFFFAOYSA-N

>  <smiles>  (61) 
CC(C)C(=O)N(C(C)C)[C@@H]1CCCNC1

>  <ref_pdb>  (61) 
A4237b

>  <alias>  (61) 
C2418-P339

>  <HIPPO Pose ID>  (61) 
343349

>  <name>  (61) 
C2418-P339

>  <HIPPO Compound ID>  (61) 
2418

>  <ref_mols>  (61) 
A4237b,A3618a

>  <distance_score>  (61) 
1.528453

>  <inspiration_score>  (61) 
None

$$$$
C15324-P103
     RDKit          3D

 22 25  0  0  0  0  0  0  0  0999 V2000
   19.3399   -7.7782   14.7351 C   0  0  0  0  0  0  0  0  0  0  0  0
   20.4233   -6.9311   14.5732 C   0  0  0  0  0  0  0  0  0  0  0  0
   20.9125   -6.2329   15.6773 C   0  0  0  0  0  0  0  0  0  0  0  0
   20.3237   -6.4025   16.9338 C   0  0  0  0  0  0  0  0  0  0  0  0
   20.8670   -5.6970   18.0318 N   0  0  0  0  0  0  0  0  0  0  0  0
   20.6284   -4.2355   17.9208 C   0  0  0  0  0  0  0  0  0  0  0  0
   20.1104   -3.8053   19.2966 C   0  0  0  0  0  0  0  0  0  0  0  0
   19.4167   -5.0560   19.8363 C   0  0  1  0  0  0  0  0  0  0  0  0
   18.1121   -5.4321   19.2827 N   0  0  0  0  0  0  0  0  0  0  0  0
   17.3367   -4.3615   18.6915 C   0  0  0  0  0  0  0  0  0  0  0  0
   16.0445   -4.8588   18.0793 C   0  0  0  0  0  0  0  0  0  0  0  0
   15.1301   -3.8480   17.7241 C   0  0  0  0  0  0  0  0  0  0  0  0
   13.9196   -4.1384   17.1264 C   0  0  0  0  0  0  0  0  0  0  0  0
   13.5482   -5.4526   16.8891 C   0  0  0  0  0  0  0  0  0  0  0  0
   14.4146   -6.4642   17.2805 C   0  0  0  0  0  0  0  0  0  0  0  0
   14.2820   -7.8232   17.2387 N   0  0  0  0  0  0  0  0  0  0  0  0
   15.3554   -8.4960   17.6762 N   0  0  0  0  0  0  0  0  0  0  0  0
   16.1562   -7.5139   18.1087 C   0  0  0  0  0  0  0  0  0  0  0  0
   15.6519   -6.2098   17.8546 C   0  0  0  0  0  0  0  0  0  0  0  0
   20.4294   -6.1315   19.3766 C   0  0  0  0  0  0  0  0  0  0  0  0
   19.2698   -7.2394   17.0944 N   0  0  0  0  0  0  0  0  0  0  0  0
   18.8012   -7.8925   16.0017 C   0  0  0  0  0  0  0  0  0  0  0  0
  1  2  2  0
  2  3  1  0
  3  4  2  0
  4  5  1  0
  5  6  1  0
  6  7  1  0
  7  8  1  0
  8  9  1  6
  9 10  1  0
 10 11  1  0
 11 12  2  0
 12 13  1  0
 13 14  2  0
 14 15  1  0
 15 16  1  0
 16 17  1  0
 17 18  2  0
 18 19  1  0
  8 20  1  0
  4 21  1  0
 21 22  2  0
 22  1  1  0
 20  5  1  0
 19 11  1  0
 19 15  2  0
M  END
>  <energy_score>  (62) 
-28.656923

>  <inchikey>  (62) 
PFJHDTSUCRPASW-UHFFFAOYSA-N

>  <smiles>  (62) 
c1ccc(N2CC[C@@H](NCc3cccc4[nH]ncc34)C2)nc1

>  <ref_pdb>  (62) 
A1105b

>  <alias>  (62) 
C15324-P103

>  <HIPPO Pose ID>  (62) 
343728

>  <name>  (62) 
C15324-P103

>  <HIPPO Compound ID>  (62) 
15324

>  <ref_mols>  (62) 
A0497a,A1105b

>  <distance_score>  (62) 
1.246398

>  <inspiration_score>  (62) 
None

$$$$
C137292-P58
     RDKit          3D

 25 28  0  0  0  0  0  0  0  0999 V2000
   20.0353   15.2063   14.1345 O   0  0  0  0  0  0  0  0  0  0  0  0
   19.8874   16.2118   13.5152 C   0  0  0  0  0  0  0  0  0  0  0  0
   20.7892   17.3464   13.4105 N   0  0  0  0  0  0  0  0  0  0  0  0
   22.1179   17.6506   14.1418 C   0  0  0  0  0  0  0  0  0  0  0  0
   21.8181   17.7829   16.0275 C   0  0  0  0  0  0  0  0  0  0  0  0
   20.9784   18.8410   16.8578 C   0  0  0  0  0  0  0  0  0  0  0  0
   20.7217   19.2818   18.1885 C   0  0  0  0  0  0  0  0  0  0  0  0
   21.4221   18.6125   19.0751 C   0  0  0  0  0  0  0  0  0  0  0  0
   22.1952   17.5973   18.5526 C   0  0  0  0  0  0  0  0  0  0  0  0
   22.4145   17.1266   17.0269 C   0  0  0  0  0  0  0  0  0  0  0  0
   23.0976   17.3195   19.5747 O   0  0  0  0  0  0  0  0  0  0  0  0
   22.5436   17.9517   20.7358 C   0  0  0  0  0  0  0  0  0  0  0  0
   21.5852   18.9382   20.3702 O   0  0  0  0  0  0  0  0  0  0  0  0
   18.0879   16.2542   12.7427 C   0  0  0  0  0  0  0  0  0  0  0  0
   17.6074   15.3320   11.3122 C   0  0  0  0  0  0  0  0  0  0  0  0
   16.3580   15.0126   10.7909 C   0  0  0  0  0  0  0  0  0  0  0  0
   15.0846   15.8463   11.2473 C   0  0  0  0  0  0  0  0  0  0  0  0
   13.7719   16.3801    9.7177 N   0  0  0  0  0  0  0  0  0  0  0  0
   13.3462   16.7483    7.8918 C   0  0  0  0  0  0  0  0  0  0  0  0
   12.1393   15.8598    7.2942 C   0  0  0  0  0  0  0  0  0  0  0  0
   11.2016   14.7659    8.5476 O   0  0  0  0  0  0  0  0  0  0  0  0
   11.8818   15.9723    9.9116 C   0  0  0  0  0  0  0  0  0  0  0  0
   10.8474   15.7226   10.5139 O   0  0  0  0  0  0  0  0  0  0  0  0
   15.6864   16.3374   13.0873 C   0  0  0  0  0  0  0  0  0  0  0  0
   17.0094   16.4883   13.6421 C   0  0  0  0  0  0  0  0  0  0  0  0
  1  2  2  0
  2  3  1  0
  3  4  1  0
  4  5  1  0
  5  6  2  0
  6  7  1  0
  7  8  2  0
  8  9  1  0
  9 10  2  0
  9 11  1  0
 11 12  1  0
 12 13  1  0
  2 14  1  0
 14 15  2  0
 15 16  1  0
 16 17  2  0
 17 18  1  0
 18 19  1  0
 19 20  1  0
 20 21  1  0
 21 22  1  0
 22 23  2  0
 17 24  1  0
 24 25  2  0
 10  5  1  0
 25 14  1  0
 13  8  1  0
 22 18  1  0
M  END
>  <energy_score>  (63) 
945.074135

>  <inchikey>  (63) 
NHUGBDFSHFJSGQ-UHFFFAOYSA-N

>  <smiles>  (63) 
O=C(NCc1ccc2c(c1)OCO2)c1ccc(N2CCOC2=O)cc1

>  <ref_pdb>  (63) 
A0354a

>  <alias>  (63) 
C137292-P58

>  <HIPPO Pose ID>  (63) 
346274

>  <name>  (63) 
C137292-P58

>  <HIPPO Compound ID>  (63) 
137292

>  <ref_mols>  (63) 
A0351b,A0354a

>  <distance_score>  (63) 
8.894647

>  <inspiration_score>  (63) 
None

$$$$
C16607-P320
     RDKit          3D

 21 23  0  0  0  0  0  0  0  0999 V2000
    8.7133   15.4449   18.1658 C   0  0  0  0  0  0  0  0  0  0  0  0
    8.9524   14.9368   16.9458 N   0  0  0  0  0  0  0  0  0  0  0  0
    7.9384   13.9126   15.8370 C   0  0  0  0  0  0  0  0  0  0  0  0
    6.8935   13.5102   16.2441 O   0  0  0  0  0  0  0  0  0  0  0  0
    8.1299   13.4480   13.9655 C   0  0  0  0  0  0  0  0  0  0  0  0
    7.0104   13.9778   12.5875 C   0  0  0  0  0  0  0  0  0  0  0  0
    7.3606   13.4835   10.9336 C   0  0  0  0  0  0  0  0  0  0  0  0
    6.9100   13.5048    9.0046 C   0  0  0  0  0  0  0  0  0  0  0  0
    6.7053   12.1389    7.8748 C   0  0  0  0  0  0  0  0  0  0  0  0
    6.7030   12.1560    6.3346 C   0  0  0  0  0  0  0  0  0  0  0  0
    6.5332   13.2266    5.5612 N   0  0  0  0  0  0  0  0  0  0  0  0
    6.2574   14.3333    6.2266 C   0  0  0  0  0  0  0  0  0  0  0  0
    6.3559   14.4676    7.6641 C   0  0  0  0  0  0  0  0  0  0  0  0
    8.8430   12.9036   11.5459 O   0  0  0  0  0  0  0  0  0  0  0  0
    9.0480   12.6570   13.1530 N   0  0  0  0  0  0  0  0  0  0  0  0
   10.2651   14.2516   18.1193 C   0  0  2  0  0  0  0  0  0  0  0  0
   10.2245   14.1317   20.0137 C   0  0  0  0  0  0  0  0  0  0  0  0
   11.5766   14.1474   20.7720 C   0  0  0  0  0  0  0  0  0  0  0  0
   12.1175   15.5362   20.8515 C   0  0  0  0  0  0  0  0  0  0  0  0
   11.4350   16.3704   19.4344 S   0  0  0  0  0  0  0  0  0  0  0  0
   11.5402   15.1059   18.1463 C   0  0  0  0  0  0  0  0  0  0  0  0
  1  2  1  0
  2  3  1  0
  3  4  2  0
  3  5  1  0
  5  6  1  0
  6  7  2  0
  7  8  1  0
  8  9  2  0
  9 10  1  0
 10 11  2  0
 11 12  1  0
 12 13  2  0
  7 14  1  0
 14 15  1  0
 16  2  1  1
 16 17  1  0
 17 18  1  0
 18 19  1  0
 19 20  1  0
 20 21  1  0
 15  5  2  0
 21 16  1  0
 13  8  1  0
M  END
>  <energy_score>  (64) 
750.42923

>  <inchikey>  (64) 
RUNKVXXDUUDNFT-UHFFFAOYSA-N

>  <smiles>  (64) 
CN(C(=O)c1cc(-c2ccncc2)on1)[C@@H]1CCCSC1

>  <ref_pdb>  (64) 
A4347a

>  <alias>  (64) 
C16607-P320

>  <HIPPO Pose ID>  (64) 
347245

>  <name>  (64) 
C16607-P320

>  <HIPPO Compound ID>  (64) 
16607

>  <ref_mols>  (64) 
A4347a,A0541a

>  <distance_score>  (64) 
4.969074

>  <inspiration_score>  (64) 
None

$$$$
C25407-P78
     RDKit          3D

 23 24  0  0  0  0  0  0  0  0999 V2000
   26.6506   20.9632   20.7377 C   0  0  0  0  0  0  0  0  0  0  0  0
   26.3451   20.1432   21.9779 C   0  0  0  0  0  0  0  0  0  0  0  0
   24.9344   19.5639   21.9609 C   0  0  0  0  0  0  0  0  0  0  0  0
   24.4473   18.9089   23.5767 S   0  0  0  0  0  0  0  0  0  0  0  0
   25.2586   17.7436   23.8642 O   0  0  0  0  0  0  0  0  0  0  0  0
   24.4154   20.0157   24.5131 O   0  0  0  0  0  0  0  0  0  0  0  0
   22.8393   18.4778   23.2809 N   0  0  0  0  0  0  0  0  0  0  0  0
   22.0259   17.6117   24.1267 C   0  0  0  0  0  0  0  0  0  0  0  0
   22.5059   16.6089   24.9496 C   0  0  0  0  0  0  0  0  0  0  0  0
   21.6159   15.6632   25.5288 C   0  0  0  0  0  0  0  0  0  0  0  0
   20.2265   15.6282   25.2495 C   0  0  0  0  0  0  0  0  0  0  0  0
   19.6930   16.5847   24.4014 C   0  0  0  0  0  0  0  0  0  0  0  0
   18.1245   16.6839   23.4194 C   0  0  0  0  0  0  0  0  0  0  0  0
   18.2853   17.4935   22.4668 O   0  0  0  0  0  0  0  0  0  0  0  0
   16.5271   15.7577   23.9864 N   0  0  0  0  0  0  0  0  0  0  0  0
   15.5320   17.0990   25.6392 C   0  0  0  0  0  0  0  0  0  0  0  0
   14.7082   15.6988   23.0392 C   0  0  0  0  0  0  0  0  0  0  0  0
   13.2061   14.8632   22.7830 C   0  0  0  0  0  0  0  0  0  0  0  0
   12.5605   14.9338   21.5599 N   0  0  0  0  0  0  0  0  0  0  0  0
   11.5329   14.1411   21.7458 C   0  0  0  0  0  0  0  0  0  0  0  0
   11.4320   13.6457   23.0026 O   0  0  0  0  0  0  0  0  0  0  0  0
   12.5257   14.1420   23.7105 N   0  0  0  0  0  0  0  0  0  0  0  0
   20.6311   17.6023   23.9048 C   0  0  0  0  0  0  0  0  0  0  0  0
  1  2  1  0
  2  3  1  0
  3  4  1  0
  4  5  2  0
  4  6  2  0
  4  7  1  0
  7  8  1  0
  8  9  2  0
  9 10  1  0
 10 11  2  0
 11 12  1  0
 12 13  1  0
 13 14  2  0
 13 15  1  0
 15 16  1  0
 15 17  1  0
 17 18  1  0
 18 19  1  0
 19 20  2  0
 20 21  1  0
 21 22  1  0
 12 23  2  0
 23  8  1  0
 22 18  2  0
M  END
>  <energy_score>  (65) 
934.605838

>  <inchikey>  (65) 
JQEXVMZZHTZUOD-UHFFFAOYSA-N

>  <smiles>  (65) 
CCCS(=O)(=O)Nc1cccc(C(=O)N(C)Cc2ncon2)c1

>  <ref_pdb>  (65) 
A0719b

>  <alias>  (65) 
C25407-P78

>  <HIPPO Pose ID>  (65) 
349206

>  <name>  (65) 
C25407-P78

>  <HIPPO Compound ID>  (65) 
25407

>  <ref_mols>  (65) 
A0719b,A1068a

>  <distance_score>  (65) 
6.799282

>  <inspiration_score>  (65) 
None

$$$$
C20719-P151
     RDKit          3D

 23 26  0  0  0  0  0  0  0  0999 V2000
   12.4695   16.7011   27.1788 C   0  0  0  0  0  0  0  0  0  0  0  0
   13.5687   16.7005   28.1304 C   0  0  0  0  0  0  0  0  0  0  0  0
   14.6790   17.7037   28.0945 C   0  0  0  0  0  0  0  0  0  0  0  0
   14.7683   18.7787   27.0481 C   0  0  0  0  0  0  0  0  0  0  0  0
   15.8621   19.7530   27.1199 C   0  0  0  0  0  0  0  0  0  0  0  0
   16.8278   19.6892   28.0198 N   0  0  0  0  0  0  0  0  0  0  0  0
   18.0141   20.1184   27.4794 N   0  0  0  0  0  0  0  0  0  0  0  0
   17.8724   20.5926   26.2548 C   0  0  0  0  0  0  0  0  0  0  0  0
   18.9284   20.6393   25.4025 N   0  0  0  0  0  0  0  0  0  0  0  0
   19.0812   21.4256   24.1928 C   0  0  0  0  0  0  0  0  0  0  0  0
   20.3798   21.0601   23.4465 C   0  0  0  0  0  0  0  0  0  0  0  0
   20.8432   19.7393   23.3558 C   0  0  0  0  0  0  0  0  0  0  0  0
   22.0046   19.4285   22.6362 C   0  0  0  0  0  0  0  0  0  0  0  0
   22.7171   20.4317   21.9618 C   0  0  0  0  0  0  0  0  0  0  0  0
   23.8758   20.1499   21.2233 C   0  0  0  0  0  0  0  0  0  0  0  0
   24.5288   21.1723   20.5440 C   0  0  0  0  0  0  0  0  0  0  0  0
   23.9957   22.4428   20.6253 C   0  0  0  0  0  0  0  0  0  0  0  0
   22.8918   22.7542   21.3444 N   0  0  0  0  0  0  0  0  0  0  0  0
   22.2596   21.7634   22.0026 C   0  0  0  0  0  0  0  0  0  0  0  0
   21.1085   22.0461   22.7456 C   0  0  0  0  0  0  0  0  0  0  0  0
   16.2092   20.9776   25.9509 S   0  0  0  0  0  0  0  0  0  0  0  0
   13.6758   18.8839   25.9826 N   0  0  0  0  0  0  0  0  0  0  0  0
   12.5108   17.7150   26.1257 C   0  0  0  0  0  0  0  0  0  0  0  0
  1  2  2  0
  2  3  1  0
  3  4  2  0
  4  5  1  0
  5  6  2  0
  6  7  1  0
  7  8  2  0
  8  9  1  0
  9 10  1  0
 10 11  1  0
 11 12  2  0
 12 13  1  0
 13 14  2  0
 14 15  1  0
 15 16  2  0
 16 17  1  0
 17 18  2  0
 18 19  1  0
 19 20  2  0
  8 21  1  0
  4 22  1  0
 22 23  2  0
 23  1  1  0
 21  5  1  0
 20 11  1  0
 19 14  1  0
M  END
>  <energy_score>  (66) 
-4.038516

>  <inchikey>  (66) 
ZMWSPLIMPYHVRD-UHFFFAOYSA-N

>  <smiles>  (66) 
c1ccc(-c2nnc(NCc3ccc4cccnc4c3)s2)nc1

>  <ref_pdb>  (66) 
A3194a

>  <alias>  (66) 
C20719-P151

>  <HIPPO Pose ID>  (66) 
352418

>  <name>  (66) 
C20719-P151

>  <HIPPO Compound ID>  (66) 
20719

>  <ref_mols>  (66) 
A0514b,A3194a

>  <distance_score>  (66) 
7.489538

>  <inspiration_score>  (66) 
None

$$$$
C137594-P9
     RDKit          3D

 25 28  0  0  0  0  0  0  0  0999 V2000
   28.5057   23.9076   17.8243 C   0  0  0  0  0  0  0  0  0  0  0  0
   28.3221   22.7483   16.8621 C   0  0  0  0  0  0  0  0  0  0  0  0
   28.6058   23.1821   15.5276 O   0  0  0  0  0  0  0  0  0  0  0  0
   27.5333   23.2293   14.6792 C   0  0  0  0  0  0  0  0  0  0  0  0
   26.2808   23.7204   15.0338 C   0  0  0  0  0  0  0  0  0  0  0  0
   25.2414   23.7524   14.0903 C   0  0  0  0  0  0  0  0  0  0  0  0
   25.4494   23.2571   12.7803 C   0  0  0  0  0  0  0  0  0  0  0  0
   24.4785   23.0873   11.7876 N   0  0  0  0  0  0  0  0  0  0  0  0
   24.9844   22.4689   10.7387 C   0  0  0  0  0  0  0  0  0  0  0  0
   24.2026   22.0088    9.7019 N   0  0  0  0  0  0  0  0  0  0  0  0
   24.5581   21.2747    8.4793 C   0  0  0  0  0  0  0  0  0  0  0  0
   25.6293   20.9615    8.0396 O   0  0  0  0  0  0  0  0  0  0  0  0
   23.2391   20.9293    7.7074 C   0  0  0  0  0  0  0  0  0  0  0  0
   23.2747   20.0158    6.4989 C   0  0  0  0  0  0  0  0  0  0  0  0
   24.1634   19.0184    6.3762 N   0  0  0  0  0  0  0  0  0  0  0  0
   23.9056   18.4091    5.1588 O   0  0  0  0  0  0  0  0  0  0  0  0
   22.8160   18.9779    4.5826 C   0  0  0  0  0  0  0  0  0  0  0  0
   22.2451   18.6120    3.3623 C   0  0  0  0  0  0  0  0  0  0  0  0
   21.0726   19.2801    2.9989 C   0  0  0  0  0  0  0  0  0  0  0  0
   20.5274   20.2679    3.8230 C   0  0  0  0  0  0  0  0  0  0  0  0
   21.1484   20.6314    5.0318 C   0  0  0  0  0  0  0  0  0  0  0  0
   22.3315   19.9703    5.4157 C   0  0  0  0  0  0  0  0  0  0  0  0
   26.6654   22.1909   10.8118 S   0  0  0  0  0  0  0  0  0  0  0  0
   26.7188   22.7856   12.4424 C   0  0  0  0  0  0  0  0  0  0  0  0
   27.7824   22.7987   13.3684 C   0  0  0  0  0  0  0  0  0  0  0  0
  1  2  1  0
  2  3  1  0
  3  4  1  0
  4  5  2  0
  5  6  1  0
  6  7  2  0
  7  8  1  0
  8  9  2  0
  9 10  1  0
 10 11  1  0
 11 12  2  0
 11 13  1  0
 13 14  1  0
 14 15  2  0
 15 16  1  0
 16 17  1  0
 17 18  2  0
 18 19  1  0
 19 20  2  0
 20 21  1  0
 21 22  2  0
  9 23  1  0
 23 24  1  0
 24 25  2  0
 25  4  1  0
 24  7  1  0
 22 14  1  0
 22 17  1  0
M  END
>  <energy_score>  (67) 
-61.336863

>  <inchikey>  (67) 
UWKRUZIYJSJLBR-UHFFFAOYSA-N

>  <smiles>  (67) 
CCOc1ccc2nc(NC(=O)Cc3noc4ccccc34)sc2c1

>  <ref_pdb>  (67) 
A0486a

>  <alias>  (67) 
C137594-P9

>  <HIPPO Pose ID>  (67) 
353637

>  <name>  (67) 
C137594-P9

>  <HIPPO Compound ID>  (67) 
137594

>  <ref_mols>  (67) 
A0514b,A0486a

>  <distance_score>  (67) 
6.708127

>  <inspiration_score>  (67) 
None

$$$$
C13878-P127
     RDKit          3D

 23 25  0  0  0  0  0  0  0  0999 V2000
   10.3797   19.8694   19.8778 C   0  0  0  0  0  0  0  0  0  0  0  0
   11.5168   20.0205   19.0464 O   0  0  0  0  0  0  0  0  0  0  0  0
   12.7530   19.7868   19.6955 C   0  0  0  0  0  0  0  0  0  0  0  0
   13.2904   18.3441   19.5728 C   0  0  0  0  0  0  0  0  0  0  0  0
   12.3511   17.2848   19.9935 N   0  0  0  0  0  0  0  0  0  0  0  0
   11.4519   16.9777   18.8704 C   0  0  0  0  0  0  0  0  0  0  0  0
   10.4149   15.9704   19.3214 C   0  0  0  0  0  0  0  0  0  0  0  0
   11.1194   14.6459   19.5460 C   0  0  0  0  0  0  0  0  0  0  0  0
   12.2155   14.7861   20.5872 C   0  0  2  0  0  0  0  0  0  0  0  0
   11.5103   14.6365   21.8313 N   0  0  0  0  0  0  0  0  0  0  0  0
   11.8777   13.8469   23.1007 C   0  0  0  0  0  0  0  0  0  0  0  0
   12.8464   13.2549   23.3694 O   0  0  0  0  0  0  0  0  0  0  0  0
   10.6374   13.8757   23.9846 C   0  0  0  0  0  0  0  0  0  0  0  0
   10.2368   12.4139   24.1518 C   0  0  2  0  0  0  0  0  0  0  0  0
    9.9940   11.5991   22.9351 N   0  0  0  0  0  0  0  0  0  0  0  0
    9.4323   10.3365   23.4622 C   0  0  0  0  0  0  0  0  0  0  0  0
    8.5908   10.8187   24.6014 C   0  0  0  0  0  0  0  0  0  0  0  0
    7.5402   10.2045   25.2485 C   0  0  0  0  0  0  0  0  0  0  0  0
    6.8798   10.9144   26.2502 C   0  0  0  0  0  0  0  0  0  0  0  0
    7.2854   12.2148   26.5903 C   0  0  0  0  0  0  0  0  0  0  0  0
    8.3734   12.8147   25.9537 C   0  0  0  0  0  0  0  0  0  0  0  0
    9.0238   12.0993   24.9702 C   0  0  0  0  0  0  0  0  0  0  0  0
   13.0898   16.0385   20.3468 C   0  0  0  0  0  0  0  0  0  0  0  0
  1  2  1  0
  2  3  1  0
  3  4  1  0
  4  5  1  0
  5  6  1  0
  6  7  1  0
  7  8  1  0
  8  9  1  0
  9 10  1  1
 10 11  1  0
 11 12  2  0
 11 13  1  0
 14 13  1  6
 14 15  1  0
 15 16  1  0
 16 17  1  0
 17 18  2  0
 18 19  1  0
 19 20  2  0
 20 21  1  0
 21 22  2  0
  9 23  1  0
 23  5  1  0
 22 14  1  0
 22 17  1  0
M  END
>  <energy_score>  (68) 
-19.888261

>  <inchikey>  (68) 
BTDCIWGHHWJMBA-UHFFFAOYSA-N

>  <smiles>  (68) 
COCCN1CCC[C@H](NC(=O)C[C@@H]2NCc3ccccc32)C1

>  <ref_pdb>  (68) 
A2293a

>  <alias>  (68) 
C13878-P127

>  <HIPPO Pose ID>  (68) 
354466

>  <name>  (68) 
C13878-P127

>  <HIPPO Compound ID>  (68) 
13878

>  <ref_mols>  (68) 
A4943b,A2293a

>  <distance_score>  (68) 
1.485176

>  <inspiration_score>  (68) 
None

$$$$
C39011-P115
     RDKit          3D

 19 20  0  0  0  0  0  0  0  0999 V2000
   10.5048   20.9310   29.5378 C   0  0  0  0  0  0  0  0  0  0  0  0
   10.0925   21.5762   28.2427 C   0  0  0  0  0  0  0  0  0  0  0  0
   10.8963   22.4965   27.6620 C   0  0  0  0  0  0  0  0  0  0  0  0
   10.5001   23.2225   26.4869 C   0  0  0  0  0  0  0  0  0  0  0  0
    9.2401   23.1244   26.0616 C   0  0  0  0  0  0  0  0  0  0  0  0
    8.3010   22.2089   26.7651 C   0  0  0  0  0  0  0  0  0  0  0  0
    7.1038   22.3166   26.5218 O   0  0  0  0  0  0  0  0  0  0  0  0
    8.8304   21.2935   27.6949 N   0  0  0  0  0  0  0  0  0  0  0  0
    7.8740   20.2732   28.2460 C   0  0  0  0  0  0  0  0  0  0  0  0
    8.4022   18.8281   28.5031 C   0  0  0  0  0  0  0  0  0  0  0  0
    7.4483   17.6300   28.1584 C   0  0  0  0  0  0  0  0  0  0  0  0
    8.2456   16.2933   28.0400 C   0  0  0  0  0  0  0  0  0  0  0  0
    7.5349   15.0249   27.7954 N   0  0  0  0  0  0  0  0  0  0  0  0
    7.2779   14.6627   26.3939 C   0  0  0  0  0  0  0  0  0  0  0  0
    7.3267   13.1646   26.1622 C   0  0  0  0  0  0  0  0  0  0  0  0
    6.7225   12.0725   26.7635 C   0  0  0  0  0  0  0  0  0  0  0  0
    7.1039   10.8831   26.1770 N   0  0  0  0  0  0  0  0  0  0  0  0
    7.8880   11.2309   25.1844 C   0  0  0  0  0  0  0  0  0  0  0  0
    8.0417   12.5900   25.1253 N   0  0  0  0  0  0  0  0  0  0  0  0
  1  2  1  0
  2  3  2  0
  3  4  1  0
  4  5  2  0
  5  6  1  0
  6  7  2  0
  6  8  1  0
  8  9  1  0
  9 10  1  0
 10 11  1  0
 11 12  1  0
 12 13  1  0
 13 14  1  0
 14 15  1  0
 15 16  2  0
 16 17  1  0
 17 18  2  0
 18 19  1  0
  8  2  1  0
 19 15  1  0
M  END
>  <energy_score>  (69) 
-14.144968

>  <inchikey>  (69) 
RZKQYJBPWHFSAT-UHFFFAOYSA-N

>  <smiles>  (69) 
Cc1cccc(=O)n1CCCCNCc1cnc[nH]1

>  <ref_pdb>  (69) 
A1209a

>  <alias>  (69) 
C39011-P115

>  <HIPPO Pose ID>  (69) 
358167

>  <name>  (69) 
C39011-P115

>  <HIPPO Compound ID>  (69) 
39011

>  <ref_mols>  (69) 
A1209a,A0525a

>  <distance_score>  (69) 
2.693917

>  <inspiration_score>  (69) 
None

$$$$
C20947-P123
     RDKit          3D

 14 14  0  0  0  0  0  0  0  0999 V2000
    9.2592   15.3981   22.7165 C   0  0  0  0  0  0  0  0  0  0  0  0
    9.9698   14.0921   22.5024 C   0  0  0  0  0  0  0  0  0  0  0  0
   11.2782   13.9263   21.6668 C   0  0  1  0  0  0  0  0  0  0  0  0
   12.2587   15.3777   21.5897 Cl  0  0  0  0  0  0  0  0  0  0  0  0
   12.1294   12.7200   22.2523 C   0  0  0  0  0  0  0  0  0  0  0  0
   13.2495   12.7430   22.5517 O   0  0  0  0  0  0  0  0  0  0  0  0
   11.0857   11.6115   22.4014 N   0  0  0  0  0  0  0  0  0  0  0  0
   11.1723   10.3280   23.0368 C   0  0  0  0  0  0  0  0  0  0  0  0
    9.8380   10.3328   23.7514 C   0  0  1  0  0  0  0  0  0  0  0  0
    9.1098    9.0793   24.0915 C   0  0  0  0  0  0  0  0  0  0  0  0
    7.9771    9.6978   24.9192 C   0  0  0  0  0  0  0  0  0  0  0  0
    8.6188   10.8779   25.5972 C   0  0  0  0  0  0  0  0  0  0  0  0
    8.1375   11.5593   26.4804 O   0  0  0  0  0  0  0  0  0  0  0  0
    9.8269   11.0905   24.9708 N   0  0  0  0  0  0  0  0  0  0  0  0
  1  2  1  0
  2  3  1  0
  3  4  1  1
  3  5  1  0
  5  6  2  0
  5  7  1  0
  7  8  1  0
  9  8  1  1
  9 10  1  0
 10 11  1  0
 11 12  1  0
 12 13  2  0
 12 14  1  0
 14  9  1  0
M  END
>  <energy_score>  (70) 
24.310883

>  <inchikey>  (70) 
GNRQJYYHYZHFFM-UHFFFAOYSA-N

>  <smiles>  (70) 
CC[C@@H](Cl)C(=O)NC[C@H]1CCC(=O)N1

>  <ref_pdb>  (70) 
A1776a

>  <alias>  (70) 
C20947-P123

>  <HIPPO Pose ID>  (70) 
370236

>  <name>  (70) 
C20947-P123

>  <HIPPO Compound ID>  (70) 
20947

>  <ref_mols>  (70) 
A1776a,A0528a

>  <distance_score>  (70) 
1.802141

>  <inspiration_score>  (70) 
None

$$$$
C2306-P51
     RDKit          3D

 18 18  0  0  0  0  0  0  0  0999 V2000
   22.4799   13.4245    0.5140 O   0  0  0  0  0  0  0  0  0  0  0  0
   23.2638   13.4914    1.3784 C   0  0  0  0  0  0  0  0  0  0  0  0
   22.9820   14.2354    2.6890 C   0  0  0  0  0  0  0  0  0  0  0  0
   22.3656   15.5451    2.3484 C   0  0  0  0  0  0  0  0  0  0  0  0
   22.8282   16.7451    2.6314 N   0  0  0  0  0  0  0  0  0  0  0  0
   21.9180   17.6232    2.1078 C   0  0  0  0  0  0  0  0  0  0  0  0
   20.8843   16.9526    1.5013 C   0  0  0  0  0  0  0  0  0  0  0  0
   21.1851   15.6308    1.6504 N   0  0  0  0  0  0  0  0  0  0  0  0
   24.7206   12.9774    1.4522 N   0  0  0  0  0  0  0  0  0  0  0  0
   25.5417   12.3634    0.4531 C   0  0  0  0  0  0  0  0  0  0  0  0
   26.9926   12.8248    0.5139 C   0  0  0  0  0  0  0  0  0  0  0  0
   27.8512   12.5022    2.0747 S   0  0  0  0  0  0  0  0  0  0  0  0
   26.7444   12.4183    3.2928 O   0  0  0  0  0  0  0  0  0  0  0  0
   28.5424   10.8815    1.7332 C   0  0  0  0  0  0  0  0  0  0  0  0
   27.5465    9.8481    1.3017 C   0  0  0  0  0  0  0  0  0  0  0  0
   28.0960    8.6066    1.3869 F   0  0  0  0  0  0  0  0  0  0  0  0
   27.1995   10.0097    0.0045 F   0  0  0  0  0  0  0  0  0  0  0  0
   26.4360    9.8191    2.0461 F   0  0  0  0  0  0  0  0  0  0  0  0
  1  2  2  0
  2  3  1  0
  3  4  1  0
  4  5  2  0
  5  6  1  0
  6  7  2  0
  7  8  1  0
  2  9  1  0
  9 10  1  0
 10 11  1  0
 11 12  1  0
 12 13  1  1
 12 14  1  0
 14 15  1  0
 15 16  1  0
 15 17  1  0
 15 18  1  0
  8  4  1  0
M  CHG  2  12   1  13  -1
M  END
>  <energy_score>  (71) 
-10.886528

>  <inchikey>  (71) 
KYJVTOFXJSRGMR-UHFFFAOYSA-N

>  <smiles>  (71) 
O=C(Cc1ncc[nH]1)NCC[S@@+]([O-])CC(F)(F)F

>  <ref_pdb>  (71) 
A0239a

>  <alias>  (71) 
C2306-P51

>  <HIPPO Pose ID>  (71) 
371085

>  <name>  (71) 
C2306-P51

>  <HIPPO Compound ID>  (71) 
2306

>  <ref_mols>  (71) 
A0239a,A0309a

>  <distance_score>  (71) 
1.485068

>  <inspiration_score>  (71) 
None

$$$$
C13648-P2
     RDKit          3D

 21 23  0  0  0  0  0  0  0  0999 V2000
    9.4184   14.4606   21.2282 C   0  0  0  0  0  0  0  0  0  0  0  0
   10.7603   14.9109   20.6393 C   0  0  2  0  0  0  0  0  0  0  0  0
   12.0718   15.5189   21.7621 S   0  0  0  0  0  0  0  0  0  0  0  0
   11.4546   15.0432   23.2738 C   0  0  0  0  0  0  0  0  0  0  0  0
   10.8770   15.8142   24.1560 N   0  0  0  0  0  0  0  0  0  0  0  0
   10.0377   15.0220   24.8777 N   0  0  0  0  0  0  0  0  0  0  0  0
   10.1057   13.8023   24.3784 C   0  0  0  0  0  0  0  0  0  0  0  0
    9.1115   12.7720   24.5595 C   0  0  0  0  0  0  0  0  0  0  0  0
    9.1782   11.5222   23.9559 C   0  0  0  0  0  0  0  0  0  0  0  0
    8.2249   10.5850   24.3033 C   0  0  0  0  0  0  0  0  0  0  0  0
    7.1948   10.8419   25.1322 N   0  0  0  0  0  0  0  0  0  0  0  0
    7.0779   12.0979   25.6009 C   0  0  0  0  0  0  0  0  0  0  0  0
    8.0095   13.0802   25.3564 C   0  0  0  0  0  0  0  0  0  0  0  0
   11.1891   13.7376   23.5399 N   0  0  0  0  0  0  0  0  0  0  0  0
   10.5256   15.9399   19.5719 C   0  0  0  0  0  0  0  0  0  0  0  0
   10.9146   15.7183   18.4271 O   0  0  0  0  0  0  0  0  0  0  0  0
    9.8330   17.1333   19.9900 C   0  0  0  0  0  0  0  0  0  0  0  0
    9.3145   17.5504   21.1876 C   0  0  0  0  0  0  0  0  0  0  0  0
    8.7881   18.8358   20.9776 C   0  0  0  0  0  0  0  0  0  0  0  0
    8.9216   19.1213   19.6619 C   0  0  0  0  0  0  0  0  0  0  0  0
    9.6071   18.1127   19.0815 O   0  0  0  0  0  0  0  0  0  0  0  0
  2  1  1  1
  2  3  1  0
  3  4  1  0
  4  5  2  0
  5  6  1  0
  6  7  2  0
  7  8  1  0
  8  9  2  0
  9 10  1  0
 10 11  2  0
 11 12  1  0
 12 13  2  0
  7 14  1  0
  2 15  1  0
 15 16  2  0
 15 17  1  0
 17 18  2  0
 18 19  1  0
 19 20  2  0
 20 21  1  0
 14  4  1  0
 21 17  1  0
 13  8  1  0
M  END
>  <energy_score>  (72) 
6.615401

>  <inchikey>  (72) 
ZGDJFFVIJGCZTO-UHFFFAOYSA-N

>  <smiles>  (72) 
C[C@H](Sc1nnc(-c2ccncc2)[nH]1)C(=O)c1ccco1

>  <ref_pdb>  (72) 
A4298a

>  <alias>  (72) 
C13648-P2

>  <HIPPO Pose ID>  (72) 
372624

>  <name>  (72) 
C13648-P2

>  <HIPPO Compound ID>  (72) 
13648

>  <ref_mols>  (72) 
A4298a,A1778a

>  <distance_score>  (72) 
1.413899

>  <inspiration_score>  (72) 
None

$$$$
C2404-P278
     RDKit          3D

 21 21  0  0  0  0  0  0  0  0999 V2000
   10.6509   15.6165   18.6394 C   0  0  0  0  0  0  0  0  0  0  0  0
   10.7398   16.2042   20.0098 C   0  0  0  0  0  0  0  0  0  0  0  0
    9.9635   17.4754   20.2411 C   0  0  0  0  0  0  0  0  0  0  0  0
   11.4720   15.5854   20.9530 C   0  0  0  0  0  0  0  0  0  0  0  0
   11.6383   16.0577   22.3553 C   0  0  0  0  0  0  0  0  0  0  0  0
   10.5731   15.5767   23.3450 C   0  0  0  0  0  0  0  0  0  0  0  0
    9.0912   15.8563   22.9910 C   0  0  2  0  0  0  0  0  0  0  0  0
    8.2296   15.9607   24.2579 C   0  0  0  0  0  0  0  0  0  0  0  0
    8.5028   14.9390   21.8827 C   0  0  0  0  0  0  0  0  0  0  0  0
    7.5217   13.8617   22.2658 C   0  0  0  0  0  0  0  0  0  0  0  0
    6.5042   13.6879   21.7818 O   0  0  0  0  0  0  0  0  0  0  0  0
    8.2953   13.1475   23.4713 N   0  0  0  0  0  0  0  0  0  0  0  0
    8.1194   12.0672   24.2561 C   0  0  0  0  0  0  0  0  0  0  0  0
    9.9787   12.2382   24.1422 C   0  0  0  0  0  0  0  0  0  0  0  0
    8.6656   10.5135   23.3427 C   0  0  0  0  0  0  0  0  0  0  0  0
    7.4293   11.8291   24.5310 C   0  0  0  0  0  0  0  0  0  0  0  0
    7.4719   10.5945   25.7252 C   0  0  0  0  0  0  0  0  0  0  0  0
    6.0709   10.2280   26.1971 C   0  0  0  0  0  0  0  0  0  0  0  0
    5.5013   11.3060   26.9851 N   0  0  0  0  0  0  0  0  0  0  0  0
    5.1842   12.4488   26.1472 C   0  0  0  0  0  0  0  0  0  0  0  0
    6.3955   13.0138   25.4339 C   0  0  0  0  0  0  0  0  0  0  0  0
  1  2  1  0
  2  3  1  0
  2  4  2  3
  4  5  1  0
  5  6  1  0
  6  7  1  0
  7  8  1  1
  7  9  1  0
  9 10  1  0
 10 11  2  0
 10 12  1  0
 12 13  1  0
 13 14  1  0
 13 15  1  0
 12 16  1  0
 16 17  1  0
 17 18  1  0
 18 19  1  0
 19 20  1  0
 20 21  1  0
 21 16  1  0
M  END
>  <energy_score>  (73) 
741.158254

>  <inchikey>  (73) 
NEEWPLZUMQNHBI-UHFFFAOYSA-N

>  <smiles>  (73) 
CC(C)=CCC[C@H](C)CC(=O)N(C(C)C)C1CCNCC1

>  <ref_pdb>  (73) 
A4035a

>  <alias>  (73) 
C2404-P278

>  <HIPPO Pose ID>  (73) 
375423

>  <name>  (73) 
C2404-P278

>  <HIPPO Compound ID>  (73) 
2404

>  <ref_mols>  (73) 
A1775a,A4035a

>  <distance_score>  (73) 
1.411256

>  <inspiration_score>  (73) 
None

$$$$
C4560-P564
     RDKit          3D

 22 23  0  0  0  0  0  0  0  0999 V2000
   11.2138   14.5549   25.9694 C   0  0  0  0  0  0  0  0  0  0  0  0
   11.5753   15.2575   24.7998 O   0  0  0  0  0  0  0  0  0  0  0  0
   12.2100   14.4175   23.8247 C   0  0  0  0  0  0  0  0  0  0  0  0
   11.2224   13.5965   23.0033 C   0  0  0  0  0  0  0  0  0  0  0  0
   10.0624   14.3841   22.6352 N   0  0  0  0  0  0  0  0  0  0  0  0
   10.2567   15.4821   21.8083 C   0  0  0  0  0  0  0  0  0  0  0  0
    9.2722   16.3583   21.5811 C   0  0  0  0  0  0  0  0  0  0  0  0
    9.4572   17.4296   20.5512 C   0  0  0  0  0  0  0  0  0  0  0  0
   10.1438   17.1330   19.6100 O   0  0  0  0  0  0  0  0  0  0  0  0
    8.6987   18.6051   20.8090 N   0  0  0  0  0  0  0  0  0  0  0  0
    8.4249   19.7730   19.9587 C   0  0  0  0  0  0  0  0  0  0  0  0
    9.7115   19.8367   21.7186 C   0  0  0  0  0  0  0  0  0  0  0  0
   10.5457   21.1104   23.2515 C   0  0  0  0  0  0  0  0  0  0  0  0
    9.3529   22.5962   23.6973 C   0  0  0  0  0  0  0  0  0  0  0  0
    9.9117   23.9149   24.2565 C   0  0  0  0  0  0  0  0  0  0  0  0
   10.8845   24.5192   23.3723 N   0  0  0  0  0  0  0  0  0  0  0  0
   12.0761   23.6999   23.3032 C   0  0  0  0  0  0  0  0  0  0  0  0
   11.9465   22.2552   23.8526 C   0  0  0  0  0  0  0  0  0  0  0  0
    7.9347   16.0098   22.0432 C   0  0  0  0  0  0  0  0  0  0  0  0
    7.7077   14.9502   22.8267 C   0  0  0  0  0  0  0  0  0  0  0  0
    8.8430   14.0981   23.2416 C   0  0  0  0  0  0  0  0  0  0  0  0
    8.6499   13.2082   24.0678 O   0  0  0  0  0  0  0  0  0  0  0  0
  1  2  1  0
  2  3  1  0
  3  4  1  0
  4  5  1  0
  5  6  1  0
  6  7  2  0
  7  8  1  0
  8  9  2  0
  8 10  1  0
 10 11  1  0
 10 12  1  0
 12 13  1  0
 13 14  1  0
 14 15  1  0
 15 16  1  0
 16 17  1  0
 17 18  1  0
  7 19  1  0
 19 20  2  0
 20 21  1  0
 21 22  2  0
 21  5  1  0
 18 13  1  0
M  END
>  <energy_score>  (74) 
425.330165

>  <inchikey>  (74) 
CCDRIDRXUUDMTF-UHFFFAOYSA-N

>  <smiles>  (74) 
COCCn1cc(C(=O)N(C)CC2CCNCC2)ccc1=O

>  <ref_pdb>  (74) 
A5091a

>  <alias>  (74) 
C4560-P564

>  <HIPPO Pose ID>  (74) 
377032

>  <name>  (74) 
C4560-P564

>  <HIPPO Compound ID>  (74) 
4560

>  <ref_mols>  (74) 
A0525a,A5091a

>  <distance_score>  (74) 
2.356188

>  <inspiration_score>  (74) 
None

$$$$
C17161-P103
     RDKit          3D

 22 25  0  0  0  0  0  0  0  0999 V2000
   19.6904   -2.4128   27.3573 C   0  0  0  0  0  0  0  0  0  0  0  0
   19.5100   -2.1380   25.9153 C   0  0  0  0  0  0  0  0  0  0  0  0
   19.4226   -3.0304   24.8780 C   0  0  0  0  0  0  0  0  0  0  0  0
   19.3320   -2.2675   23.7612 N   0  0  0  0  0  0  0  0  0  0  0  0
   19.3041   -2.7754   22.5390 N   0  0  0  0  0  0  0  0  0  0  0  0
   19.2479   -1.9094   21.5671 C   0  0  0  0  0  0  0  0  0  0  0  0
   19.3002   -2.4764   20.2873 N   0  0  0  0  0  0  0  0  0  0  0  0
   19.6914   -3.9079   20.1594 C   0  0  0  0  0  0  0  0  0  0  0  0
   18.4884   -4.7460   19.7354 C   0  0  0  0  0  0  0  0  0  0  0  0
   18.0942   -4.3848   18.2948 C   0  0  0  0  0  0  0  0  0  0  0  0
   16.6767   -4.8132   17.9613 C   0  0  0  0  0  0  0  0  0  0  0  0
   15.5714   -3.9562   17.9752 C   0  0  0  0  0  0  0  0  0  0  0  0
   14.3093   -4.4356   17.6282 C   0  0  0  0  0  0  0  0  0  0  0  0
   14.1828   -5.7716   17.2946 C   0  0  0  0  0  0  0  0  0  0  0  0
   15.2162   -6.6379   17.2611 N   0  0  0  0  0  0  0  0  0  0  0  0
   16.4284   -6.1405   17.5994 C   0  0  0  0  0  0  0  0  0  0  0  0
   18.4470   -2.9140   17.9988 C   0  0  0  0  0  0  0  0  0  0  0  0
   18.3788   -2.0192   19.2434 C   0  0  0  0  0  0  0  0  0  0  0  0
   19.1557   -0.4274   21.8413 C   0  0  0  0  0  0  0  0  0  0  0  0
   19.2152    0.0011   23.1128 C   0  0  0  0  0  0  0  0  0  0  0  0
   19.3360   -0.9508   24.1430 C   0  0  0  0  0  0  0  0  0  0  0  0
   19.4242   -0.8455   25.4518 N   0  0  0  0  0  0  0  0  0  0  0  0
  1  2  1  0
  2  3  2  0
  3  4  1  0
  4  5  1  0
  5  6  2  0
  6  7  1  0
  7  8  1  0
  8  9  1  0
  9 10  1  0
 10 11  1  0
 11 12  2  0
 12 13  1  0
 13 14  2  0
 14 15  1  0
 15 16  2  0
 10 17  1  0
 17 18  1  0
  6 19  1  0
 19 20  2  0
 20 21  1  0
 21 22  2  0
 22  2  1  0
 21  4  1  0
 18  7  1  0
 16 11  1  0
M  END
>  <energy_score>  (75) 
-25.278178

>  <inchikey>  (75) 
KMVAZVAKGLYPSW-UHFFFAOYSA-N

>  <smiles>  (75) 
Cc1cn2nc(N3CCC(c4cccnc4)CC3)ccc2n1

>  <ref_pdb>  (75) 
A1105b

>  <alias>  (75) 
C17161-P103

>  <HIPPO Pose ID>  (75) 
377140

>  <name>  (75) 
C17161-P103

>  <HIPPO Compound ID>  (75) 
17161

>  <ref_mols>  (75) 
A0202a,A1105b

>  <distance_score>  (75) 
2.274586

>  <inspiration_score>  (75) 
None

$$$$
C13635-P338
     RDKit          3D

 19 20  0  0  0  0  0  0  0  0999 V2000
   10.1555   10.0289   24.4637 C   0  0  0  0  0  0  0  0  0  0  0  0
    9.9799   11.3474   23.9625 O   0  0  0  0  0  0  0  0  0  0  0  0
   10.5976   12.3726   24.7436 C   0  0  0  0  0  0  0  0  0  0  0  0
   10.4914   13.7960   24.0855 C   0  0  1  0  0  0  0  0  0  0  0  0
   10.9554   13.7003   22.6404 C   0  0  0  0  0  0  0  0  0  0  0  0
   10.4682   14.9915   22.1115 C   0  0  0  0  0  0  0  0  0  0  0  0
    9.8145   15.5070   23.3653 C   0  0  0  0  0  0  0  0  0  0  0  0
    9.0936   14.4821   24.2001 N   0  0  0  0  0  0  0  0  0  0  0  0
    7.9643   13.5093   23.8318 C   0  0  0  0  0  0  0  0  0  0  0  0
    7.4577   13.2870   22.7882 O   0  0  0  0  0  0  0  0  0  0  0  0
    7.4979   12.9002   25.1679 C   0  0  2  0  0  0  0  0  0  0  0  0
    7.2056   11.4144   25.0595 C   0  0  0  0  0  0  0  0  0  0  0  0
    5.9789   13.7265   25.7554 S   0  0  0  0  0  0  0  0  0  0  0  0
    6.5507   15.3806   26.0223 C   0  0  0  0  0  0  0  0  0  0  0  0
    7.3124   15.7019   27.1398 C   0  0  0  0  0  0  0  0  0  0  0  0
    7.5763   17.0434   27.4030 C   0  0  0  0  0  0  0  0  0  0  0  0
    7.0700   18.0135   26.5463 C   0  0  0  0  0  0  0  0  0  0  0  0
    6.3476   17.6029   25.4393 C   0  0  0  0  0  0  0  0  0  0  0  0
    6.0770   16.3105   25.1696 N   0  0  0  0  0  0  0  0  0  0  0  0
  1  2  1  0
  2  3  1  0
  4  3  1  6
  4  5  1  0
  5  6  1  0
  6  7  1  0
  7  8  1  0
  8  9  1  0
  9 10  2  0
  9 11  1  0
 11 12  1  6
 11 13  1  0
 13 14  1  0
 14 15  2  0
 15 16  1  0
 16 17  2  0
 17 18  1  0
 18 19  2  0
  8  4  1  0
 19 14  1  0
M  END
>  <energy_score>  (76) 
38.889167

>  <inchikey>  (76) 
YRRZSBUQABVFIZ-UHFFFAOYSA-N

>  <smiles>  (76) 
COC[C@H]1CCCN1C(=O)[C@H](C)Sc1ccccn1

>  <ref_pdb>  (76) 
A4237a

>  <alias>  (76) 
C13635-P338

>  <HIPPO Pose ID>  (76) 
378090

>  <name>  (76) 
C13635-P338

>  <HIPPO Compound ID>  (76) 
13635

>  <ref_mols>  (76) 
A4237a,A1778a

>  <distance_score>  (76) 
1.564439

>  <inspiration_score>  (76) 
None

$$$$
C31914-P338
     RDKit          3D

 21 22  0  0  0  0  0  0  0  0999 V2000
    6.0274   13.4039   23.7140 C   0  0  0  0  0  0  0  0  0  0  0  0
    6.9084   14.6029   23.9172 C   0  0  2  0  0  0  0  0  0  0  0  0
    5.8781   16.0828   23.9593 S   0  0  0  0  0  0  0  0  0  0  0  0
    6.3017   16.6707   25.5738 C   0  0  0  0  0  0  0  0  0  0  0  0
    6.3625   15.8755   26.7154 C   0  0  0  0  0  0  0  0  0  0  0  0
    6.6972   16.4643   27.9323 C   0  0  0  0  0  0  0  0  0  0  0  0
    6.9021   17.8342   27.9857 C   0  0  0  0  0  0  0  0  0  0  0  0
    6.7821   18.5517   26.8140 C   0  0  0  0  0  0  0  0  0  0  0  0
    6.5316   17.9902   25.6216 N   0  0  0  0  0  0  0  0  0  0  0  0
    7.9736   14.6590   22.8297 C   0  0  0  0  0  0  0  0  0  0  0  0
    7.8176   14.2077   21.7514 O   0  0  0  0  0  0  0  0  0  0  0  0
    9.1475   15.4441   23.4117 N   0  0  0  0  0  0  0  0  0  0  0  0
   10.3979   15.9587   22.7591 C   0  0  0  0  0  0  0  0  0  0  0  0
   11.1791   14.8869   22.0333 C   0  0  0  0  0  0  0  0  0  0  0  0
   10.9879   13.7645   22.9923 C   0  0  0  0  0  0  0  0  0  0  0  0
   10.1940   14.4954   24.0597 C   0  0  2  0  0  0  0  0  0  0  0  0
    9.6112   13.4986   25.1304 C   0  0  0  0  0  0  0  0  0  0  0  0
    8.7459   12.4924   24.6031 O   0  0  0  0  0  0  0  0  0  0  0  0
    8.1254   11.7071   25.6129 C   0  0  0  0  0  0  0  0  0  0  0  0
    7.2924   10.8081   25.0420 F   0  0  0  0  0  0  0  0  0  0  0  0
    7.3641   12.5048   26.4033 F   0  0  0  0  0  0  0  0  0  0  0  0
  2  1  1  6
  2  3  1  0
  3  4  1  0
  4  5  2  0
  5  6  1  0
  6  7  2  0
  7  8  1  0
  8  9  2  0
  2 10  1  0
 10 11  2  0
 10 12  1  0
 12 13  1  0
 13 14  1  0
 14 15  1  0
 15 16  1  0
 16 17  1  1
 17 18  1  0
 18 19  1  0
 19 20  1  0
 19 21  1  0
  9  4  1  0
 16 12  1  0
M  END
>  <energy_score>  (77) 
48.390176

>  <inchikey>  (77) 
YDNDNJIBNVJFRQ-UHFFFAOYSA-N

>  <smiles>  (77) 
C[C@H](Sc1ccccn1)C(=O)N1CCC[C@@H]1COC(F)F

>  <ref_pdb>  (77) 
A4237a

>  <alias>  (77) 
C31914-P338

>  <HIPPO Pose ID>  (77) 
378091

>  <name>  (77) 
C31914-P338

>  <HIPPO Compound ID>  (77) 
31914

>  <ref_mols>  (77) 
A4237a,A1778a

>  <distance_score>  (77) 
1.756571

>  <inspiration_score>  (77) 
None

$$$$
C29365-P115
     RDKit          3D

 21 23  0  0  0  0  0  0  0  0999 V2000
   18.4370   18.2206   24.6747 O   0  0  0  0  0  0  0  0  0  0  0  0
   18.5702   17.3224   23.8236 C   0  0  0  0  0  0  0  0  0  0  0  0
   17.5088   15.9014   23.5095 N   0  0  0  0  0  0  0  0  0  0  0  0
   15.7565   15.3925   24.3025 C   0  0  0  0  0  0  0  0  0  0  0  0
   14.1749   14.1604   23.9839 C   0  0  1  0  0  0  0  0  0  0  0  0
   12.8294   13.5907   24.8723 C   0  0  0  0  0  0  0  0  0  0  0  0
   12.1440   13.2216   23.5692 C   0  0  1  0  0  0  0  0  0  0  0  0
   10.6694   13.1897   23.6593 N   0  0  0  0  0  0  0  0  0  0  0  0
    9.9122   12.2109   23.0837 C   0  0  0  0  0  0  0  0  0  0  0  0
    8.6716   12.2894   23.5062 N   0  0  0  0  0  0  0  0  0  0  0  0
    8.7232   13.3266   24.3881 C   0  0  0  0  0  0  0  0  0  0  0  0
    9.9288   13.8851   24.5530 N   0  0  0  0  0  0  0  0  0  0  0  0
   12.8212   14.4077   22.8888 C   0  0  0  0  0  0  0  0  0  0  0  0
   19.7770   17.6470   22.9077 C   0  0  0  0  0  0  0  0  0  0  0  0
   19.4145   18.2861   21.7722 F   0  0  0  0  0  0  0  0  0  0  0  0
   21.0581   17.6577   23.3247 C   0  0  0  0  0  0  0  0  0  0  0  0
   22.1184   18.2215   22.5637 C   0  0  0  0  0  0  0  0  0  0  0  0
   22.2554   19.2073   21.6047 C   0  0  0  0  0  0  0  0  0  0  0  0
   23.5703   19.3766   21.2387 N   0  0  0  0  0  0  0  0  0  0  0  0
   24.2376   18.5056   21.9576 C   0  0  0  0  0  0  0  0  0  0  0  0
   23.4024   17.7593   22.7411 N   0  0  0  0  0  0  0  0  0  0  0  0
  1  2  2  0
  2  3  1  0
  3  4  1  0
  5  4  1  1
  5  6  1  0
  6  7  1  0
  7  8  1  1
  8  9  1  0
  9 10  2  0
 10 11  1  0
 11 12  2  0
  7 13  1  0
  2 14  1  0
 14 15  1  0
 14 16  2  3
 16 17  1  0
 17 18  2  0
 18 19  1  0
 19 20  2  0
 20 21  1  0
 13  5  1  0
 21 17  1  0
 12  8  1  0
M  END
>  <energy_score>  (78) 
403.734396

>  <inchikey>  (78) 
XJTNTRWXFQVTIG-UHFFFAOYSA-N

>  <smiles>  (78) 
O=C(NC[C@H]1C[C@@H](n2cncn2)C1)C(F)=Cc1cnc[nH]1

>  <ref_pdb>  (78) 
A1209a

>  <alias>  (78) 
C29365-P115

>  <HIPPO Pose ID>  (78) 
382349

>  <name>  (78) 
C29365-P115

>  <HIPPO Compound ID>  (78) 
29365

>  <ref_mols>  (78) 
A1209a,A1146a

>  <distance_score>  (78) 
4.582949

>  <inspiration_score>  (78) 
None

$$$$
C23517-P115
     RDKit          3D

 21 24  0  0  0  0  0  0  0  0999 V2000
   15.3697    4.0699   22.8425 O   0  0  0  0  0  0  0  0  0  0  0  0
   14.6592    3.2954   23.4290 C   0  0  0  0  0  0  0  0  0  0  0  0
   12.8712    3.3360   23.4501 N   0  0  0  0  0  0  0  0  0  0  0  0
   11.5881    4.6746   22.6794 C   0  0  2  0  0  0  0  0  0  0  0  0
   11.4408    6.6364   23.4274 C   0  0  0  0  0  0  0  0  0  0  0  0
    9.9902    6.7694   23.4474 C   0  0  1  0  0  0  0  0  0  0  0  0
    9.3165    8.1323   23.0838 N   0  0  0  0  0  0  0  0  0  0  0  0
    8.6029    8.8333   24.0687 C   0  0  0  0  0  0  0  0  0  0  0  0
    8.7925   10.1713   23.8718 C   0  0  0  0  0  0  0  0  0  0  0  0
    9.5845   10.3585   22.7976 N   0  0  0  0  0  0  0  0  0  0  0  0
    9.8696    9.1477   22.3535 C   0  0  0  0  0  0  0  0  0  0  0  0
    9.8200    5.0908   23.0593 C   0  0  0  0  0  0  0  0  0  0  0  0
   15.4859    2.3906   24.2234 C   0  0  0  0  0  0  0  0  0  0  0  0
   16.1969    3.0543   25.2900 C   0  0  0  0  0  0  0  0  0  0  0  0
   17.1662    2.2898   25.9123 N   0  0  0  0  0  0  0  0  0  0  0  0
   17.4325    1.3842   25.0146 C   0  0  0  0  0  0  0  0  0  0  0  0
   18.3928    0.4100   25.0495 N   0  0  0  0  0  0  0  0  0  0  0  0
   18.8850    0.1031   23.8916 C   0  0  0  0  0  0  0  0  0  0  0  0
   18.4918    0.7083   22.5996 C   0  0  0  0  0  0  0  0  0  0  0  0
   17.3987    1.4822   22.6549 C   0  0  0  0  0  0  0  0  0  0  0  0
   16.7096    1.6941   23.8491 N   0  0  0  0  0  0  0  0  0  0  0  0
  1  2  2  0
  2  3  1  0
  4  3  1  1
  4  5  1  0
  5  6  1  0
  6  7  1  6
  7  8  1  0
  8  9  2  0
  9 10  1  0
 10 11  2  0
  6 12  1  0
  2 13  1  0
 13 14  2  0
 14 15  1  0
 15 16  2  0
 16 17  1  0
 17 18  2  0
 18 19  1  0
 19 20  2  0
 20 21  1  0
 12  4  1  0
 21 13  1  0
 11  7  1  0
 21 16  1  0
M  END
>  <energy_score>  (79) 
365.189604

>  <inchikey>  (79) 
CNDLWXGSQIOVNT-UHFFFAOYSA-N

>  <smiles>  (79) 
O=C(N[C@H]1C[C@H](n2ccnc2)C1)c1cnc2ncccn12

>  <ref_pdb>  (79) 
A1209a

>  <alias>  (79) 
C23517-P115

>  <HIPPO Pose ID>  (79) 
383972

>  <name>  (79) 
C23517-P115

>  <HIPPO Compound ID>  (79) 
23517

>  <ref_mols>  (79) 
A1209a,A0202a

>  <distance_score>  (79) 
4.443185

>  <inspiration_score>  (79) 
None

$$$$
C37776-P273
     RDKit          3D

 21 23  0  0  0  0  0  0  0  0999 V2000
   10.7141   13.7858   23.9173 O   0  0  0  0  0  0  0  0  0  0  0  0
   11.0521   14.4043   22.9164 C   0  0  0  0  0  0  0  0  0  0  0  0
   10.6987   15.8485   22.6809 C   0  0  0  0  0  0  0  0  0  0  0  0
    9.8616   15.9461   21.3774 C   0  0  2  0  0  0  0  0  0  0  0  0
    8.6696   15.0283   21.6783 C   0  0  0  0  0  0  0  0  0  0  0  0
    8.5336   13.9744   21.1929 O   0  0  0  0  0  0  0  0  0  0  0  0
    7.8325   15.7486   22.7756 N   0  0  0  0  0  0  0  0  0  0  0  0
    6.7685   15.2993   23.5278 C   0  0  0  0  0  0  0  0  0  0  0  0
    6.0072   16.1484   24.3176 C   0  0  0  0  0  0  0  0  0  0  0  0
    5.3076   15.6162   25.4065 C   0  0  0  0  0  0  0  0  0  0  0  0
    5.4610   14.2653   25.7571 C   0  0  0  0  0  0  0  0  0  0  0  0
    6.2739   13.4328   24.9834 C   0  0  0  0  0  0  0  0  0  0  0  0
    6.6559   12.0858   25.3477 C   0  0  0  0  0  0  0  0  0  0  0  0
    5.9754   11.2052   26.1519 C   0  0  0  0  0  0  0  0  0  0  0  0
    6.5848   10.0059   25.9179 N   0  0  0  0  0  0  0  0  0  0  0  0
    7.6663   10.2186   25.1160 C   0  0  0  0  0  0  0  0  0  0  0  0
    7.7676   11.4798   24.8045 N   0  0  0  0  0  0  0  0  0  0  0  0
    6.8298   13.9405   23.8157 C   0  0  0  0  0  0  0  0  0  0  0  0
   10.7288   15.4301   20.2147 C   0  0  0  0  0  0  0  0  0  0  0  0
   11.9766   14.6715   20.6835 C   0  0  0  0  0  0  0  0  0  0  0  0
   11.7382   13.8699   21.8634 N   0  0  0  0  0  0  0  0  0  0  0  0
  1  2  2  0
  2  3  1  0
  3  4  1  0
  4  5  1  1
  5  6  2  0
  5  7  1  0
  7  8  1  0
  8  9  2  0
  9 10  1  0
 10 11  2  0
 11 12  1  0
 12 13  1  0
 13 14  2  0
 14 15  1  0
 15 16  1  0
 16 17  2  0
 12 18  2  0
  4 19  1  0
 19 20  1  0
 20 21  1  0
 21  2  1  0
 18  8  1  0
 17 13  1  0
M  END
>  <energy_score>  (80) 
16.32159

>  <inchikey>  (80) 
KFHTYXCZSCRHJZ-UHFFFAOYSA-N

>  <smiles>  (80) 
O=C1C[C@H](C(=O)Nc2cccc(-c3c[nH]cn3)c2)CCN1

>  <ref_pdb>  (80) 
A4029a

>  <alias>  (80) 
C37776-P273

>  <HIPPO Pose ID>  (80) 
385263

>  <name>  (80) 
C37776-P273

>  <HIPPO Compound ID>  (80) 
37776

>  <ref_mols>  (80) 
A4029a,A1209a

>  <distance_score>  (80) 
2.360952

>  <inspiration_score>  (80) 
None

$$$$
C34425-P31
     RDKit          3D

 24 26  0  0  0  0  0  0  0  0999 V2000
    8.2570   12.4238   -1.9695 C   0  0  0  0  0  0  0  0  0  0  0  0
    7.8451   12.1318   -0.5282 C   0  0  1  0  0  0  0  0  0  0  0  0
    8.1944   10.7015   -0.1197 C   0  0  0  0  0  0  0  0  0  0  0  0
    7.5536   10.3896    1.2265 C   0  0  0  0  0  0  0  0  0  0  0  0
    7.6274   11.5418    2.1952 C   0  0  0  0  0  0  0  0  0  0  0  0
    7.2224   11.3181    3.5208 C   0  0  0  0  0  0  0  0  0  0  0  0
    7.2392   12.3487    4.4557 C   0  0  0  0  0  0  0  0  0  0  0  0
    7.6561   13.6159    4.0725 C   0  0  0  0  0  0  0  0  0  0  0  0
    8.0503   13.8484    2.7517 C   0  0  0  0  0  0  0  0  0  0  0  0
    8.0414   12.8247    1.7888 C   0  0  0  0  0  0  0  0  0  0  0  0
    8.3904   13.0934    0.4508 N   0  0  0  0  0  0  0  0  0  0  0  0
    9.6972   13.7391    0.2437 C   0  0  0  0  0  0  0  0  0  0  0  0
   10.8828   12.7706    0.3490 C   0  0  0  0  0  0  0  0  0  0  0  0
   12.1451   13.4615    0.2761 N   0  0  0  0  0  0  0  0  0  0  0  0
   12.8303   14.4158    1.2880 C   0  0  0  0  0  0  0  0  0  0  0  0
   12.4432   14.8491    2.3013 O   0  0  0  0  0  0  0  0  0  0  0  0
   14.1628   14.8056    0.6377 C   0  0  0  0  0  0  0  0  0  0  0  0
   14.9317   13.6955    0.2011 O   0  0  0  0  0  0  0  0  0  0  0  0
   15.7272   13.0480    1.2024 C   0  0  0  0  0  0  0  0  0  0  0  0
   16.6658   14.0052    1.9437 C   0  0  0  0  0  0  0  0  0  0  0  0
   17.6672   13.2468    2.7940 C   0  0  0  0  0  0  0  0  0  0  0  0
   18.4093   12.3213    2.0090 O   0  0  0  0  0  0  0  0  0  0  0  0
   17.5748   11.3409    1.3904 C   0  0  0  0  0  0  0  0  0  0  0  0
   16.5522   11.9850    0.4727 C   0  0  0  0  0  0  0  0  0  0  0  0
  2  1  1  6
  2  3  1  0
  3  4  1  0
  4  5  1  0
  5  6  2  0
  6  7  1  0
  7  8  2  0
  8  9  1  0
  9 10  2  0
 10 11  1  0
 11 12  1  0
 12 13  1  0
 13 14  1  0
 14 15  1  0
 15 16  2  0
 15 17  1  0
 17 18  1  0
 18 19  1  0
 19 20  1  0
 20 21  1  0
 21 22  1  0
 22 23  1  0
 23 24  1  0
 11  2  1  0
 24 19  1  0
 10  5  1  0
M  END
>  <energy_score>  (81) 
-26.621136

>  <inchikey>  (81) 
DKGPPHBODADFID-UHFFFAOYSA-N

>  <smiles>  (81) 
C[C@H]1CCc2ccccc2N1CCNC(=O)COC1CCOCC1

>  <ref_pdb>  (81) 
A0586a

>  <alias>  (81) 
C34425-P31

>  <HIPPO Pose ID>  (81) 
386422

>  <name>  (81) 
C34425-P31

>  <HIPPO Compound ID>  (81) 
34425

>  <ref_mols>  (81) 
A0608a,A0586a

>  <distance_score>  (81) 
0.621048

>  <inspiration_score>  (81) 
None

$$$$
C2081-P363
     RDKit          3D

 22 24  0  0  0  0  0  0  0  0999 V2000
    8.2257   10.8762   25.2266 C   0  0  0  0  0  0  0  0  0  0  0  0
    9.4299   10.4238   24.4240 C   0  0  0  0  0  0  0  0  0  0  0  0
    9.7883   11.4280   23.4679 O   0  0  0  0  0  0  0  0  0  0  0  0
   10.5239   12.4800   23.9173 C   0  0  0  0  0  0  0  0  0  0  0  0
   10.9026   12.5943   25.0420 O   0  0  0  0  0  0  0  0  0  0  0  0
   10.6480   13.3349   22.8168 N   0  0  0  0  0  0  0  0  0  0  0  0
   11.1895   14.6740   22.7069 C   0  0  1  0  0  0  0  0  0  0  0  0
   11.7025   14.9407   21.3053 C   0  0  0  0  0  0  0  0  0  0  0  0
   10.5167   15.1896   20.4023 C   0  0  0  0  0  0  0  0  0  0  0  0
    9.4575   16.0084   21.1304 C   0  0  0  0  0  0  0  0  0  0  0  0
    8.7421   15.3832   22.2969 N   0  0  0  0  0  0  0  0  0  0  0  0
    7.6496   15.8542   23.0742 C   0  0  0  0  0  0  0  0  0  0  0  0
    7.0771   16.9075   23.0569 O   0  0  0  0  0  0  0  0  0  0  0  0
    7.2315   14.8804   24.0912 C   0  0  0  0  0  0  0  0  0  0  0  0
    6.0668   14.1209   24.0426 C   0  0  0  0  0  0  0  0  0  0  0  0
    5.9311   13.6742   25.3009 N   0  0  0  0  0  0  0  0  0  0  0  0
    6.9425   14.1528   26.0724 C   0  0  0  0  0  0  0  0  0  0  0  0
    7.8104   14.8267   25.3695 N   0  0  0  0  0  0  0  0  0  0  0  0
    6.6975   13.8770   27.4981 C   0  0  0  0  0  0  0  0  0  0  0  0
    5.1834   13.5545   27.4928 C   0  0  0  0  0  0  0  0  0  0  0  0
    4.8805   13.0498   26.0719 C   0  0  0  0  0  0  0  0  0  0  0  0
   10.0698   15.7046   23.0000 C   0  0  0  0  0  0  0  0  0  0  0  0
  1  2  1  0
  2  3  1  0
  3  4  1  0
  4  5  2  0
  4  6  1  0
  7  6  1  6
  7  8  1  0
  8  9  1  0
  9 10  1  0
 10 11  1  0
 11 12  1  0
 12 13  2  0
 12 14  1  0
 14 15  2  0
 15 16  1  0
 16 17  1  0
 17 18  2  0
 17 19  1  0
 19 20  1  0
 20 21  1  0
 11 22  1  0
 22  7  1  0
 18 14  1  0
 21 16  1  0
M  END
>  <energy_score>  (82) 
37.257814

>  <inchikey>  (82) 
HCXMHOHZOVADID-UHFFFAOYSA-N

>  <smiles>  (82) 
CCOC(=O)N[C@H]1CCCN(C(=O)c2cn3c(n2)CCC3)C1

>  <ref_pdb>  (82) 
A4445a

>  <alias>  (82) 
C2081-P363

>  <HIPPO Pose ID>  (82) 
388144

>  <name>  (82) 
C2081-P363

>  <HIPPO Compound ID>  (82) 
2081

>  <ref_mols>  (82) 
A4445a,A3371a

>  <distance_score>  (82) 
2.418891

>  <inspiration_score>  (82) 
None

$$$$
C12016-P161
     RDKit          3D

 23 25  0  0  0  0  0  0  0  0999 V2000
   11.6097   14.9369   20.0836 C   0  0  0  0  0  0  0  0  0  0  0  0
   11.4647   14.9110   21.5990 C   0  0  2  0  0  0  0  0  0  0  0  0
   11.7289   13.5165   22.2799 C   0  0  0  0  0  0  0  0  0  0  0  0
   12.1937   13.5177   23.7317 C   0  0  0  0  0  0  0  0  0  0  0  0
   11.8296   14.4876   24.6317 C   0  0  0  0  0  0  0  0  0  0  0  0
   12.4214   14.5068   25.8882 C   0  0  0  0  0  0  0  0  0  0  0  0
   13.4317   13.6116   26.2092 C   0  0  0  0  0  0  0  0  0  0  0  0
   13.7106   12.6346   25.3019 C   0  0  0  0  0  0  0  0  0  0  0  0
   13.0991   12.5721   24.1045 N   0  0  0  0  0  0  0  0  0  0  0  0
   10.1320   15.2822   21.9724 N   0  0  0  0  0  0  0  0  0  0  0  0
    9.3528   16.5799   21.7260 C   0  0  0  0  0  0  0  0  0  0  0  0
    9.6381   17.5234   21.1164 O   0  0  0  0  0  0  0  0  0  0  0  0
    8.1150   16.4277   22.5575 C   0  0  0  0  0  0  0  0  0  0  0  0
    7.0827   15.6199   22.0799 C   0  0  0  0  0  0  0  0  0  0  0  0
    6.3584   14.7619   22.9122 C   0  0  0  0  0  0  0  0  0  0  0  0
    6.8871   14.5230   24.1637 C   0  0  0  0  0  0  0  0  0  0  0  0
    7.9145   15.3600   24.6489 C   0  0  0  0  0  0  0  0  0  0  0  0
    8.4166   16.4117   23.9164 C   0  0  0  0  0  0  0  0  0  0  0  0
    8.8780   14.6344   25.4218 N   0  0  0  0  0  0  0  0  0  0  0  0
    8.8086   13.0963   24.6051 S   0  0  0  0  0  0  0  0  0  0  0  0
    9.3729   12.0911   25.4437 O   0  0  0  0  0  0  0  0  0  0  0  0
    9.1878   13.2611   23.2234 O   0  0  0  0  0  0  0  0  0  0  0  0
    7.0295   13.0951   24.6365 C   0  0  0  0  0  0  0  0  0  0  0  0
  2  1  1  6
  2  3  1  0
  3  4  1  0
  4  5  2  0
  5  6  1  0
  6  7  2  0
  7  8  1  0
  8  9  2  0
  2 10  1  0
 10 11  1  0
 11 12  2  0
 11 13  1  0
 13 14  2  0
 14 15  1  0
 15 16  2  0
 16 17  1  0
 17 18  2  0
 17 19  1  0
 19 20  1  0
 20 21  2  0
 20 22  2  0
 20 23  1  0
  9  4  1  0
 18 13  1  0
 23 16  1  0
M  END
>  <energy_score>  (83) 
60.219327

>  <inchikey>  (83) 
PPLGNQJOBOITFJ-UHFFFAOYSA-N

>  <smiles>  (83) 
C[C@H](Cc1ccccn1)NC(=O)c1ccc2c(c1)NS(=O)(=O)C2

>  <ref_pdb>  (83) 
A3229a

>  <alias>  (83) 
C12016-P161

>  <HIPPO Pose ID>  (83) 
388238

>  <name>  (83) 
C12016-P161

>  <HIPPO Compound ID>  (83) 
12016

>  <ref_mols>  (83) 
A3229a,A2513a

>  <distance_score>  (83) 
3.706146

>  <inspiration_score>  (83) 
None

$$$$
C11989-P134
     RDKit          3D

 23 25  0  0  0  0  0  0  0  0999 V2000
    9.6419   17.3467   17.1085 N   0  0  0  0  0  0  0  0  0  0  0  0
    9.4647   17.7624   18.4706 C   0  0  0  0  0  0  0  0  0  0  0  0
    9.0354   18.7853   18.9233 O   0  0  0  0  0  0  0  0  0  0  0  0
    9.7623   16.7414   19.5549 C   0  0  0  0  0  0  0  0  0  0  0  0
   10.6176   15.6321   19.5321 C   0  0  0  0  0  0  0  0  0  0  0  0
   10.6867   14.7768   20.6522 C   0  0  0  0  0  0  0  0  0  0  0  0
    9.7572   14.9534   21.6532 C   0  0  0  0  0  0  0  0  0  0  0  0
    9.4622   14.1034   22.6841 N   0  0  0  0  0  0  0  0  0  0  0  0
   10.2598   13.1304   23.3563 C   0  0  0  0  0  0  0  0  0  0  0  0
   11.3712   12.7476   23.1434 O   0  0  0  0  0  0  0  0  0  0  0  0
    9.4518   12.4943   24.4437 C   0  0  0  0  0  0  0  0  0  0  0  0
    9.2946   11.1018   24.4373 C   0  0  0  0  0  0  0  0  0  0  0  0
    8.3146   10.5112   25.2401 C   0  0  0  0  0  0  0  0  0  0  0  0
    7.4954   11.3184   26.0263 C   0  0  0  0  0  0  0  0  0  0  0  0
    7.7092   12.6936   26.0685 C   0  0  0  0  0  0  0  0  0  0  0  0
    8.6901   13.2972   25.3078 C   0  0  0  0  0  0  0  0  0  0  0  0
    6.7498   13.4417   26.8055 N   0  0  0  0  0  0  0  0  0  0  0  0
    5.8213   12.3193   27.7029 S   0  0  0  0  0  0  0  0  0  0  0  0
    6.3692   12.2535   29.0400 O   0  0  0  0  0  0  0  0  0  0  0  0
    4.4250   12.6013   27.4526 O   0  0  0  0  0  0  0  0  0  0  0  0
    6.3077   10.8472   26.8008 C   0  0  0  0  0  0  0  0  0  0  0  0
    8.9032   15.9780   21.6784 N   0  0  0  0  0  0  0  0  0  0  0  0
    9.0084   16.9040   20.7135 C   0  0  0  0  0  0  0  0  0  0  0  0
  1  2  1  0
  2  3  2  0
  2  4  1  0
  4  5  2  0
  5  6  1  0
  6  7  2  0
  7  8  1  0
  8  9  1  0
  9 10  2  0
  9 11  1  0
 11 12  2  0
 12 13  1  0
 13 14  2  0
 14 15  1  0
 15 16  2  0
 15 17  1  0
 17 18  1  0
 18 19  2  0
 18 20  2  0
 18 21  1  0
  7 22  1  0
 22 23  2  0
 23  4  1  0
 16 11  1  0
 21 14  1  0
M  END
>  <energy_score>  (84) 
154.849321

>  <inchikey>  (84) 
RJDGWKCUSWDHCU-UHFFFAOYSA-N

>  <smiles>  (84) 
NC(=O)c1ccc(NC(=O)c2ccc3c(c2)NS(=O)(=O)C3)nc1

>  <ref_pdb>  (84) 
A2513a

>  <alias>  (84) 
C11989-P134

>  <HIPPO Pose ID>  (84) 
389951

>  <name>  (84) 
C11989-P134

>  <HIPPO Compound ID>  (84) 
11989

>  <ref_mols>  (84) 
A4274b,A2513a

>  <distance_score>  (84) 
1.974466

>  <inspiration_score>  (84) 
None

$$$$
C12012-P344
     RDKit          3D

 22 24  0  0  0  0  0  0  0  0999 V2000
    7.7626   16.6244   22.6558 C   0  0  0  0  0  0  0  0  0  0  0  0
    8.9647   15.8139   23.1217 C   0  0  1  0  0  0  0  0  0  0  0  0
    8.4826   14.5058   23.4548 O   0  0  0  0  0  0  0  0  0  0  0  0
    9.2752   13.7520   24.2482 C   0  0  0  0  0  0  0  0  0  0  0  0
   10.4485   13.8880   24.5365 O   0  0  0  0  0  0  0  0  0  0  0  0
    8.4055   12.7330   24.8176 C   0  0  0  0  0  0  0  0  0  0  0  0
    8.6242   11.3641   24.6237 C   0  0  0  0  0  0  0  0  0  0  0  0
    7.7857   10.4427   25.2614 C   0  0  0  0  0  0  0  0  0  0  0  0
    6.7731   10.9142   26.0971 C   0  0  0  0  0  0  0  0  0  0  0  0
    6.6045   12.2872   26.2704 C   0  0  0  0  0  0  0  0  0  0  0  0
    7.3839   13.2116   25.6320 C   0  0  0  0  0  0  0  0  0  0  0  0
    5.5094   12.6865   27.0659 N   0  0  0  0  0  0  0  0  0  0  0  0
    4.9559   11.2971   27.8836 S   0  0  0  0  0  0  0  0  0  0  0  0
    3.5226   11.2436   27.6968 O   0  0  0  0  0  0  0  0  0  0  0  0
    5.5683   11.2802   29.1950 O   0  0  0  0  0  0  0  0  0  0  0  0
    5.7759   10.0811   26.8399 C   0  0  0  0  0  0  0  0  0  0  0  0
   10.0524   15.7111   22.0992 C   0  0  0  0  0  0  0  0  0  0  0  0
   11.3673   15.9692   22.4840 C   0  0  0  0  0  0  0  0  0  0  0  0
   12.3824   15.7640   21.5837 C   0  0  0  0  0  0  0  0  0  0  0  0
   12.0442   15.3010   20.3276 C   0  0  0  0  0  0  0  0  0  0  0  0
   10.7863   15.1088   19.8881 N   0  0  0  0  0  0  0  0  0  0  0  0
    9.8189   15.2991   20.7938 C   0  0  0  0  0  0  0  0  0  0  0  0
  2  1  1  6
  2  3  1  0
  3  4  1  0
  4  5  2  0
  4  6  1  0
  6  7  2  0
  7  8  1  0
  8  9  2  0
  9 10  1  0
 10 11  2  0
 10 12  1  0
 12 13  1  0
 13 14  2  0
 13 15  2  0
 13 16  1  0
  2 17  1  0
 17 18  2  0
 18 19  1  0
 19 20  2  0
 20 21  1  0
 21 22  2  0
 11  6  1  0
 22 17  1  0
 16  9  1  0
M  END
>  <energy_score>  (85) 
-23.719719

>  <inchikey>  (85) 
KLVPKQRAFUJBFS-UHFFFAOYSA-N

>  <smiles>  (85) 
C[C@@H](OC(=O)c1ccc2c(c1)NS(=O)(=O)C2)c1cccnc1

>  <ref_pdb>  (85) 
A4274b

>  <alias>  (85) 
C12012-P344

>  <HIPPO Pose ID>  (85) 
389969

>  <name>  (85) 
C12012-P344

>  <HIPPO Compound ID>  (85) 
12012

>  <ref_mols>  (85) 
A4274b,A2513a

>  <distance_score>  (85) 
2.190631

>  <inspiration_score>  (85) 
None

$$$$
C3782-P487
     RDKit          3D

 22 23  0  0  0  0  0  0  0  0999 V2000
    6.5902   13.8322   22.2187 C   0  0  0  0  0  0  0  0  0  0  0  0
    6.9674   14.2029   23.6521 C   0  0  2  0  0  0  0  0  0  0  0  0
    8.3344   14.6779   23.5917 N   0  0  0  0  0  0  0  0  0  0  0  0
    9.6760   13.8900   23.4840 C   0  0  0  0  0  0  0  0  0  0  0  0
    9.8826   12.7385   23.5062 O   0  0  0  0  0  0  0  0  0  0  0  0
   10.7791   14.9278   23.2181 C   0  0  0  0  0  0  0  0  0  0  0  0
   10.8697   15.1358   21.7396 C   0  0  0  0  0  0  0  0  0  0  0  0
    9.9001   15.2951   20.7682 C   0  0  0  0  0  0  0  0  0  0  0  0
   10.5884   15.2879   19.5458 C   0  0  0  0  0  0  0  0  0  0  0  0
   11.9003   15.1768   19.7184 N   0  0  0  0  0  0  0  0  0  0  0  0
   12.0533   15.1573   21.0513 N   0  0  0  0  0  0  0  0  0  0  0  0
    6.5391   13.0952   24.6471 C   0  0  0  0  0  0  0  0  0  0  0  0
    7.4180   11.8548   24.8077 C   0  0  0  0  0  0  0  0  0  0  0  0
    6.7725   10.8193   25.7467 C   0  0  0  0  0  0  0  0  0  0  0  0
    6.3374   11.3841   27.0268 N   0  0  0  0  0  0  0  0  0  0  0  0
    5.7169   10.3937   27.9470 C   0  0  0  0  0  0  0  0  0  0  0  0
    4.3127    9.7933   27.8004 C   0  0  0  0  0  0  0  0  0  0  0  0
    3.3561   10.7405   27.9420 F   0  0  0  0  0  0  0  0  0  0  0  0
    4.1232    9.1955   26.6065 F   0  0  0  0  0  0  0  0  0  0  0  0
    4.1088    8.8640   28.7640 F   0  0  0  0  0  0  0  0  0  0  0  0
    5.5381   12.5983   26.8942 C   0  0  0  0  0  0  0  0  0  0  0  0
    6.2516   13.6556   26.0426 C   0  0  0  0  0  0  0  0  0  0  0  0
  2  1  1  6
  2  3  1  0
  3  4  1  0
  4  5  2  0
  4  6  1  0
  6  7  1  0
  7  8  2  0
  8  9  1  0
  9 10  2  0
 10 11  1  0
  2 12  1  0
 12 13  1  0
 13 14  1  0
 14 15  1  0
 15 16  1  0
 16 17  1  0
 17 18  1  0
 17 19  1  0
 17 20  1  0
 15 21  1  0
 21 22  1  0
 11  7  1  0
 22 12  1  0
M  END
>  <energy_score>  (86) 
-21.830645

>  <inchikey>  (86) 
LABMHLXIGILGGI-UHFFFAOYSA-N

>  <smiles>  (86) 
C[C@H](NC(=O)Cc1ccn[nH]1)C1CCN(CC(F)(F)F)CC1

>  <ref_pdb>  (86) 
A4846a

>  <alias>  (86) 
C3782-P487

>  <HIPPO Pose ID>  (86) 
391136

>  <name>  (86) 
C3782-P487

>  <HIPPO Compound ID>  (86) 
3782

>  <ref_mols>  (86) 
A0556a,A4846a

>  <distance_score>  (86) 
1.208118

>  <inspiration_score>  (86) 
None

$$$$
C3542-P195
     RDKit          3D

 14 14  0  0  0  0  0  0  0  0999 V2000
    5.9517   13.6550    6.3952 C   0  0  0  0  0  0  0  0  0  0  0  0
    5.9450   14.6629    7.9843 C   0  0  0  0  0  0  0  0  0  0  0  0
    6.9445   15.2522    6.5154 C   0  0  0  0  0  0  0  0  0  0  0  0
    6.8604   13.7191    9.4202 C   0  0  0  0  0  0  0  0  0  0  0  0
    7.6788   14.1116    9.4837 O   0  0  0  0  0  0  0  0  0  0  0  0
    6.9288   12.7466   10.0625 N   0  0  0  0  0  0  0  0  0  0  0  0
    7.3606   11.1945    8.6020 C   0  0  0  0  0  0  0  0  0  0  0  0
    8.5246   12.0592   11.3673 C   0  0  0  0  0  0  0  0  0  0  0  0
    8.4233   12.7519   13.4603 C   0  0  2  0  0  0  0  0  0  0  0  0
    8.6011   13.4773   14.8273 C   0  0  0  0  0  0  0  0  0  0  0  0
    9.4739   13.8115   16.5829 C   0  0  0  0  0  0  0  0  0  0  0  0
    8.4319   14.8853   16.8883 C   0  0  0  0  0  0  0  0  0  0  0  0
    7.2490   14.0540   16.1346 C   0  0  0  0  0  0  0  0  0  0  0  0
    8.1836   12.6012   15.3976 N   0  0  0  0  0  0  0  0  0  0  0  0
  1  2  1  0
  2  3  1  0
  2  4  1  0
  4  5  2  0
  4  6  1  0
  6  7  1  0
  6  8  1  0
  9  8  1  1
  9 10  1  0
 10 11  1  0
 11 12  1  0
 12 13  1  0
 13 14  1  0
 14  9  1  0
M  END
>  <energy_score>  (87) 
1697.138263

>  <inchikey>  (87) 
QJFOGINEWVKONT-UHFFFAOYSA-N

>  <smiles>  (87) 
CC(C)C(=O)N(C)C[C@@H]1CCCCN1

>  <ref_pdb>  (87) 
A3612a

>  <alias>  (87) 
C3542-P195

>  <HIPPO Pose ID>  (87) 
395811

>  <name>  (87) 
C3542-P195

>  <HIPPO Compound ID>  (87) 
3542

>  <ref_mols>  (87) 
A0541a,A3612a

>  <distance_score>  (87) 
6.838667

>  <inspiration_score>  (87) 
None

$$$$
C13624-P161
     RDKit          3D

 20 21  0  0  0  0  0  0  0  0999 V2000
    7.5636   14.7105   22.6838 C   0  0  0  0  0  0  0  0  0  0  0  0
    8.8638   14.0710   23.1292 C   0  0  0  0  0  0  0  0  0  0  0  0
    8.7891   13.1577   24.3995 C   0  0  2  0  0  0  0  0  0  0  0  0
   10.0785   12.2646   24.3068 C   0  0  0  0  0  0  0  0  0  0  0  0
   11.2126   12.7099   24.4287 O   0  0  0  0  0  0  0  0  0  0  0  0
    9.8387   10.9648   23.9458 N   0  0  0  0  0  0  0  0  0  0  0  0
    8.5589   10.5240   24.3310 C   0  0  0  0  0  0  0  0  0  0  0  0
    7.6165   11.6450   23.9408 C   0  0  0  0  0  0  0  0  0  0  0  0
    7.2912   12.8208   24.7678 N   0  0  0  0  0  0  0  0  0  0  0  0
    7.0512   12.9421   26.2604 C   0  0  0  0  0  0  0  0  0  0  0  0
    7.1481   12.1387   27.1147 O   0  0  0  0  0  0  0  0  0  0  0  0
    6.5149   14.3719   26.5077 C   0  0  1  0  0  0  0  0  0  0  0  0
    5.2708   14.2977   27.3899 C   0  0  0  0  0  0  0  0  0  0  0  0
    7.8329   15.3419   27.3527 S   0  0  0  0  0  0  0  0  0  0  0  0
    7.3652   17.0132   26.9440 C   0  0  0  0  0  0  0  0  0  0  0  0
    8.1601   18.0578   27.4041 C   0  0  0  0  0  0  0  0  0  0  0  0
    7.8001   19.3672   27.0927 C   0  0  0  0  0  0  0  0  0  0  0  0
    6.6597   19.5953   26.3340 C   0  0  0  0  0  0  0  0  0  0  0  0
    5.9269   18.4983   25.9163 C   0  0  0  0  0  0  0  0  0  0  0  0
    6.2574   17.2200   26.2013 N   0  0  0  0  0  0  0  0  0  0  0  0
  1  2  1  0
  3  2  1  6
  3  4  1  0
  4  5  2  0
  4  6  1  0
  6  7  1  0
  7  8  1  0
  8  9  1  0
  9 10  1  0
 10 11  2  0
 10 12  1  0
 12 13  1  1
 12 14  1  0
 14 15  1  0
 15 16  2  0
 16 17  1  0
 17 18  2  0
 18 19  1  0
 19 20  2  0
  9  3  1  0
 20 15  1  0
M  END
>  <energy_score>  (88) 
41.595573

>  <inchikey>  (88) 
VQQDPWPKTZASIO-UHFFFAOYSA-N

>  <smiles>  (88) 
CC[C@@H]1C(=O)NCCN1C(=O)[C@@H](C)Sc1ccccn1

>  <ref_pdb>  (88) 
A3229a

>  <alias>  (88) 
C13624-P161

>  <HIPPO Pose ID>  (88) 
396849

>  <name>  (88) 
C13624-P161

>  <HIPPO Compound ID>  (88) 
13624

>  <ref_mols>  (88) 
A3229a,A1778a

>  <distance_score>  (88) 
1.74791

>  <inspiration_score>  (88) 
None

$$$$
C10379-P310
     RDKit          3D

 23 26  0  0  0  0  0  0  0  0999 V2000
    9.6147    9.1823   24.5485 C   0  0  0  0  0  0  0  0  0  0  0  0
   11.1879    9.5990   24.6103 C   0  0  1  0  0  0  0  0  0  0  0  0
   12.3333    8.2043   24.6438 C   0  0  0  0  0  0  0  0  0  0  0  0
   11.7785    7.2553   24.1717 O   0  0  0  0  0  0  0  0  0  0  0  0
   14.3511    7.9070   25.0858 N   0  0  0  0  0  0  0  0  0  0  0  0
   15.5512    6.3619   24.7147 C   0  0  0  0  0  0  0  0  0  0  0  0
   16.5187    5.0988   25.7959 C   0  0  0  0  0  0  0  0  0  0  0  0
   16.7456    3.7908   25.8626 C   0  0  0  0  0  0  0  0  0  0  0  0
   16.1922    3.1040   24.8397 C   0  0  0  0  0  0  0  0  0  0  0  0
   15.5643    1.9859   24.5395 N   0  0  0  0  0  0  0  0  0  0  0  0
   15.5458    1.9717   23.1900 N   0  0  0  0  0  0  0  0  0  0  0  0
   16.6187    2.7205   22.9158 C   0  0  0  0  0  0  0  0  0  0  0  0
   17.9098    1.6896   22.8648 C   0  0  0  0  0  0  0  0  0  0  0  0
   19.3092    1.8870   22.2933 C   0  0  0  0  0  0  0  0  0  0  0  0
   19.7720    0.7976   23.2898 C   0  0  0  0  0  0  0  0  0  0  0  0
   18.6477    1.3493   24.1960 C   0  0  0  0  0  0  0  0  0  0  0  0
   16.3318    3.8430   23.7392 N   0  0  0  0  0  0  0  0  0  0  0  0
   15.8061    5.2262   23.7138 C   0  0  0  0  0  0  0  0  0  0  0  0
   11.0510   11.3101   24.2843 N   0  0  0  0  0  0  0  0  0  0  0  0
   11.9620   12.3057   24.6516 C   0  0  0  0  0  0  0  0  0  0  0  0
   11.5064   13.5213   24.1951 C   0  0  0  0  0  0  0  0  0  0  0  0
   10.2706   13.2908   23.5600 C   0  0  0  0  0  0  0  0  0  0  0  0
   10.0015   11.9407   23.6420 C   0  0  0  0  0  0  0  0  0  0  0  0
  2  1  1  6
  2  3  1  0
  3  4  2  0
  3  5  1  0
  5  6  1  0
  6  7  1  0
  7  8  2  0
  8  9  1  0
  9 10  2  0
 10 11  1  0
 11 12  2  0
 12 13  1  0
 13 14  1  0
 14 15  1  0
 15 16  1  0
 12 17  1  0
 17 18  1  0
  2 19  1  0
 19 20  1  0
 20 21  2  0
 21 22  1  0
 22 23  2  0
 18  6  2  0
 23 19  1  0
 17  9  1  0
 16 13  1  0
M  END
>  <energy_score>  (89) 
675.737153

>  <inchikey>  (89) 
SMPJALCJLUDGFU-UHFFFAOYSA-N

>  <smiles>  (89) 
C[C@@H](C(=O)Nc1ccc2nnc(C3CCC3)n2c1)n1cccc1

>  <ref_pdb>  (89) 
A4333a

>  <alias>  (89) 
C10379-P310

>  <HIPPO Pose ID>  (89) 
397379

>  <name>  (89) 
C10379-P310

>  <HIPPO Compound ID>  (89) 
10379

>  <ref_mols>  (89) 
A4333a,A1293a

>  <distance_score>  (89) 
5.419272

>  <inspiration_score>  (89) 
None

$$$$
C11248-P103
     RDKit          3D

 23 26  0  0  0  0  0  0  0  0999 V2000
   21.3420   -1.4497   18.8005 O   0  0  0  0  0  0  0  0  0  0  0  0
   20.2527   -1.5094   19.2148 C   0  0  0  0  0  0  0  0  0  0  0  0
   19.0696   -2.4294   18.8062 N   0  0  0  0  0  0  0  0  0  0  0  0
   18.9599   -3.3927   17.7454 C   0  0  0  0  0  0  0  0  0  0  0  0
   18.2980   -4.6547   18.3014 C   0  0  0  0  0  0  0  0  0  0  0  0
   16.8222   -4.9208   17.9341 C   0  0  0  0  0  0  0  0  0  0  0  0
   15.8566   -3.9099   17.9302 C   0  0  0  0  0  0  0  0  0  0  0  0
   14.5312   -4.1997   17.6004 C   0  0  0  0  0  0  0  0  0  0  0  0
   14.1723   -5.5057   17.3183 C   0  0  0  0  0  0  0  0  0  0  0  0
   15.1507   -6.4724   17.3989 C   0  0  0  0  0  0  0  0  0  0  0  0
   16.4452   -6.2075   17.6837 N   0  0  0  0  0  0  0  0  0  0  0  0
   18.7515   -5.1826   19.6695 C   0  0  0  0  0  0  0  0  0  0  0  0
   19.2280   -5.8513   18.4245 C   0  0  0  0  0  0  0  0  0  0  0  0
   19.8318   -0.6732   20.4059 C   0  0  0  0  0  0  0  0  0  0  0  0
   18.7174    0.0654   20.0653 C   0  0  0  0  0  0  0  0  0  0  0  0
   17.5002   -0.3978   20.3811 N   0  0  0  0  0  0  0  0  0  0  0  0
   17.4146   -1.5344   21.1447 N   0  0  0  0  0  0  0  0  0  0  0  0
   18.4798   -2.0233   21.8138 C   0  0  0  0  0  0  0  0  0  0  0  0
   18.3907   -3.0627   22.7402 C   0  0  0  0  0  0  0  0  0  0  0  0
   19.4877   -3.4762   23.4945 C   0  0  0  0  0  0  0  0  0  0  0  0
   20.7208   -2.8797   23.2828 C   0  0  0  0  0  0  0  0  0  0  0  0
   20.8562   -1.9238   22.2789 C   0  0  0  0  0  0  0  0  0  0  0  0
   19.7377   -1.5064   21.5331 C   0  0  0  0  0  0  0  0  0  0  0  0
  1  2  2  0
  2  3  1  0
  3  4  1  0
  4  5  1  0
  5  6  1  0
  6  7  2  0
  7  8  1  0
  8  9  2  0
  9 10  1  0
 10 11  2  0
  5 12  1  0
 12 13  1  0
  2 14  1  0
 14 15  2  0
 15 16  1  0
 16 17  2  0
 17 18  1  0
 18 19  2  0
 19 20  1  0
 20 21  2  0
 21 22  1  0
 22 23  2  0
 13  5  1  0
 23 14  1  0
 11  6  1  0
 23 18  1  0
M  END
>  <energy_score>  (90) 
32.069762

>  <inchikey>  (90) 
MNSMQPIIGGCPBJ-UHFFFAOYSA-N

>  <smiles>  (90) 
O=C(NCC1(c2ccccn2)CC1)c1cnnc2ccccc12

>  <ref_pdb>  (90) 
A1105b

>  <alias>  (90) 
C11248-P103

>  <HIPPO Pose ID>  (90) 
398262

>  <name>  (90) 
C11248-P103

>  <HIPPO Compound ID>  (90) 
11248

>  <ref_mols>  (90) 
A1293a,A1105b

>  <distance_score>  (90) 
1.391081

>  <inspiration_score>  (90) 
None

$$$$
C5989-P214
     RDKit          3D

 13 13  0  0  0  0  0  0  0  0999 V2000
   11.3660   15.6068   19.3201 C   0  0  0  0  0  0  0  0  0  0  0  0
   11.9514   15.7153   20.7211 C   0  0  0  0  0  0  0  0  0  0  0  0
   10.8605   15.9713   21.7093 C   0  0  0  0  0  0  0  0  0  0  0  0
   10.4322   15.1025   22.6390 C   0  0  0  0  0  0  0  0  0  0  0  0
   10.9906   13.7238   22.9116 C   0  0  0  0  0  0  0  0  0  0  0  0
    9.8070   12.9674   23.4884 C   0  0  0  0  0  0  0  0  0  0  0  0
    8.7007   13.8915   23.4322 N   0  0  0  0  0  0  0  0  0  0  0  0
    7.3883   13.5112   23.4555 C   0  0  0  0  0  0  0  0  0  0  0  0
    6.7765   13.2700   22.4165 O   0  0  0  0  0  0  0  0  0  0  0  0
    6.8192   13.3166   24.8536 C   0  0  2  0  0  0  0  0  0  0  0  0
    6.9099   11.8483   25.2354 C   0  0  0  0  0  0  0  0  0  0  0  0
    5.0987   13.9012   24.9379 S   0  0  0  0  0  0  0  0  0  0  0  0
    9.1221   15.2644   23.3485 C   0  0  0  0  0  0  0  0  0  0  0  0
  1  2  1  0
  2  3  1  0
  3  4  2  3
  4  5  1  0
  5  6  1  0
  6  7  1  0
  7  8  1  0
  8  9  2  0
  8 10  1  0
 10 11  1  6
 10 12  1  0
  7 13  1  0
 13  4  1  0
M  END
>  <energy_score>  (91) 
-8.237816

>  <inchikey>  (91) 
LKVJKVRJSJXYGV-UHFFFAOYSA-N

>  <smiles>  (91) 
CCC=C1CCN(C(=O)[C@H](C)S)C1

>  <ref_pdb>  (91) 
A3550a

>  <alias>  (91) 
C5989-P214

>  <HIPPO Pose ID>  (91) 
398860

>  <name>  (91) 
C5989-P214

>  <HIPPO Compound ID>  (91) 
5989

>  <ref_mols>  (91) 
A1778a,A3550a

>  <distance_score>  (91) 
1.791884

>  <inspiration_score>  (91) 
None

$$$$
C1373-P168
     RDKit          3D

 17 17  0  0  0  0  0  0  0  0999 V2000
   11.3605   14.6313   18.9600 N   0  0  0  0  0  0  0  0  0  0  0  0
   10.9182   14.9679   19.9801 C   0  0  0  0  0  0  0  0  0  0  0  0
   10.5231   15.4816   21.3336 C   0  0  0  0  0  0  0  0  0  0  0  0
   10.7748   14.7367   22.6953 N   0  0  0  0  0  0  0  0  0  0  0  0
   12.1811   14.9137   22.2399 C   0  0  0  0  0  0  0  0  0  0  0  0
   12.8843   14.1660   23.3318 C   0  0  0  0  0  0  0  0  0  0  0  0
   13.2993   13.5425   24.2212 N   0  0  0  0  0  0  0  0  0  0  0  0
    9.9331   13.5047   22.8030 C   0  0  0  0  0  0  0  0  0  0  0  0
   10.1581   12.4029   22.4788 O   0  0  0  0  0  0  0  0  0  0  0  0
    8.6579   13.8460   23.5485 C   0  0  0  0  0  0  0  0  0  0  0  0
    8.3325   12.5861   24.3699 C   0  0  0  0  0  0  0  0  0  0  0  0
    7.5217   12.7908   25.6432 C   0  0  2  0  0  0  0  0  0  0  0  0
    7.1901   11.4043   26.2264 C   0  0  0  0  0  0  0  0  0  0  0  0
    6.3523   11.5193   27.4897 C   0  0  0  0  0  0  0  0  0  0  0  0
    5.1333   12.3970   27.2390 C   0  0  0  0  0  0  0  0  0  0  0  0
    5.5227   13.7324   26.6071 C   0  0  0  0  0  0  0  0  0  0  0  0
    6.3062   13.5602   25.3852 N   0  0  0  0  0  0  0  0  0  0  0  0
  1  2  3  0
  2  3  1  0
  3  4  1  0
  4  5  1  0
  5  6  1  0
  6  7  3  0
  4  8  1  0
  8  9  2  0
  8 10  1  0
 10 11  1  0
 12 11  1  6
 12 13  1  0
 13 14  1  0
 14 15  1  0
 15 16  1  0
 16 17  1  0
 17 12  1  0
M  END
>  <energy_score>  (92) 
64.249748

>  <inchikey>  (92) 
CXXBRFZQSJIDCB-UHFFFAOYSA-N

>  <smiles>  (92) 
N#CCN(CC#N)C(=O)CC[C@@H]1CCCCN1

>  <ref_pdb>  (92) 
A3306a

>  <alias>  (92) 
C1373-P168

>  <HIPPO Pose ID>  (92) 
401691

>  <name>  (92) 
C1373-P168

>  <HIPPO Compound ID>  (92) 
1373

>  <ref_mols>  (92) 
A3306a,A4320a

>  <distance_score>  (92) 
1.32412

>  <inspiration_score>  (92) 
None

$$$$
C40319-P113
     RDKit          3D

 20 22  0  0  0  0  0  0  0  0999 V2000
    6.4888   15.5789    8.2747 O   0  0  0  0  0  0  0  0  0  0  0  0
    6.5704   14.3274    8.6292 C   0  0  0  0  0  0  0  0  0  0  0  0
    6.3888   13.4971   10.4984 N   0  0  0  0  0  0  0  0  0  0  0  0
    5.8896   14.2185   12.3300 C   0  0  0  0  0  0  0  0  0  0  0  0
    5.1252   14.1610   14.2926 C   0  0  0  0  0  0  0  0  0  0  0  0
    4.3206   13.1612   15.8647 C   0  0  0  0  0  0  0  0  0  0  0  0
    5.1309   12.5633   16.9303 N   0  0  0  0  0  0  0  0  0  0  0  0
    4.4708   12.1047   17.9552 C   0  0  0  0  0  0  0  0  0  0  0  0
    3.1830   12.1571   17.7207 N   0  0  0  0  0  0  0  0  0  0  0  0
    3.0078   12.9302   16.6202 C   0  0  0  0  0  0  0  0  0  0  0  0
    1.0605   13.2236   16.6400 Br  0  0  0  0  0  0  0  0  0  0  0  0
    6.7393   13.3049    7.0315 C   0  0  0  0  0  0  0  0  0  0  0  0
    7.0585   12.1033    6.4250 C   0  0  0  0  0  0  0  0  0  0  0  0
    7.3559   11.8443    5.0493 C   0  0  0  0  0  0  0  0  0  0  0  0
    7.3197   12.8631    4.1507 C   0  0  0  0  0  0  0  0  0  0  0  0
    7.0266   14.1144    4.6101 C   0  0  0  0  0  0  0  0  0  0  0  0
    6.7895   14.3242    5.9775 C   0  0  0  0  0  0  0  0  0  0  0  0
    7.1486   15.1069    3.6070 N   0  0  0  0  0  0  0  0  0  0  0  0
    7.1165   14.3079    2.3607 C   0  0  0  0  0  0  0  0  0  0  0  0
    7.6125   12.8897    2.6968 C   0  0  0  0  0  0  0  0  0  0  0  0
  1  2  2  0
  2  3  1  0
  3  4  1  0
  4  5  1  0
  5  6  1  0
  6  7  1  0
  7  8  2  0
  8  9  1  0
  9 10  1  0
 10 11  1  0
  2 12  1  0
 12 13  2  0
 13 14  1  0
 14 15  2  0
 15 16  1  0
 16 17  2  0
 16 18  1  0
 18 19  1  0
 19 20  1  0
 10  6  2  0
 17 12  1  0
 20 15  1  0
M  END
>  <energy_score>  (93) 
625.405813

>  <inchikey>  (93) 
LOVBZBXURATYJV-UHFFFAOYSA-N

>  <smiles>  (93) 
O=C(NCCc1nc[nH]c1Br)c1ccc2c(c1)NCC2

>  <ref_pdb>  (93) 
A1180a

>  <alias>  (93) 
C40319-P113

>  <HIPPO Pose ID>  (93) 
403450

>  <name>  (93) 
C40319-P113

>  <HIPPO Compound ID>  (93) 
40319

>  <ref_mols>  (93) 
A1180a,A0586a

>  <distance_score>  (93) 
3.574119

>  <inspiration_score>  (93) 
None

$$$$
C1603-P183
     RDKit          3D

 14 14  0  0  0  0  0  0  0  0999 V2000
   11.3192   14.9296   18.6869 C   0  0  0  0  0  0  0  0  0  0  0  0
   10.3704   15.3562   19.7830 C   0  0  0  0  0  0  0  0  0  0  0  0
   10.7919   14.7678   21.1202 C   0  0  0  0  0  0  0  0  0  0  0  0
    9.7585   15.0541   22.2049 C   0  0  0  0  0  0  0  0  0  0  0  0
    9.1981   13.8247   22.8542 N   0  0  0  0  0  0  0  0  0  0  0  0
    7.9616   14.2357   22.0636 C   0  0  0  0  0  0  0  0  0  0  0  0
    6.9092   15.1761   22.6837 C   0  0  0  0  0  0  0  0  0  0  0  0
    8.8489   13.5661   24.2089 C   0  0  0  0  0  0  0  0  0  0  0  0
    8.8291   14.2970   25.1642 O   0  0  0  0  0  0  0  0  0  0  0  0
    8.5767   12.1523   24.3885 C   0  0  0  0  0  0  0  0  0  0  0  0
    7.7906   11.4772   25.2937 C   0  0  0  0  0  0  0  0  0  0  0  0
    7.9322   10.1217   25.1316 N   0  0  0  0  0  0  0  0  0  0  0  0
    8.7910   10.0200   24.1381 C   0  0  0  0  0  0  0  0  0  0  0  0
    9.2110   11.2055   23.6186 O   0  0  0  0  0  0  0  0  0  0  0  0
  1  2  1  0
  2  3  1  0
  3  4  1  0
  4  5  1  0
  5  6  1  0
  6  7  1  0
  5  8  1  0
  8  9  2  0
  8 10  1  0
 10 11  2  0
 11 12  1  0
 12 13  2  0
 13 14  1  0
 14 10  1  0
M  END
>  <energy_score>  (94) 
61.360352

>  <inchikey>  (94) 
JUPJJMLQZFQJGQ-UHFFFAOYSA-N

>  <smiles>  (94) 
CCCCN(CC)C(=O)c1cnco1

>  <ref_pdb>  (94) 
A3436a

>  <alias>  (94) 
C1603-P183

>  <HIPPO Pose ID>  (94) 
407074

>  <name>  (94) 
C1603-P183

>  <HIPPO Compound ID>  (94) 
1603

>  <ref_mols>  (94) 
A3623a,A3436a

>  <distance_score>  (94) 
1.474991

>  <inspiration_score>  (94) 
None

$$$$
C31867-P115
     RDKit          3D

 21 22  0  0  0  0  0  0  0  0999 V2000
    4.4194   12.2030   26.7943 O   0  0  0  0  0  0  0  0  0  0  0  0
    5.4988   11.7813   26.4048 C   0  0  0  0  0  0  0  0  0  0  0  0
    5.9803   10.3854   26.7054 C   0  0  0  0  0  0  0  0  0  0  0  0
    6.6980    9.6939   25.5604 C   0  0  0  0  0  0  0  0  0  0  0  0
    7.6983   10.4574   24.6999 C   0  0  0  0  0  0  0  0  0  0  0  0
    8.5342   11.4384   25.4692 C   0  0  1  0  0  0  0  0  0  0  0  0
    9.6448   12.0998   24.8213 O   0  0  0  0  0  0  0  0  0  0  0  0
   10.1233   11.7879   23.5964 C   0  0  0  0  0  0  0  0  0  0  0  0
    9.7498   10.8859   22.8742 O   0  0  0  0  0  0  0  0  0  0  0  0
   11.1447   12.8199   23.2107 C   0  0  0  0  0  0  0  0  0  0  0  0
   10.4946   14.1634   22.9256 C   0  0  2  0  0  0  0  0  0  0  0  0
    8.9656   14.1898   23.0953 C   0  0  0  0  0  0  0  0  0  0  0  0
    8.3659   15.1640   22.3886 F   0  0  0  0  0  0  0  0  0  0  0  0
    8.7055   14.4867   24.3931 F   0  0  0  0  0  0  0  0  0  0  0  0
   10.8302   14.6763   21.6068 N   0  0  0  0  0  0  0  0  0  0  0  0
   11.0777   15.9821   21.3899 C   0  0  0  0  0  0  0  0  0  0  0  0
   10.0583   16.3723   20.5450 C   0  0  0  0  0  0  0  0  0  0  0  0
    9.5889   15.3047   19.8817 N   0  0  0  0  0  0  0  0  0  0  0  0
   10.1460   14.3034   20.4993 C   0  0  0  0  0  0  0  0  0  0  0  0
    7.7307   12.5294   26.1834 C   0  0  0  0  0  0  0  0  0  0  0  0
    6.3731   12.6306   25.7988 N   0  0  0  0  0  0  0  0  0  0  0  0
  1  2  2  0
  2  3  1  0
  3  4  1  0
  4  5  1  0
  5  6  1  0
  6  7  1  6
  7  8  1  0
  8  9  2  0
  8 10  1  0
 11 10  1  6
 11 12  1  0
 12 13  1  0
 12 14  1  0
 11 15  1  0
 15 16  1  0
 16 17  2  0
 17 18  1  0
 18 19  2  0
  6 20  1  0
 20 21  1  0
 21  2  1  0
 19 15  1  0
M  END
>  <energy_score>  (95) 
13.72863

>  <inchikey>  (95) 
AXBDGHXHJVZBTL-UHFFFAOYSA-N

>  <smiles>  (95) 
O=C1CCC[C@@H](OC(=O)C[C@H](C(F)F)n2ccnc2)CN1

>  <ref_pdb>  (95) 
A1209a

>  <alias>  (95) 
C31867-P115

>  <HIPPO Pose ID>  (95) 
407398

>  <name>  (95) 
C31867-P115

>  <HIPPO Compound ID>  (95) 
31867

>  <ref_mols>  (95) 
A4029a,A1209a

>  <distance_score>  (95) 
2.068528

>  <inspiration_score>  (95) 
None

$$$$
C21294-P9
     RDKit          3D

 23 26  0  0  0  0  0  0  0  0999 V2000
   19.1623    7.6514    9.7178 O   0  0  0  0  0  0  0  0  0  0  0  0
   18.5734    8.4103   10.4923 C   0  0  0  0  0  0  0  0  0  0  0  0
   17.8025    7.9404   11.9860 N   0  0  0  0  0  0  0  0  0  0  0  0
   17.7638    6.5812   12.7270 C   0  0  0  0  0  0  0  0  0  0  0  0
   18.9279    6.2824   14.0865 C   0  0  0  0  0  0  0  0  0  0  0  0
   19.3858    7.4563   14.4327 N   0  0  0  0  0  0  0  0  0  0  0  0
   19.6414    7.5763   15.7323 N   0  0  0  0  0  0  0  0  0  0  0  0
   19.4452    6.4515   16.3151 C   0  0  0  0  0  0  0  0  0  0  0  0
   18.9828    6.3399   17.5803 C   0  0  0  0  0  0  0  0  0  0  0  0
   18.8194    5.1237   18.0442 C   0  0  0  0  0  0  0  0  0  0  0  0
   19.0884    3.8814   17.4539 C   0  0  0  0  0  0  0  0  0  0  0  0
   19.2877    2.3921   18.3675 Cl  0  0  0  0  0  0  0  0  0  0  0  0
   19.3971    4.0395   16.1797 C   0  0  0  0  0  0  0  0  0  0  0  0
   19.3115    5.4268   15.4293 N   0  0  0  0  0  0  0  0  0  0  0  0
   18.7205    9.7282   10.0655 C   0  0  0  0  0  0  0  0  0  0  0  0
   19.9772   10.1732   10.2351 N   0  0  0  0  0  0  0  0  0  0  0  0
   20.6203    8.9757    8.6667 S   0  0  0  0  0  0  0  0  0  0  0  0
   19.9227   10.3091    7.9939 C   0  0  0  0  0  0  0  0  0  0  0  0
   20.1169   10.8736    6.7143 C   0  0  0  0  0  0  0  0  0  0  0  0
   19.0394   11.7239    6.2437 C   0  0  0  0  0  0  0  0  0  0  0  0
   17.3558   11.5607    6.9535 C   0  0  0  0  0  0  0  0  0  0  0  0
   17.1420   10.8680    8.0754 C   0  0  0  0  0  0  0  0  0  0  0  0
   18.5282   10.2279    8.7734 C   0  0  0  0  0  0  0  0  0  0  0  0
  1  2  2  0
  2  3  1  0
  3  4  1  0
  4  5  1  0
  5  6  2  0
  6  7  1  0
  7  8  2  0
  8  9  1  0
  9 10  2  0
 10 11  1  0
 11 12  1  0
 11 13  2  0
 13 14  1  0
  2 15  1  0
 15 16  2  0
 16 17  1  0
 17 18  1  0
 18 19  2  0
 19 20  1  0
 20 21  2  0
 21 22  1  0
 22 23  2  0
 14  5  1  0
 23 15  1  0
 14  8  1  0
 23 18  1  0
M  END
>  <energy_score>  (96) 
421.972042

>  <inchikey>  (96) 
CMPQDCDZMSGOBB-UHFFFAOYSA-N

>  <smiles>  (96) 
O=C(NCc1nnc2ccc(Cl)cn12)c1nsc2ccccc12

>  <ref_pdb>  (96) 
A0486a

>  <alias>  (96) 
C21294-P9

>  <HIPPO Pose ID>  (96) 
409402

>  <name>  (96) 
C21294-P9

>  <HIPPO Compound ID>  (96) 
21294

>  <ref_mols>  (96) 
A0486a,A1293a

>  <distance_score>  (96) 
8.966016

>  <inspiration_score>  (96) 
None

$$$$
C9987-P363
     RDKit          3D

 23 24  0  0  0  0  0  0  0  0999 V2000
    6.1923   14.2295   23.3525 C   0  0  0  0  0  0  0  0  0  0  0  0
    6.2295   14.0322   24.8646 C   0  0  2  0  0  0  0  0  0  0  0  0
    6.3978   12.5390   25.1987 C   0  0  0  0  0  0  0  0  0  0  0  0
    5.4948   11.8948   25.6573 O   0  0  0  0  0  0  0  0  0  0  0  0
    7.7462   12.1771   24.9276 N   0  0  0  0  0  0  0  0  0  0  0  0
    8.6024   12.4708   26.1151 C   0  0  0  0  0  0  0  0  0  0  0  0
    9.9989   12.9610   25.8067 C   0  0  0  0  0  0  0  0  0  0  0  0
   10.7373   11.9469   24.9706 C   0  0  0  0  0  0  0  0  0  0  0  0
   11.2461   12.5770   23.8095 O   0  0  0  0  0  0  0  0  0  0  0  0
   10.2686   12.8112   22.8027 C   0  0  0  0  0  0  0  0  0  0  0  0
   10.7227   13.9762   21.9836 C   0  0  0  0  0  0  0  0  0  0  0  0
   10.7907   15.1970   22.8945 C   0  0  0  0  0  0  0  0  0  0  0  0
   11.1816   16.4061   22.1998 N   0  0  0  0  0  0  0  0  0  0  0  0
   10.1559   16.8376   21.2532 C   0  0  0  0  0  0  0  0  0  0  0  0
   12.4919   16.2230   21.5957 C   0  0  0  0  0  0  0  0  0  0  0  0
    9.9175   10.7088   24.6611 C   0  0  0  0  0  0  0  0  0  0  0  0
    8.4423   10.8513   25.0215 C   0  0  0  0  0  0  0  0  0  0  0  0
    4.9880   14.6061   25.5765 C   0  0  2  0  0  0  0  0  0  0  0  0
    5.0517   16.1261   25.7178 C   0  0  0  0  0  0  0  0  0  0  0  0
    5.8531   16.3489   27.0051 C   0  0  0  0  0  0  0  0  0  0  0  0
    5.5830   15.0940   27.7948 C   0  0  0  0  0  0  0  0  0  0  0  0
    5.9318   14.8642   28.9386 O   0  0  0  0  0  0  0  0  0  0  0  0
    4.9292   14.2114   26.9672 N   0  0  0  0  0  0  0  0  0  0  0  0
  2  1  1  6
  2  3  1  0
  3  4  2  0
  3  5  1  0
  5  6  1  0
  6  7  1  0
  7  8  1  0
  8  9  1  0
  9 10  1  0
 10 11  1  0
 11 12  1  0
 12 13  1  0
 13 14  1  0
 13 15  1  0
  8 16  1  0
 16 17  1  0
  2 18  1  0
 18 19  1  1
 19 20  1  0
 20 21  1  0
 21 22  2  0
 21 23  1  0
 17  5  1  0
 23 18  1  0
M  END
>  <energy_score>  (97) 
24.550087

>  <inchikey>  (97) 
HKHPLIVHPWOBNI-UHFFFAOYSA-N

>  <smiles>  (97) 
C[C@H](C(=O)N1CCC(OCCCN(C)C)CC1)[C@@H]1CCC(=O)N1

>  <ref_pdb>  (97) 
A4445a

>  <alias>  (97) 
C9987-P363

>  <HIPPO Pose ID>  (97) 
410294

>  <name>  (97) 
C9987-P363

>  <HIPPO Compound ID>  (97) 
9987

>  <ref_mols>  (97) 
A4445a,A0528a

>  <distance_score>  (97) 
2.663834

>  <inspiration_score>  (97) 
None

$$$$
C22847-P54
     RDKit          3D

 20 22  0  0  0  0  0  0  0  0999 V2000
   10.7208    5.9928    6.7496 O   0  0  0  0  0  0  0  0  0  0  0  0
   11.7834    5.4209    6.5068 C   0  0  0  0  0  0  0  0  0  0  0  0
   12.5520    5.7146    5.2561 C   0  0  0  0  0  0  0  0  0  0  0  0
   13.1462    4.2038    4.4370 S   0  0  0  0  0  0  0  0  0  0  0  0
   13.7237    3.2305    5.9024 C   0  0  0  0  0  0  0  0  0  0  0  0
   13.7679    4.0047    7.2682 C   0  0  2  0  0  0  0  0  0  0  0  0
   14.3572    2.8288    8.4538 C   0  0  0  0  0  0  0  0  0  0  0  0
   14.3425    1.7545    7.9818 O   0  0  0  0  0  0  0  0  0  0  0  0
   14.7635    3.4135   10.2255 N   0  0  0  0  0  0  0  0  0  0  0  0
   15.1342    2.4942   11.8007 C   0  0  0  0  0  0  0  0  0  0  0  0
   15.8704    2.4919   13.2515 C   0  0  0  0  0  0  0  0  0  0  0  0
   15.7258    1.4151   14.2483 N   0  0  0  0  0  0  0  0  0  0  0  0
   14.5398    0.3522   13.8972 N   0  0  0  0  0  0  0  0  0  0  0  0
   14.2875   -1.5799   14.6920 C   0  0  0  0  0  0  0  0  0  0  0  0
   13.1288   -2.5242   15.8865 C   0  0  0  0  0  0  0  0  0  0  0  0
   13.3921   -3.4191   17.1923 C   0  0  0  0  0  0  0  0  0  0  0  0
   14.4384   -4.2406   16.6415 C   0  0  0  0  0  0  0  0  0  0  0  0
   15.0390   -3.0269   15.9771 C   0  0  0  0  0  0  0  0  0  0  0  0
   14.6265    0.9241   12.5052 C   0  0  0  0  0  0  0  0  0  0  0  0
   12.3736    4.5260    7.3721 N   0  0  0  0  0  0  0  0  0  0  0  0
  1  2  2  0
  2  3  1  0
  3  4  1  0
  4  5  1  0
  5  6  1  0
  6  7  1  1
  7  8  2  0
  7  9  1  0
  9 10  1  0
 10 11  1  0
 11 12  2  0
 12 13  1  0
 13 14  1  0
 14 15  1  0
 15 16  1  0
 16 17  1  0
 17 18  1  0
 13 19  1  0
  6 20  1  0
 20  2  1  0
 19 10  2  0
 18 14  1  0
M  END
>  <energy_score>  (98) 
820.476719

>  <inchikey>  (98) 
HEZOJSXHYOLCRB-UHFFFAOYSA-N

>  <smiles>  (98) 
O=C1CSC[C@H](C(=O)Nc2cnn(C3CCCC3)c2)N1

>  <ref_pdb>  (98) 
A0341a

>  <alias>  (98) 
C22847-P54

>  <HIPPO Pose ID>  (98) 
411246

>  <name>  (98) 
C22847-P54

>  <HIPPO Compound ID>  (98) 
22847

>  <ref_mols>  (98) 
A0717a,A0341a

>  <distance_score>  (98) 
9.11193

>  <inspiration_score>  (98) 
None

$$$$
C15735-P103
     RDKit          3D

 21 23  0  0  0  0  0  0  0  0999 V2000
   20.8690    0.0727   19.3934 O   0  0  0  0  0  0  0  0  0  0  0  0
   20.8152   -1.0826   19.5496 C   0  0  0  0  0  0  0  0  0  0  0  0
   21.2026   -2.0901   18.4594 C   0  0  0  0  0  0  0  0  0  0  0  0
   20.0815   -2.6550   17.7941 O   0  0  0  0  0  0  0  0  0  0  0  0
   19.4578   -3.6886   18.4509 C   0  0  0  0  0  0  0  0  0  0  0  0
   18.2353   -4.0957   17.9468 C   0  0  0  0  0  0  0  0  0  0  0  0
   17.6110   -5.1953   18.5244 C   0  0  0  0  0  0  0  0  0  0  0  0
   18.2246   -5.8240   19.5964 C   0  0  0  0  0  0  0  0  0  0  0  0
   17.6644   -6.8934   20.1746 F   0  0  0  0  0  0  0  0  0  0  0  0
   19.4240   -5.3284   20.0679 C   0  0  0  0  0  0  0  0  0  0  0  0
   20.0610   -4.2647   19.5230 N   0  0  0  0  0  0  0  0  0  0  0  0
   20.3284   -1.9105   20.7672 N   0  0  0  0  0  0  0  0  0  0  0  0
   19.9258   -1.5134   21.9904 C   0  0  0  0  0  0  0  0  0  0  0  0
   19.6436   -2.3312   23.0552 C   0  0  0  0  0  0  0  0  0  0  0  0
   19.5189   -1.4594   24.1036 N   0  0  0  0  0  0  0  0  0  0  0  0
   19.4604   -1.7041   25.4679 C   0  0  0  0  0  0  0  0  0  0  0  0
   19.4101   -0.6619   26.3106 C   0  0  0  0  0  0  0  0  0  0  0  0
   19.3704    0.6842   25.6634 C   0  0  0  0  0  0  0  0  0  0  0  0
   19.4192    0.9212   24.3935 N   0  0  0  0  0  0  0  0  0  0  0  0
   19.5457   -0.1646   23.5846 C   0  0  0  0  0  0  0  0  0  0  0  0
   19.7926   -0.2046   22.3001 N   0  0  0  0  0  0  0  0  0  0  0  0
  1  2  2  0
  2  3  1  0
  3  4  1  0
  4  5  1  0
  5  6  2  0
  6  7  1  0
  7  8  2  0
  8  9  1  0
  8 10  1  0
 10 11  2  0
  2 12  1  0
 12 13  1  0
 13 14  2  0
 14 15  1  0
 15 16  1  0
 16 17  2  0
 17 18  1  0
 18 19  2  0
 19 20  1  0
 20 21  2  0
 11  5  1  0
 21 13  1  0
 20 15  1  0
M  END
>  <energy_score>  (99) 
-36.272992

>  <inchikey>  (99) 
HKBOHEFNHSZPBN-UHFFFAOYSA-N

>  <smiles>  (99) 
O=C(COc1ccc(F)cn1)Nc1cn2cccnc2n1

>  <ref_pdb>  (99) 
A1105b

>  <alias>  (99) 
C15735-P103

>  <HIPPO Pose ID>  (99) 
411746

>  <name>  (99) 
C15735-P103

>  <HIPPO Compound ID>  (99) 
15735

>  <ref_mols>  (99) 
A0202a,A1105b

>  <distance_score>  (99) 
1.835996

>  <inspiration_score>  (99) 
None

$$$$
C13636-P494
     RDKit          3D

 20 21  0  0  0  0  0  0  0  0999 V2000
   11.0461   14.7005   18.5591 C   0  0  0  0  0  0  0  0  0  0  0  0
    9.9011   15.2293   19.1972 O   0  0  0  0  0  0  0  0  0  0  0  0
   10.2704   15.9767   20.3367 C   0  0  0  0  0  0  0  0  0  0  0  0
   10.0914   15.1641   21.6231 C   0  0  2  0  0  0  0  0  0  0  0  0
    8.5666   14.9919   21.9660 C   0  0  0  0  0  0  0  0  0  0  0  0
    8.1173   14.5451   23.3709 N   0  0  0  0  0  0  0  0  0  0  0  0
    6.7213   14.3958   23.9653 C   0  0  0  0  0  0  0  0  0  0  0  0
    5.6675   14.6642   23.5121 O   0  0  0  0  0  0  0  0  0  0  0  0
    6.8923   13.8906   25.4278 C   0  0  1  0  0  0  0  0  0  0  0  0
    5.8474   14.5718   26.2967 C   0  0  0  0  0  0  0  0  0  0  0  0
    6.6433   12.1054   25.6728 S   0  0  0  0  0  0  0  0  0  0  0  0
    8.1416   11.4757   25.0133 C   0  0  0  0  0  0  0  0  0  0  0  0
    8.1900   10.1449   24.6708 C   0  0  0  0  0  0  0  0  0  0  0  0
    9.0369    9.8068   23.6452 C   0  0  0  0  0  0  0  0  0  0  0  0
    9.7609   10.8053   23.0479 C   0  0  0  0  0  0  0  0  0  0  0  0
    9.8821   12.0187   23.6622 C   0  0  0  0  0  0  0  0  0  0  0  0
    9.1018   12.3565   24.6882 N   0  0  0  0  0  0  0  0  0  0  0  0
    8.7087   15.8787   23.7056 C   0  0  0  0  0  0  0  0  0  0  0  0
   10.2276   15.7648   23.8729 C   0  0  0  0  0  0  0  0  0  0  0  0
   10.8405   15.8789   22.6120 O   0  0  0  0  0  0  0  0  0  0  0  0
  1  2  1  0
  2  3  1  0
  4  3  1  6
  4  5  1  0
  5  6  1  0
  6  7  1  0
  7  8  2  0
  7  9  1  0
  9 10  1  1
  9 11  1  0
 11 12  1  0
 12 13  2  0
 13 14  1  0
 14 15  2  0
 15 16  1  0
 16 17  2  0
  6 18  1  0
 18 19  1  0
 19 20  1  0
 20  4  1  0
 17 12  1  0
M  END
>  <energy_score>  (100) 
43.28598

>  <inchikey>  (100) 
FWQCOBCAMKWENG-UHFFFAOYSA-N

>  <smiles>  (100) 
COC[C@@H]1CN(C(=O)[C@@H](C)Sc2ccccn2)CCO1

>  <ref_pdb>  (100) 
A4874a

>  <alias>  (100) 
C13636-P494

>  <HIPPO Pose ID>  (100) 
413601

>  <name>  (100) 
C13636-P494

>  <HIPPO Compound ID>  (100) 
13636

>  <ref_mols>  (100) 
A1776a,A4874a

>  <distance_score>  (100) 
1.486389

>  <inspiration_score>  (100) 
None

$$$$
C4708-P437
     RDKit          3D

 10 10  0  0  0  0  0  0  0  0999 V2000
   11.9771   13.3995   24.6484 C   0  0  0  0  0  0  0  0  0  0  0  0
   11.0654   13.9255   23.8265 C   0  0  0  0  0  0  0  0  0  0  0  0
   11.1895   14.2641   22.4026 C   0  0  0  0  0  0  0  0  0  0  0  0
    9.6922   14.1947   22.1359 C   0  0  0  0  0  0  0  0  0  0  0  0
    8.9848   13.1682   23.0070 N   0  0  0  0  0  0  0  0  0  0  0  0
    7.5191   12.9512   23.2737 C   0  0  0  0  0  0  0  0  0  0  0  0
    6.5844   13.5751   22.9331 O   0  0  0  0  0  0  0  0  0  0  0  0
    7.4008   11.7507   24.2247 C   0  0  0  0  0  0  0  0  0  0  0  0
    8.4548   10.6617   24.0879 C   0  0  0  0  0  0  0  0  0  0  0  0
    9.6078   14.0149   24.0662 C   0  0  0  0  0  0  0  0  0  0  0  0
  1  2  2  0
  2  3  1  0
  3  4  1  0
  4  5  1  0
  5  6  1  0
  6  7  2  0
  6  8  1  0
  8  9  1  0
  5 10  1  0
 10  2  1  0
M  END
>  <energy_score>  (101) 
59.091503

>  <inchikey>  (101) 
PVLLXQIBFQPCGC-UHFFFAOYSA-N

>  <smiles>  (101) 
C=C1CCN(C(=O)CC)C1

>  <ref_pdb>  (101) 
A4701a

>  <alias>  (101) 
C4708-P437

>  <HIPPO Pose ID>  (101) 
415458

>  <name>  (101) 
C4708-P437

>  <HIPPO Compound ID>  (101) 
4708

>  <ref_mols>  (101) 
A1775a,A4701a

>  <distance_score>  (101) 
1.629208

>  <inspiration_score>  (101) 
None

$$$$
C12411-P219
     RDKit          3D

 22 25  0  0  0  0  0  0  0  0999 V2000
   14.1414   17.8394   19.8101 C   0  0  0  0  0  0  0  0  0  0  0  0
   14.5566   17.7051   21.1293 C   0  0  0  0  0  0  0  0  0  0  0  0
   13.9830   16.7218   21.9066 C   0  0  0  0  0  0  0  0  0  0  0  0
   12.9969   15.9337   21.3349 C   0  0  0  0  0  0  0  0  0  0  0  0
   12.3746   14.8877   22.1172 C   0  0  0  0  0  0  0  0  0  0  0  0
   12.9238   14.2307   23.1266 N   0  0  0  0  0  0  0  0  0  0  0  0
   12.1165   13.2004   23.5566 N   0  0  0  0  0  0  0  0  0  0  0  0
   10.9986   13.1669   22.8672 C   0  0  0  0  0  0  0  0  0  0  0  0
   10.1228   12.1510   22.8471 N   0  0  0  0  0  0  0  0  0  0  0  0
    9.3768   11.8987   24.0645 C   0  0  2  0  0  0  0  0  0  0  0  0
    8.9912   10.4351   24.0016 C   0  0  0  0  0  0  0  0  0  0  0  0
    8.0617   10.0452   25.1122 C   0  0  0  0  0  0  0  0  0  0  0  0
    7.1726   11.0629   25.7114 C   0  0  0  0  0  0  0  0  0  0  0  0
    6.3315   10.7189   26.7890 C   0  0  0  0  0  0  0  0  0  0  0  0
    5.4044   11.6159   27.2840 C   0  0  0  0  0  0  0  0  0  0  0  0
    5.2393   12.8013   26.6015 C   0  0  0  0  0  0  0  0  0  0  0  0
    6.1041   13.1328   25.5519 C   0  0  0  0  0  0  0  0  0  0  0  0
    7.1613   12.3338   25.1846 C   0  0  0  0  0  0  0  0  0  0  0  0
    8.1378   12.7993   24.1451 C   0  0  0  0  0  0  0  0  0  0  0  0
   10.7598   14.4584   21.7934 S   0  0  0  0  0  0  0  0  0  0  0  0
   12.5580   16.0703   20.0561 N   0  0  0  0  0  0  0  0  0  0  0  0
   13.1558   17.0066   19.3076 C   0  0  0  0  0  0  0  0  0  0  0  0
  1  2  2  0
  2  3  1  0
  3  4  2  0
  4  5  1  0
  5  6  2  0
  6  7  1  0
  7  8  2  0
  8  9  1  0
 10  9  1  6
 10 11  1  0
 11 12  1  0
 12 13  1  0
 13 14  2  0
 14 15  1  0
 15 16  2  0
 16 17  1  0
 17 18  2  0
 18 19  1  0
  8 20  1  0
  4 21  1  0
 21 22  2  0
 22  1  1  0
 20  5  1  0
 19 10  1  0
 18 13  1  0
M  END
>  <energy_score>  (102) 
-46.46158

>  <inchikey>  (102) 
RNASEUDRLKPVFP-UHFFFAOYSA-N

>  <smiles>  (102) 
c1ccc(-c2nnc(N[C@@H]3CCc4ccccc4C3)s2)nc1

>  <ref_pdb>  (102) 
A3564a

>  <alias>  (102) 
C12411-P219

>  <HIPPO Pose ID>  (102) 
416044

>  <name>  (102) 
C12411-P219

>  <HIPPO Compound ID>  (102) 
12411

>  <ref_mols>  (102) 
A3564a,A1778a

>  <distance_score>  (102) 
1.609254

>  <inspiration_score>  (102) 
None

$$$$
C22220-P145
     RDKit          3D

 20 22  0  0  0  0  0  0  0  0999 V2000
   16.4414   20.2673   19.5631 C   0  0  0  0  0  0  0  0  0  0  0  0
   16.6097   18.8668   20.7933 C   0  0  2  0  0  0  0  0  0  0  0  0
   17.3317   20.4517   21.6704 C   0  0  0  0  0  0  0  0  0  0  0  0
   16.9322   21.7564   22.3584 C   0  0  0  0  0  0  0  0  0  0  0  0
   17.6538   20.7045   23.1417 C   0  0  0  0  0  0  0  0  0  0  0  0
   17.7444   18.6795   20.1040 N   0  0  0  0  0  0  0  0  0  0  0  0
   19.2623   18.8891   20.7835 C   0  0  0  0  0  0  0  0  0  0  0  0
   19.6095   19.0829   21.8808 O   0  0  0  0  0  0  0  0  0  0  0  0
   20.3920   18.9485   19.8247 C   0  0  0  0  0  0  0  0  0  0  0  0
   21.6312   18.6469   20.3966 C   0  0  0  0  0  0  0  0  0  0  0  0
   22.7259   19.4439   20.2526 N   0  0  0  0  0  0  0  0  0  0  0  0
   22.5302   20.5722   19.5301 C   0  0  0  0  0  0  0  0  0  0  0  0
   21.3287   20.8434   18.8965 C   0  0  0  0  0  0  0  0  0  0  0  0
   20.2484   20.0252   18.9883 N   0  0  0  0  0  0  0  0  0  0  0  0
   15.9245   18.4781   20.8347 C   0  0  0  0  0  0  0  0  0  0  0  0
   14.5949   18.0525   20.6316 C   0  0  0  0  0  0  0  0  0  0  0  0
   13.0562   17.0320   21.1149 C   0  0  0  0  0  0  0  0  0  0  0  0
   12.6497   16.2070   22.0691 C   0  0  0  0  0  0  0  0  0  0  0  0
   13.8954   15.9773   22.3027 C   0  0  0  0  0  0  0  0  0  0  0  0
   15.0998   17.0391   21.6410 C   0  0  0  0  0  0  0  0  0  0  0  0
  2  1  1  6
  2  3  1  0
  3  4  1  0
  4  5  1  0
  2  6  1  0
  6  7  1  0
  7  8  2  0
  7  9  1  0
  9 10  2  0
 10 11  1  0
 11 12  2  0
 12 13  1  0
 13 14  2  0
  6 15  1  0
 15 16  2  0
 16 17  1  0
 17 18  2  0
 18 19  1  0
 19 20  2  0
  5  3  1  0
 14  9  1  0
 20 15  1  0
M  END
>  <energy_score>  (103) 
1285.316972

>  <inchikey>  (103) 
HRTCCWDKVTTZHK-UHFFFAOYSA-N

>  <smiles>  (103) 
C[C@H](C1CC1)N(C(=O)c1cnccn1)c1ccccc1

>  <ref_pdb>  (103) 
A3181b

>  <alias>  (103) 
C22220-P145

>  <HIPPO Pose ID>  (103) 
422808

>  <name>  (103) 
C22220-P145

>  <HIPPO Compound ID>  (103) 
22220

>  <ref_mols>  (103) 
A3181b,A1068a

>  <distance_score>  (103) 
5.251534

>  <inspiration_score>  (103) 
None

$$$$
C32415-P95
     RDKit          3D

 22 24  0  0  0  0  0  0  0  0999 V2000
   23.3247   19.3559   24.4987 C   0  0  0  0  0  0  0  0  0  0  0  0
   24.1986   20.2742   23.6613 C   0  0  0  0  0  0  0  0  0  0  0  0
   23.4647   21.4116   22.9893 C   0  0  0  0  0  0  0  0  0  0  0  0
   22.6465   20.9449   21.8622 C   0  0  0  0  0  0  0  0  0  0  0  0
   23.0184   21.2321   20.6068 N   0  0  0  0  0  0  0  0  0  0  0  0
   22.0243   20.7334   19.8681 N   0  0  0  0  0  0  0  0  0  0  0  0
   21.0345   20.1618   20.6213 C   0  0  0  0  0  0  0  0  0  0  0  0
   19.7814   19.6797   20.3027 C   0  0  0  0  0  0  0  0  0  0  0  0
   18.9380   19.2256   21.3840 C   0  0  0  0  0  0  0  0  0  0  0  0
   19.2972   19.0786   22.7312 C   0  0  0  0  0  0  0  0  0  0  0  0
   18.2325   18.8128   23.9496 C   0  0  0  0  0  0  0  0  0  0  0  0
   18.0662   19.8110   24.5671 O   0  0  0  0  0  0  0  0  0  0  0  0
   17.6289   17.3320   24.1786 N   0  0  0  0  0  0  0  0  0  0  0  0
   16.7173   16.7554   25.3632 C   0  0  0  0  0  0  0  0  0  0  0  0
   15.5912   15.5511   25.4300 C   0  0  0  0  0  0  0  0  0  0  0  0
   15.8994   14.1949   25.4172 C   0  0  0  0  0  0  0  0  0  0  0  0
   14.9037   13.2138   25.4681 C   0  0  0  0  0  0  0  0  0  0  0  0
   13.6318   13.5087   25.6739 N   0  0  0  0  0  0  0  0  0  0  0  0
   13.4347   14.8008   25.9617 C   0  0  0  0  0  0  0  0  0  0  0  0
   14.3375   15.8167   25.8590 N   0  0  0  0  0  0  0  0  0  0  0  0
   20.5598   19.6885   22.9800 C   0  0  0  0  0  0  0  0  0  0  0  0
   21.4301   20.2208   21.9456 C   0  0  0  0  0  0  0  0  0  0  0  0
  1  2  1  0
  2  3  1  0
  3  4  1  0
  4  5  2  0
  5  6  1  0
  6  7  1  0
  7  8  2  0
  8  9  1  0
  9 10  2  0
 10 11  1  0
 11 12  2  0
 11 13  1  0
 13 14  1  0
 14 15  1  0
 15 16  2  0
 16 17  1  0
 17 18  2  0
 18 19  1  0
 19 20  2  0
 10 21  1  0
 21 22  2  0
 22  4  1  0
 22  7  1  0
 20 15  1  0
M  END
>  <energy_score>  (104) 
65.693087

>  <inchikey>  (104) 
OLVLBHADGADCLT-UHFFFAOYSA-N

>  <smiles>  (104) 
CCCc1n[nH]c2ccc(C(=O)NCc3ccncn3)cc12

>  <ref_pdb>  (104) 
A1068a

>  <alias>  (104) 
C32415-P95

>  <HIPPO Pose ID>  (104) 
422828

>  <name>  (104) 
C32415-P95

>  <HIPPO Compound ID>  (104) 
32415

>  <ref_mols>  (104) 
A3181b,A1068a

>  <distance_score>  (104) 
5.678162

>  <inspiration_score>  (104) 
None

$$$$
C13629-P136
     RDKit          3D

 23 25  0  0  0  0  0  0  0  0999 V2000
    6.5846   12.4664   29.3925 C   0  0  0  0  0  0  0  0  0  0  0  0
    5.8398   12.8839   28.1289 C   0  0  2  0  0  0  0  0  0  0  0  0
    4.0369   12.8689   28.4781 S   0  0  0  0  0  0  0  0  0  0  0  0
    3.4652   13.9978   27.2261 C   0  0  0  0  0  0  0  0  0  0  0  0
    2.2647   13.7484   26.5775 C   0  0  0  0  0  0  0  0  0  0  0  0
    1.8215   14.6503   25.6133 C   0  0  0  0  0  0  0  0  0  0  0  0
    2.5766   15.7821   25.3404 C   0  0  0  0  0  0  0  0  0  0  0  0
    3.7487   15.9658   26.0514 C   0  0  0  0  0  0  0  0  0  0  0  0
    4.2073   15.1015   26.9863 N   0  0  0  0  0  0  0  0  0  0  0  0
    6.1745   11.8980   26.9887 C   0  0  0  0  0  0  0  0  0  0  0  0
    5.6507   10.8474   26.8510 O   0  0  0  0  0  0  0  0  0  0  0  0
    7.3200   12.5496   26.1961 N   0  0  0  0  0  0  0  0  0  0  0  0
    6.7597   13.4140   24.9737 C   0  0  0  0  0  0  0  0  0  0  0  0
    7.2521   14.8617   25.1248 C   0  0  0  0  0  0  0  0  0  0  0  0
    8.6706   14.9273   25.6717 C   0  0  0  0  0  0  0  0  0  0  0  0
    9.6423   14.1394   24.8096 C   0  0  0  0  0  0  0  0  0  0  0  0
    9.2534   12.7157   24.4761 C   0  0  0  0  0  0  0  0  0  0  0  0
    9.9784   12.0761   23.4531 C   0  0  0  0  0  0  0  0  0  0  0  0
   10.9123   12.7934   22.7513 O   0  0  0  0  0  0  0  0  0  0  0  0
    9.7380   10.7472   23.1199 C   0  0  0  0  0  0  0  0  0  0  0  0
    8.8010   10.0105   23.8244 C   0  0  0  0  0  0  0  0  0  0  0  0
    8.0236   10.6351   24.7950 C   0  0  0  0  0  0  0  0  0  0  0  0
    8.1718   12.0063   25.0878 C   0  0  0  0  0  0  0  0  0  0  0  0
  2  1  1  1
  2  3  1  0
  3  4  1  0
  4  5  2  0
  5  6  1  0
  6  7  2  0
  7  8  1  0
  8  9  2  0
  2 10  1  0
 10 11  2  0
 10 12  1  0
 12 13  1  0
 13 14  1  0
 14 15  1  0
 15 16  1  0
 16 17  1  0
 17 18  2  0
 18 19  1  0
 18 20  1  0
 20 21  2  0
 21 22  1  0
 22 23  2  0
  9  4  1  0
 23 12  1  0
 23 17  1  0
M  END
>  <energy_score>  (105) 
13.845737

>  <inchikey>  (105) 
RNMVOHQXDNXOGF-UHFFFAOYSA-N

>  <smiles>  (105) 
C[C@H](Sc1ccccn1)C(=O)N1CCCCc2c(O)cccc21

>  <ref_pdb>  (105) 
A2846a

>  <alias>  (105) 
C13629-P136

>  <HIPPO Pose ID>  (105) 
423431

>  <name>  (105) 
C13629-P136

>  <HIPPO Compound ID>  (105) 
13629

>  <ref_mols>  (105) 
A2846a,A1778a

>  <distance_score>  (105) 
1.23499

>  <inspiration_score>  (105) 
None

$$$$
C10571-P136
     RDKit          3D

 22 23  0  0  0  0  0  0  0  0999 V2000
   12.6394   14.8462   22.4748 C   0  0  0  0  0  0  0  0  0  0  0  0
   12.4172   14.2547   23.8559 C   0  0  0  0  0  0  0  0  0  0  0  0
   13.2390   13.5323   24.3421 O   0  0  0  0  0  0  0  0  0  0  0  0
   11.1356   14.6701   24.3378 N   0  0  0  0  0  0  0  0  0  0  0  0
   10.3956   14.2791   25.5030 C   0  0  0  0  0  0  0  0  0  0  0  0
    9.6300   12.9555   25.2803 C   0  0  0  0  0  0  0  0  0  0  0  0
    9.7081   12.3829   23.8782 C   0  0  0  0  0  0  0  0  0  0  0  0
    8.3853   11.7615   23.5810 C   0  0  0  0  0  0  0  0  0  0  0  0
    7.2962   12.7904   23.6294 N   0  0  0  0  0  0  0  0  0  0  0  0
    7.3613   14.2187   23.6644 C   0  0  0  0  0  0  0  0  0  0  0  0
    8.3086   14.9579   23.7550 O   0  0  0  0  0  0  0  0  0  0  0  0
    5.9815   14.7848   23.4498 C   0  0  1  0  0  0  0  0  0  0  0  0
    5.7536   16.0986   24.1695 C   0  0  0  0  0  0  0  0  0  0  0  0
    5.9057   14.9595   21.6368 S   0  0  0  0  0  0  0  0  0  0  0  0
    7.6401   15.3648   21.2173 C   0  0  0  0  0  0  0  0  0  0  0  0
    8.1774   16.6195   21.4529 C   0  0  0  0  0  0  0  0  0  0  0  0
    9.4054   16.9835   20.9037 C   0  0  0  0  0  0  0  0  0  0  0  0
   10.1373   16.0387   20.2257 C   0  0  0  0  0  0  0  0  0  0  0  0
    9.6005   14.7740   20.1545 C   0  0  0  0  0  0  0  0  0  0  0  0
    8.3618   14.4138   20.5941 N   0  0  0  0  0  0  0  0  0  0  0  0
    7.1440   12.2588   25.0014 C   0  0  0  0  0  0  0  0  0  0  0  0
    8.1986   12.9069   25.9173 C   0  0  0  0  0  0  0  0  0  0  0  0
  1  2  1  0
  2  3  2  0
  2  4  1  0
  4  5  1  0
  5  6  1  0
  6  7  1  0
  7  8  1  0
  8  9  1  0
  9 10  1  0
 10 11  2  0
 10 12  1  0
 12 13  1  1
 12 14  1  0
 14 15  1  0
 15 16  2  0
 16 17  1  0
 17 18  2  0
 18 19  1  0
 19 20  2  0
  9 21  1  0
 21 22  1  0
 22  6  1  0
 20 15  1  0
M  END
>  <energy_score>  (106) 
82.8285

>  <inchikey>  (106) 
JUDZBSFMRUZZMJ-UHFFFAOYSA-N

>  <smiles>  (106) 
CC(=O)NCC1CCN(C(=O)[C@@H](C)Sc2ccccn2)CC1

>  <ref_pdb>  (106) 
A2846a

>  <alias>  (106) 
C10571-P136

>  <HIPPO Pose ID>  (106) 
423495

>  <name>  (106) 
C10571-P136

>  <HIPPO Compound ID>  (106) 
10571

>  <ref_mols>  (106) 
A2846a,A1778a

>  <distance_score>  (106) 
3.284633

>  <inspiration_score>  (106) 
None

$$$$
C39794-P38
     RDKit          3D

 22 23  0  0  0  0  0  0  0  0999 V2000
   28.0145   12.1375    2.0496 C   0  0  0  0  0  0  0  0  0  0  0  0
   26.9592   13.1098    2.4560 N   0  0  0  0  0  0  0  0  0  0  0  0
   26.1818   11.8224    2.5769 C   0  0  0  0  0  0  0  0  0  0  0  0
   26.1936   14.1413    1.6378 C   0  0  0  0  0  0  0  0  0  0  0  0
   26.2022   14.3538    0.4783 O   0  0  0  0  0  0  0  0  0  0  0  0
   25.3793   14.9799    2.6508 C   0  0  0  0  0  0  0  0  0  0  0  0
   24.1635   15.5498    2.0647 N   0  0  0  0  0  0  0  0  0  0  0  0
   24.2887   16.6820    1.1702 C   0  0  0  0  0  0  0  0  0  0  0  0
   23.0562   17.5777    1.2160 C   0  0  0  0  0  0  0  0  0  0  0  0
   21.7623   16.8263    1.5421 C   0  0  0  0  0  0  0  0  0  0  0  0
   21.8421   15.3364    1.2214 C   0  0  2  0  0  0  0  0  0  0  0  0
   20.6876   14.6114    1.7310 N   0  0  0  0  0  0  0  0  0  0  0  0
   19.1703   14.8720    1.5411 C   0  0  0  0  0  0  0  0  0  0  0  0
   18.6148   15.7509    1.0116 O   0  0  0  0  0  0  0  0  0  0  0  0
   18.4284   13.7302    2.2693 C   0  0  0  0  0  0  0  0  0  0  0  0
   17.0698   14.1942    2.8080 C   0  0  0  0  0  0  0  0  0  0  0  0
   15.9779   14.1760    1.7499 C   0  0  0  0  0  0  0  0  0  0  0  0
   15.9051   12.8878    1.1460 O   0  0  0  0  0  0  0  0  0  0  0  0
   17.0967   12.5893    0.4223 C   0  0  0  0  0  0  0  0  0  0  0  0
   18.2871   12.4959    1.3688 C   0  0  0  0  0  0  0  0  0  0  0  0
   23.0784   14.7020    1.8954 C   0  0  0  0  0  0  0  0  0  0  0  0
   23.0998   13.5190    2.2329 O   0  0  0  0  0  0  0  0  0  0  0  0
  1  2  1  0
  2  3  1  0
  2  4  1  0
  4  5  2  0
  4  6  1  0
  6  7  1  0
  7  8  1  0
  8  9  1  0
  9 10  1  0
 10 11  1  0
 11 12  1  1
 12 13  1  0
 13 14  2  0
 13 15  1  0
 15 16  1  0
 16 17  1  0
 17 18  1  0
 18 19  1  0
 19 20  1  0
 11 21  1  0
 21 22  2  0
 21  7  1  0
 20 15  1  0
M  END
>  <energy_score>  (107) 
47.819794

>  <inchikey>  (107) 
QIGIFMLZEQSIDK-UHFFFAOYSA-N

>  <smiles>  (107) 
CN(C)C(=O)CN1CCC[C@H](NC(=O)C2CCOCC2)C1=O

>  <ref_pdb>  (107) 
A0608a

>  <alias>  (107) 
C39794-P38

>  <HIPPO Pose ID>  (107) 
424174

>  <name>  (107) 
C39794-P38

>  <HIPPO Compound ID>  (107) 
39794

>  <ref_mols>  (107) 
A0486a,A0608a

>  <distance_score>  (107) 
3.334198

>  <inspiration_score>  (107) 
None

$$$$
C23295-P45
     RDKit          3D

 19 20  0  0  0  0  0  0  0  0999 V2000
   14.3237    4.7696   19.4191 C   0  0  0  0  0  0  0  0  0  0  0  0
   15.4640    4.5324   18.3164 C   0  0  1  0  0  0  0  0  0  0  0  0
   15.2044    6.5871   18.4507 C   0  0  0  0  0  0  0  0  0  0  0  0
   15.2696    7.9658   19.0983 C   0  0  0  0  0  0  0  0  0  0  0  0
   15.5662    8.5271   17.8837 F   0  0  0  0  0  0  0  0  0  0  0  0
   14.3629    8.8933   19.7286 F   0  0  0  0  0  0  0  0  0  0  0  0
   15.7972    8.0922   20.3234 F   0  0  0  0  0  0  0  0  0  0  0  0
   16.5682    2.8537   18.0554 N   0  0  0  0  0  0  0  0  0  0  0  0
   17.5459    1.7655   19.3315 C   0  0  0  0  0  0  0  0  0  0  0  0
   17.6378    2.0513   20.5271 O   0  0  0  0  0  0  0  0  0  0  0  0
   18.2743    0.4817   19.0855 C   0  0  0  0  0  0  0  0  0  0  0  0
   17.8024   -0.8247   19.3736 C   0  0  0  0  0  0  0  0  0  0  0  0
   18.7519   -1.7050   19.7971 N   0  0  0  0  0  0  0  0  0  0  0  0
   19.7691   -0.9408   20.0762 C   0  0  0  0  0  0  0  0  0  0  0  0
   20.9116   -1.2505   20.8433 C   0  0  0  0  0  0  0  0  0  0  0  0
   21.7859   -0.2877   21.1347 C   0  0  0  0  0  0  0  0  0  0  0  0
   21.5251    1.0344   20.5381 C   0  0  0  0  0  0  0  0  0  0  0  0
   20.5278    1.3856   19.7845 N   0  0  0  0  0  0  0  0  0  0  0  0
   19.5997    0.3621   19.6086 N   0  0  0  0  0  0  0  0  0  0  0  0
  2  1  1  1
  2  3  1  0
  3  4  1  0
  4  5  1  0
  4  6  1  0
  4  7  1  0
  2  8  1  0
  8  9  1  0
  9 10  2  0
  9 11  1  0
 11 12  2  0
 12 13  1  0
 13 14  2  0
 14 15  1  0
 15 16  2  0
 16 17  1  0
 17 18  2  0
 18 19  1  0
 19 11  1  0
 19 14  1  0
M  END
>  <energy_score>  (108) 
563.826544

>  <inchikey>  (108) 
NTDQUBFCCLFMCU-UHFFFAOYSA-N

>  <smiles>  (108) 
C[C@@H](CC(F)(F)F)NC(=O)c1cnc2cccnn12

>  <ref_pdb>  (108) 
A0202a

>  <alias>  (108) 
C23295-P45

>  <HIPPO Pose ID>  (108) 
429295

>  <name>  (108) 
C23295-P45

>  <HIPPO Compound ID>  (108) 
23295

>  <ref_mols>  (108) 
A1778a,A0202a

>  <distance_score>  (108) 
4.033783

>  <inspiration_score>  (108) 
None

$$$$
C12352-P183
     RDKit          3D

 22 23  0  0  0  0  0  0  0  0999 V2000
   11.9758   14.3032   25.9578 C   0  0  0  0  0  0  0  0  0  0  0  0
   12.8050   13.3223   25.0967 C   0  0  0  0  0  0  0  0  0  0  0  0
   12.2348   13.0230   23.7342 C   0  0  0  0  0  0  0  0  0  0  0  0
   12.0542   14.4923   22.8201 S   0  0  0  0  0  0  0  0  0  0  0  0
   11.1218   15.2343   23.6192 O   0  0  0  0  0  0  0  0  0  0  0  0
   13.3185   15.0845   22.5081 O   0  0  0  0  0  0  0  0  0  0  0  0
   11.3733   14.0612   21.4050 N   0  0  0  0  0  0  0  0  0  0  0  0
   11.1516   15.1396   20.4303 C   0  0  0  0  0  0  0  0  0  0  0  0
   10.1365   14.7036   19.4395 C   0  0  0  0  0  0  0  0  0  0  0  0
    8.7511   14.8624   20.1280 C   0  0  0  0  0  0  0  0  0  0  0  0
    8.6802   14.4753   21.5374 N   0  0  0  0  0  0  0  0  0  0  0  0
    7.5439   14.2151   22.3876 C   0  0  0  0  0  0  0  0  0  0  0  0
    6.3625   14.3365   22.1737 O   0  0  0  0  0  0  0  0  0  0  0  0
    8.0266   13.8160   23.8133 C   0  0  1  0  0  0  0  0  0  0  0  0
    7.2512   14.4030   24.7849 F   0  0  0  0  0  0  0  0  0  0  0  0
    8.1274   12.3779   24.0538 N   0  0  0  0  0  0  0  0  0  0  0  0
    7.5256   11.6880   25.0753 C   0  0  0  0  0  0  0  0  0  0  0  0
    7.9930   10.4012   24.9984 C   0  0  0  0  0  0  0  0  0  0  0  0
    8.9394   10.4188   23.9607 C   0  0  0  0  0  0  0  0  0  0  0  0
    9.0580   11.6302   23.4136 N   0  0  0  0  0  0  0  0  0  0  0  0
    9.1447   15.8568   21.7107 C   0  0  0  0  0  0  0  0  0  0  0  0
   10.4565   16.3257   21.0501 C   0  0  0  0  0  0  0  0  0  0  0  0
  1  2  1  0
  2  3  1  0
  3  4  1  0
  4  5  2  0
  4  6  2  0
  4  7  1  0
  7  8  1  0
  8  9  1  0
  9 10  1  0
 10 11  1  0
 11 12  1  0
 12 13  2  0
 12 14  1  0
 14 15  1  1
 14 16  1  0
 16 17  1  0
 17 18  2  0
 18 19  1  0
 19 20  2  0
 11 21  1  0
 21 22  1  0
 22  8  1  0
 20 16  1  0
M  END
>  <energy_score>  (109) 
55.369055

>  <inchikey>  (109) 
DKACWFDJCMGWDN-UHFFFAOYSA-N

>  <smiles>  (109) 
CCCS(=O)(=O)NC1CCN(C(=O)[C@@H](F)n2cccn2)CC1

>  <ref_pdb>  (109) 
A3436a

>  <alias>  (109) 
C12352-P183

>  <HIPPO Pose ID>  (109) 
429416

>  <name>  (109) 
C12352-P183

>  <HIPPO Compound ID>  (109) 
12352

>  <ref_mols>  (109) 
A0719a,A3436a

>  <distance_score>  (109) 
1.913135

>  <inspiration_score>  (109) 
None

$$$$
C13816-P106
     RDKit          3D

 23 25  0  0  0  0  0  0  0  0999 V2000
   12.4111   16.0087   21.2433 C   0  0  0  0  0  0  0  0  0  0  0  0
   11.3831   15.0087   20.7741 C   0  0  0  0  0  0  0  0  0  0  0  0
   10.2196   14.8613   21.7461 C   0  0  0  0  0  0  0  0  0  0  0  0
    9.1552   15.2469   21.5274 O   0  0  0  0  0  0  0  0  0  0  0  0
   10.8316   14.0184   22.9468 N   0  0  0  0  0  0  0  0  0  0  0  0
    9.7276   13.2337   24.3524 C   0  0  0  0  0  0  0  0  0  0  0  0
   10.0209   11.6970   24.5189 C   0  0  0  0  0  0  0  0  0  0  0  0
   11.2841   12.2065   24.0325 C   0  0  2  0  0  0  0  0  0  0  0  0
   12.5105   11.7097   24.8535 C   0  0  0  0  0  0  0  0  0  0  0  0
   12.5315   10.5265   25.0551 O   0  0  0  0  0  0  0  0  0  0  0  0
   13.4666   12.7224   25.1586 N   0  0  0  0  0  0  0  0  0  0  0  0
   14.8358   12.6324   25.7335 C   0  0  2  0  0  0  0  0  0  0  0  0
   15.5904   11.4157   25.1373 C   0  0  0  0  0  0  0  0  0  0  0  0
   15.8953   10.2873   26.0056 N   0  0  0  0  0  0  0  0  0  0  0  0
   17.1024   10.5155   26.8124 C   0  0  0  0  0  0  0  0  0  0  0  0
   17.3219   11.9371   27.3284 C   0  0  0  0  0  0  0  0  0  0  0  0
   16.1078   12.5406   27.9833 C   0  0  0  0  0  0  0  0  0  0  0  0
   16.1989   12.8498   29.3545 C   0  0  0  0  0  0  0  0  0  0  0  0
   15.1874   13.5439   30.0036 C   0  0  0  0  0  0  0  0  0  0  0  0
   14.0762   13.9416   29.2833 C   0  0  0  0  0  0  0  0  0  0  0  0
   13.9599   13.5989   27.9304 C   0  0  0  0  0  0  0  0  0  0  0  0
   14.9480   12.8711   27.2457 C   0  0  0  0  0  0  0  0  0  0  0  0
   10.3959   13.5853   24.1086 C   0  0  0  0  0  0  0  0  0  0  0  0
  1  2  1  0
  2  3  1  0
  3  4  2  0
  3  5  1  0
  5  6  1  0
  6  7  1  0
  7  8  1  0
  8  9  1  1
  9 10  2  0
  9 11  1  0
 12 11  1  1
 12 13  1  0
 13 14  1  0
 14 15  1  0
 15 16  1  0
 16 17  1  0
 17 18  2  0
 18 19  1  0
 19 20  2  0
 20 21  1  0
 21 22  2  0
  8 23  1  0
 23  5  1  0
 22 12  1  0
 22 17  1  0
M  END
>  <energy_score>  (110) 
724.210023

>  <inchikey>  (110) 
NIZZZSGKUWHKJO-UHFFFAOYSA-N

>  <smiles>  (110) 
CCC(=O)N1CC[C@H](C(=O)N[C@@H]2CNCCc3ccccc32)C1

>  <ref_pdb>  (110) 
A1140a

>  <alias>  (110) 
C13816-P106

>  <HIPPO Pose ID>  (110) 
432588

>  <name>  (110) 
C13816-P106

>  <HIPPO Compound ID>  (110) 
13816

>  <ref_mols>  (110) 
A1140a,A2293a

>  <distance_score>  (110) 
2.839723

>  <inspiration_score>  (110) 
None

$$$$
C23130-P37
     RDKit          3D

 22 22  0  0  0  0  0  0  0  0999 V2000
   12.7947   14.9158   22.4143 C   0  0  0  0  0  0  0  0  0  0  0  0
   11.9000   13.6934   22.3634 C   0  0  0  0  0  0  0  0  0  0  0  0
   11.0320   13.5861   23.6079 C   0  0  0  0  0  0  0  0  0  0  0  0
   11.0409   14.3743   24.4723 O   0  0  0  0  0  0  0  0  0  0  0  0
   10.1328   12.3297   23.3958 N   0  0  0  0  0  0  0  0  0  0  0  0
    9.0422   11.8631   24.1291 C   0  0  0  0  0  0  0  0  0  0  0  0
    8.8391   10.4931   24.1909 C   0  0  0  0  0  0  0  0  0  0  0  0
    7.8333    9.9745   25.0133 C   0  0  0  0  0  0  0  0  0  0  0  0
    6.9936   10.7981   25.7570 C   0  0  0  0  0  0  0  0  0  0  0  0
    6.0341   10.2551   26.6149 N   0  0  0  0  0  0  0  0  0  0  0  0
    5.0142   10.9580   27.5732 C   0  0  0  0  0  0  0  0  0  0  0  0
    4.7769   12.0935   27.7257 O   0  0  0  0  0  0  0  0  0  0  0  0
    4.3802    9.8635   28.4388 C   0  0  0  0  0  0  0  0  0  0  0  0
    3.5432   10.3268   29.6635 C   0  0  1  0  0  0  0  0  0  0  0  0
    4.0482   11.5925   30.3626 C   0  0  0  0  0  0  0  0  0  0  0  0
    2.0504   10.4430   29.3917 C   0  0  0  0  0  0  0  0  0  0  0  0
    1.3811   10.7079   30.5388 F   0  0  0  0  0  0  0  0  0  0  0  0
    1.5615    9.2759   28.9126 F   0  0  0  0  0  0  0  0  0  0  0  0
    1.7410   11.4018   28.5000 F   0  0  0  0  0  0  0  0  0  0  0  0
    7.1413   12.1677   25.6249 C   0  0  0  0  0  0  0  0  0  0  0  0
    8.1456   12.7085   24.7993 C   0  0  0  0  0  0  0  0  0  0  0  0
    8.1489   14.1929   24.6311 C   0  0  0  0  0  0  0  0  0  0  0  0
  1  2  1  0
  2  3  1  0
  3  4  2  0
  3  5  1  0
  5  6  1  0
  6  7  2  0
  7  8  1  0
  8  9  2  0
  9 10  1  0
 10 11  1  0
 11 12  2  0
 11 13  1  0
 13 14  1  0
 14 15  1  6
 14 16  1  0
 16 17  1  0
 16 18  1  0
 16 19  1  0
  9 20  1  0
 20 21  2  0
 21 22  1  0
 21  6  1  0
M  END
>  <energy_score>  (111) 
-25.480199

>  <inchikey>  (111) 
UGZOXRFYKLKGPI-UHFFFAOYSA-N

>  <smiles>  (111) 
CCC(=O)Nc1ccc(NC(=O)C[C@@H](C)C(F)(F)F)cc1C

>  <ref_pdb>  (111) 
A0310a

>  <alias>  (111) 
C23130-P37

>  <HIPPO Pose ID>  (111) 
435267

>  <name>  (111) 
C23130-P37

>  <HIPPO Compound ID>  (111) 
23130

>  <ref_mols>  (111) 
A1445a,A0310a

>  <distance_score>  (111) 
0.997458

>  <inspiration_score>  (111) 
None

$$$$
C25347-P198
     RDKit          3D

 18 19  0  0  0  0  0  0  0  0999 V2000
   10.4055   12.9408   23.0127 C   0  0  0  0  0  0  0  0  0  0  0  0
    9.2093   13.3821   23.8151 C   0  0  0  0  0  0  0  0  0  0  0  0
    9.0103   14.5058   24.0712 O   0  0  0  0  0  0  0  0  0  0  0  0
    8.4280   12.0972   24.2313 N   0  0  0  0  0  0  0  0  0  0  0  0
    7.2404   11.9535   24.9378 C   0  0  0  0  0  0  0  0  0  0  0  0
    6.7448   10.6964   25.2831 C   0  0  0  0  0  0  0  0  0  0  0  0
    5.5517   10.6078   26.0113 C   0  0  0  0  0  0  0  0  0  0  0  0
    4.9050   11.7891   26.3593 C   0  0  0  0  0  0  0  0  0  0  0  0
    3.5934   11.7905   27.1105 C   0  0  0  0  0  0  0  0  0  0  0  0
    3.1518   10.8093   27.5524 O   0  0  0  0  0  0  0  0  0  0  0  0
    3.0464   13.2272   27.1310 N   0  0  0  0  0  0  0  0  0  0  0  0
    1.8864   13.7766   27.7818 C   0  0  2  0  0  0  0  0  0  0  0  0
    0.6689   13.6049   26.8824 C   0  0  0  0  0  0  0  0  0  0  0  0
    2.2012   15.1898   28.1932 C   0  0  0  0  0  0  0  0  0  0  0  0
    1.2154   16.3336   28.1312 C   0  0  0  0  0  0  0  0  0  0  0  0
    2.3783   16.2957   27.1781 C   0  0  0  0  0  0  0  0  0  0  0  0
    5.3784   13.0279   26.0457 N   0  0  0  0  0  0  0  0  0  0  0  0
    6.5242   13.0748   25.3372 C   0  0  0  0  0  0  0  0  0  0  0  0
  1  2  1  0
  2  3  2  0
  2  4  1  0
  4  5  1  0
  5  6  2  0
  6  7  1  0
  7  8  2  0
  8  9  1  0
  9 10  2  0
  9 11  1  0
 11 12  1  0
 12 13  1  6
 12 14  1  0
 14 15  1  0
 15 16  1  0
  8 17  1  0
 17 18  2  0
 18  5  1  0
 16 14  1  0
M  END
>  <energy_score>  (112) 
1.16941

>  <inchikey>  (112) 
KLUCSWYALPHVEQ-UHFFFAOYSA-N

>  <smiles>  (112) 
CC(=O)Nc1ccc(C(=O)N[C@H](C)C2CC2)nc1

>  <ref_pdb>  (112) 
A3618a

>  <alias>  (112) 
C25347-P198

>  <HIPPO Pose ID>  (112) 
437728

>  <name>  (112) 
C25347-P198

>  <HIPPO Compound ID>  (112) 
25347

>  <ref_mols>  (112) 
A0310a,A3618a

>  <distance_score>  (112) 
1.232815

>  <inspiration_score>  (112) 
None

$$$$
C27189-P16
     RDKit          3D

 24 26  0  0  0  0  0  0  0  0999 V2000
   17.2771   21.4830   11.4456 O   0  0  0  0  0  0  0  0  0  0  0  0
   17.4007   22.3244   10.5672 C   0  0  0  0  0  0  0  0  0  0  0  0
   18.4144   23.2643   10.6357 O   0  0  0  0  0  0  0  0  0  0  0  0
   18.5815   24.1652   11.8373 C   0  0  2  0  0  0  0  0  0  0  0  0
   19.8004   23.9673   12.7482 C   0  0  0  0  0  0  0  0  0  0  0  0
   19.8811   24.2532   14.0494 N   0  0  0  0  0  0  0  0  0  0  0  0
   21.2096   24.0610   14.3851 C   0  0  0  0  0  0  0  0  0  0  0  0
   21.8742   24.1184   15.6254 C   0  0  0  0  0  0  0  0  0  0  0  0
   23.2518   23.8529   15.6637 C   0  0  0  0  0  0  0  0  0  0  0  0
   23.9514   23.5641   14.4877 C   0  0  0  0  0  0  0  0  0  0  0  0
   23.2978   23.4986   13.2428 C   0  0  0  0  0  0  0  0  0  0  0  0
   21.9242   23.7373   13.2478 C   0  0  0  0  0  0  0  0  0  0  0  0
   21.0396   23.7144   12.1884 O   0  0  0  0  0  0  0  0  0  0  0  0
   17.3003   24.3583   12.6481 C   0  0  0  0  0  0  0  0  0  0  0  0
   17.3102   25.5090   13.3579 F   0  0  0  0  0  0  0  0  0  0  0  0
   16.2428   24.4554   11.7908 F   0  0  0  0  0  0  0  0  0  0  0  0
   17.0225   23.3449   13.4868 F   0  0  0  0  0  0  0  0  0  0  0  0
   16.5395   22.4355    9.2901 C   0  0  1  0  0  0  0  0  0  0  0  0
   17.1740   21.8666    8.0010 C   0  0  0  0  0  0  0  0  0  0  0  0
   16.3546   20.6881    7.4427 C   0  0  0  0  0  0  0  0  0  0  0  0
   14.8960   20.9908    7.7054 C   0  0  0  0  0  0  0  0  0  0  0  0
   14.8936   21.6242    9.3659 S   0  0  0  0  0  0  0  0  0  0  0  0
   13.8133   22.5847    9.4292 O   0  0  0  0  0  0  0  0  0  0  0  0
   14.8975   20.4748   10.2424 O   0  0  0  0  0  0  0  0  0  0  0  0
  1  2  2  0
  2  3  1  0
  4  3  1  6
  4  5  1  0
  5  6  2  0
  6  7  1  0
  7  8  2  0
  8  9  1  0
  9 10  2  0
 10 11  1  0
 11 12  2  0
 12 13  1  0
  4 14  1  0
 14 15  1  0
 14 16  1  0
 14 17  1  0
 18  2  1  1
 18 19  1  0
 19 20  1  0
 20 21  1  0
 21 22  1  0
 22 23  2  0
 22 24  2  0
 13  5  1  0
 22 18  1  0
 12  7  1  0
M  END
>  <energy_score>  (113) 
-12.806408

>  <inchikey>  (113) 
DXDRNDWLNGFFGE-UHFFFAOYSA-N

>  <smiles>  (113) 
O=C(O[C@H](c1nc2ccccc2o1)C(F)(F)F)[C@H]1CCCS1(=O)=O

>  <ref_pdb>  (113) 
A0514b

>  <alias>  (113) 
C27189-P16

>  <HIPPO Pose ID>  (113) 
438429

>  <name>  (113) 
C27189-P16

>  <HIPPO Compound ID>  (113) 
27189

>  <ref_mols>  (113) 
A0514b,A0354a

>  <distance_score>  (113) 
10.536247

>  <inspiration_score>  (113) 
None

$$$$
C27676-P109
     RDKit          3D

 21 23  0  0  0  0  0  0  0  0999 V2000
   24.4384   13.3240    5.5019 C   0  0  0  0  0  0  0  0  0  0  0  0
   24.8531   13.3631    6.9814 O   0  0  0  0  0  0  0  0  0  0  0  0
   24.8091   12.7498    8.3289 C   0  0  0  0  0  0  0  0  0  0  0  0
   23.9013   13.3837    9.6365 C   0  0  0  0  0  0  0  0  0  0  0  0
   22.6676   12.7417    9.4957 N   0  0  0  0  0  0  0  0  0  0  0  0
   21.5002   13.2733   10.1832 C   0  0  0  0  0  0  0  0  0  0  0  0
   21.3786   14.5723   10.8193 C   0  0  0  0  0  0  0  0  0  0  0  0
   22.7987   15.5298   11.6543 C   0  0  0  0  0  0  0  0  0  0  0  0
   23.6115   16.7675   12.8889 N   0  0  0  0  0  0  0  0  0  0  0  0
   22.9815   18.2954   13.7460 C   0  0  0  0  0  0  0  0  0  0  0  0
   21.8843   18.8260   13.6532 O   0  0  0  0  0  0  0  0  0  0  0  0
   24.1724   19.1865   15.1286 C   0  0  0  0  0  0  0  0  0  0  0  0
   24.0479   20.9296   16.2839 C   0  0  0  0  0  0  0  0  0  0  0  0
   24.4519   21.4323   17.9830 C   0  0  0  0  0  0  0  0  0  0  0  0
   24.0565   21.5680   19.2786 C   0  0  0  0  0  0  0  0  0  0  0  0
   25.1394   22.2997   19.8865 C   0  0  0  0  0  0  0  0  0  0  0  0
   26.0970   22.6016   18.9141 C   0  0  0  0  0  0  0  0  0  0  0  0
   25.6030   22.1042   17.7595 N   0  0  0  0  0  0  0  0  0  0  0  0
   25.8769   21.8450   16.4438 C   0  0  0  0  0  0  0  0  0  0  0  0
   24.6022   21.0788   16.0226 N   0  0  0  0  0  0  0  0  0  0  0  0
   24.1632   14.5934   11.0365 N   0  0  0  0  0  0  0  0  0  0  0  0
  1  2  1  0
  2  3  1  0
  3  4  1  0
  4  5  2  0
  5  6  1  0
  6  7  2  0
  7  8  1  0
  8  9  1  0
  9 10  1  0
 10 11  2  0
 10 12  1  0
 12 13  2  0
 13 14  1  0
 14 15  2  0
 15 16  1  0
 16 17  2  0
 17 18  1  0
 18 19  1  0
 19 20  2  0
  8 21  2  0
 21  4  1  0
 20 12  1  0
 18 14  1  0
M  END
>  <energy_score>  (114) 
1776.432287

>  <inchikey>  (114) 
ZYZMZUKTOFJQRL-UHFFFAOYSA-N

>  <smiles>  (114) 
COCc1nccc(NC(=O)c2cc3cccn3cn2)n1

>  <ref_pdb>  (114) 
A1146a

>  <alias>  (114) 
C27676-P109

>  <HIPPO Pose ID>  (114) 
438736

>  <name>  (114) 
C27676-P109

>  <HIPPO Compound ID>  (114) 
27676

>  <ref_mols>  (114) 
A0486a,A1146a

>  <distance_score>  (114) 
6.760539

>  <inspiration_score>  (114) 
None

$$$$
C27907-P259
     RDKit          3D

 20 22  0  0  0  0  0  0  0  0999 V2000
    8.0898   14.7139   21.2415 C   0  0  0  0  0  0  0  0  0  0  0  0
    9.1803   15.1941   21.3747 C   0  0  0  0  0  0  0  0  0  0  0  0
   10.4582   15.8569   21.6634 C   0  0  2  0  0  0  0  0  0  0  0  0
   11.4093   15.7886   20.4896 C   0  0  0  0  0  0  0  0  0  0  0  0
   12.6188   16.2355   21.2219 C   0  0  0  0  0  0  0  0  0  0  0  0
   12.0654   16.3469   22.6102 C   0  0  0  0  0  0  0  0  0  0  0  0
   11.1223   15.2874   22.9315 N   0  0  0  0  0  0  0  0  0  0  0  0
   11.2617   13.8061   22.8510 C   0  0  0  0  0  0  0  0  0  0  0  0
   12.1336   13.1516   22.4364 O   0  0  0  0  0  0  0  0  0  0  0  0
   10.1169   13.1216   23.5059 C   0  0  0  0  0  0  0  0  0  0  0  0
    9.7748   11.7988   23.2599 C   0  0  0  0  0  0  0  0  0  0  0  0
    8.7558   11.2039   23.9953 C   0  0  0  0  0  0  0  0  0  0  0  0
    7.9996   11.9375   24.9263 C   0  0  0  0  0  0  0  0  0  0  0  0
    8.3205   13.2840   25.1431 C   0  0  0  0  0  0  0  0  0  0  0  0
    9.4173   13.8261   24.4690 C   0  0  0  0  0  0  0  0  0  0  0  0
    7.6919   14.2633   26.0994 C   0  0  0  0  0  0  0  0  0  0  0  0
    6.2241   14.1162   26.4249 C   0  0  0  0  0  0  0  0  0  0  0  0
    5.8824   12.8007   27.0988 C   0  0  0  0  0  0  0  0  0  0  0  0
    5.8166   11.6898   26.0773 C   0  0  0  0  0  0  0  0  0  0  0  0
    7.1050   11.1843   25.6696 N   0  0  0  0  0  0  0  0  0  0  0  0
  1  2  3  0
  3  2  1  6
  3  4  1  0
  4  5  1  0
  5  6  1  0
  6  7  1  0
  7  8  1  0
  8  9  2  0
  8 10  1  0
 10 11  2  0
 11 12  1  0
 12 13  2  0
 13 14  1  0
 14 15  2  0
 14 16  1  0
 16 17  1  0
 17 18  1  0
 18 19  1  0
 19 20  1  0
  7  3  1  0
 15 10  1  0
 20 13  1  0
M  END
>  <energy_score>  (115) 
42.202378

>  <inchikey>  (115) 
OMDDLJRXODFXKE-UHFFFAOYSA-N

>  <smiles>  (115) 
C#C[C@@H]1CCCN1C(=O)c1ccc2c(c1)CCCCN2

>  <ref_pdb>  (115) 
A3990a

>  <alias>  (115) 
C27907-P259

>  <HIPPO Pose ID>  (115) 
438995

>  <name>  (115) 
C27907-P259

>  <HIPPO Compound ID>  (115) 
27907

>  <ref_mols>  (115) 
A3990a,A1778a

>  <distance_score>  (115) 
2.744347

>  <inspiration_score>  (115) 
None

$$$$
C28573-P76
     RDKit          3D

 23 25  0  0  0  0  0  0  0  0999 V2000
   13.7604   10.7129   11.4061 O   0  0  0  0  0  0  0  0  0  0  0  0
   13.6595    9.6783   10.7546 C   0  0  0  0  0  0  0  0  0  0  0  0
   12.6446   10.0271    9.1152 C   0  0  0  0  0  0  0  0  0  0  0  0
   12.4351    9.6480    7.2680 C   0  0  0  0  0  0  0  0  0  0  0  0
   11.0197    9.4210    6.0229 C   0  0  0  0  0  0  0  0  0  0  0  0
   11.4207    8.5336    5.0742 N   0  0  0  0  0  0  0  0  0  0  0  0
   10.6235    8.1273    4.0948 N   0  0  0  0  0  0  0  0  0  0  0  0
    9.7196    9.0679    4.0700 C   0  0  0  0  0  0  0  0  0  0  0  0
    9.7670    9.8714    5.2612 C   0  0  0  0  0  0  0  0  0  0  0  0
    8.6372   11.0053    5.1956 C   0  0  0  0  0  0  0  0  0  0  0  0
    7.9139   11.2771    3.8518 C   0  0  0  0  0  0  0  0  0  0  0  0
    8.5559   10.6748    2.6239 C   0  0  0  0  0  0  0  0  0  0  0  0
    8.8348    9.2084    2.8844 C   0  0  0  0  0  0  0  0  0  0  0  0
   14.3652    8.0903   11.1516 N   0  0  0  0  0  0  0  0  0  0  0  0
   15.2740    7.5124   12.6002 C   0  0  0  0  0  0  0  0  0  0  0  0
   16.0091    5.7419   13.0390 C   0  0  0  0  0  0  0  0  0  0  0  0
   16.1572    3.8533   13.5809 C   0  0  0  0  0  0  0  0  0  0  0  0
   17.2399    2.8065   14.8631 C   0  0  1  0  0  0  0  0  0  0  0  0
   18.7765    2.5579   15.7186 C   0  0  0  0  0  0  0  0  0  0  0  0
   19.0310    2.8971   16.9185 N   0  0  0  0  0  0  0  0  0  0  0  0
   17.9102    2.9630   17.4724 N   0  0  0  0  0  0  0  0  0  0  0  0
   16.7692    2.7573   16.6032 C   0  0  0  0  0  0  0  0  0  0  0  0
   15.7128    3.0736   17.1072 O   0  0  0  0  0  0  0  0  0  0  0  0
  1  2  2  0
  2  3  1  0
  3  4  1  0
  4  5  1  0
  5  6  1  0
  6  7  1  0
  7  8  2  0
  8  9  1  0
  9 10  1  0
 10 11  1  0
 11 12  1  0
 12 13  1  0
  2 14  1  0
 14 15  1  0
 15 16  1  0
 16 17  1  0
 18 17  1  1
 18 19  1  0
 19 20  2  0
 20 21  1  0
 21 22  1  0
 22 23  2  0
  9  5  2  0
 22 18  1  0
 13  8  1  0
M  END
>  <energy_score>  (116) 
625.53356

>  <inchikey>  (116) 
XUXOYMDKVFCKDZ-UHFFFAOYSA-N

>  <smiles>  (116) 
O=C(CCc1[nH]nc2c1CCCC2)NCCC[C@H]1C=NNC1=O

>  <ref_pdb>  (116) 
A0717a

>  <alias>  (116) 
C28573-P76

>  <HIPPO Pose ID>  (116) 
439928

>  <name>  (116) 
C28573-P76

>  <HIPPO Compound ID>  (116) 
28573

>  <ref_mols>  (116) 
A0717a,A0341a

>  <distance_score>  (116) 
5.97982

>  <inspiration_score>  (116) 
None

$$$$
C22223-P136
     RDKit          3D

 18 19  0  0  0  0  0  0  0  0999 V2000
   15.8207   19.5476   19.6815 C   0  0  0  0  0  0  0  0  0  0  0  0
   16.2445   18.1089   19.8597 C   0  0  2  0  0  0  0  0  0  0  0  0
   15.1126   16.9149   20.9574 N   0  0  0  0  0  0  0  0  0  0  0  0
   13.8254   15.8608   20.5390 C   0  0  0  0  0  0  0  0  0  0  0  0
   13.2615   15.6747   19.4578 O   0  0  0  0  0  0  0  0  0  0  0  0
   13.1316   15.0648   21.6281 C   0  0  0  0  0  0  0  0  0  0  0  0
   12.5406   15.7246   22.6617 C   0  0  0  0  0  0  0  0  0  0  0  0
   11.7329   15.2019   23.6366 N   0  0  0  0  0  0  0  0  0  0  0  0
   11.3661   13.9401   23.4191 C   0  0  0  0  0  0  0  0  0  0  0  0
   11.8306   13.2734   22.3135 C   0  0  0  0  0  0  0  0  0  0  0  0
   12.7208   13.7938   21.4167 N   0  0  0  0  0  0  0  0  0  0  0  0
   18.0116   18.7122   20.0897 C   0  0  0  0  0  0  0  0  0  0  0  0
   19.0516   19.1140   18.5423 S   0  0  0  0  0  0  0  0  0  0  0  0
   18.4998   20.6584   17.8984 C   0  0  0  0  0  0  0  0  0  0  0  0
   20.4129   19.3641   19.0024 O   0  0  0  0  0  0  0  0  0  0  0  0
   18.7909   18.0832   17.5676 O   0  0  0  0  0  0  0  0  0  0  0  0
   18.2932   19.8964   21.1400 C   0  0  0  0  0  0  0  0  0  0  0  0
   18.9982   18.6333   21.3342 C   0  0  0  0  0  0  0  0  0  0  0  0
  2  1  1  1
  2  3  1  0
  3  4  1  0
  4  5  2  0
  4  6  1  0
  6  7  2  0
  7  8  1  0
  8  9  2  0
  9 10  1  0
 10 11  2  0
  2 12  1  0
 12 13  1  0
 13 14  1  0
 13 15  2  0
 13 16  2  0
 12 17  1  0
 17 18  1  0
 11  6  1  0
 18 12  1  0
M  END
>  <energy_score>  (117) 
238.40189

>  <inchikey>  (117) 
CUJSNQIKFGAYAT-UHFFFAOYSA-N

>  <smiles>  (117) 
C[C@H](NC(=O)c1cnccn1)C1(S(C)(=O)=O)CC1

>  <ref_pdb>  (117) 
A2846a

>  <alias>  (117) 
C22223-P136

>  <HIPPO Pose ID>  (117) 
442475

>  <name>  (117) 
C22223-P136

>  <HIPPO Compound ID>  (117) 
22223

>  <ref_mols>  (117) 
A2846a,A1146a

>  <distance_score>  (117) 
6.038595

>  <inspiration_score>  (117) 
None

$$$$
C29440-P77
     RDKit          3D

 20 21  0  0  0  0  0  0  0  0999 V2000
   10.8723   15.3918   18.7265 C   0  0  0  0  0  0  0  0  0  0  0  0
   11.2418   15.5118   20.0935 O   0  0  0  0  0  0  0  0  0  0  0  0
   10.8495   14.3542   20.8231 C   0  0  0  0  0  0  0  0  0  0  0  0
   10.1513   14.7048   22.1355 C   0  0  2  0  0  0  0  0  0  0  0  0
   11.2011   15.4251   22.9558 C   0  0  0  0  0  0  0  0  0  0  0  0
    9.6871   13.5667   22.8735 N   0  0  0  0  0  0  0  0  0  0  0  0
   10.4379   12.5891   23.7510 C   0  0  0  0  0  0  0  0  0  0  0  0
   11.5718   12.4898   23.9670 O   0  0  0  0  0  0  0  0  0  0  0  0
    9.3850   11.8211   24.3749 C   0  0  0  0  0  0  0  0  0  0  0  0
    9.1168   10.4844   24.2979 C   0  0  0  0  0  0  0  0  0  0  0  0
    7.9648   10.1687   25.0565 C   0  0  0  0  0  0  0  0  0  0  0  0
    7.3821   11.2431   25.6869 C   0  0  0  0  0  0  0  0  0  0  0  0
    6.0553   11.3516   26.8414 S   0  0  0  0  0  0  0  0  0  0  0  0
    5.3623    9.8348   26.8099 N   0  0  0  0  0  0  0  0  0  0  0  0
    6.6697   11.5054   28.1377 O   0  0  0  0  0  0  0  0  0  0  0  0
    5.0897   12.2787   26.3107 O   0  0  0  0  0  0  0  0  0  0  0  0
    8.1568   12.6688   25.2309 S   0  0  0  0  0  0  0  0  0  0  0  0
    8.8527   15.5132   21.8757 C   0  0  0  0  0  0  0  0  0  0  0  0
    7.7048   15.6145   22.8957 C   0  0  0  0  0  0  0  0  0  0  0  0
    7.4927   14.8420   21.6453 C   0  0  0  0  0  0  0  0  0  0  0  0
  1  2  1  0
  2  3  1  0
  3  4  1  0
  4  5  1  1
  4  6  1  0
  6  7  1  0
  7  8  2  0
  7  9  1  0
  9 10  2  0
 10 11  1  0
 11 12  2  0
 12 13  1  0
 13 14  1  0
 13 15  2  0
 13 16  2  0
 12 17  1  0
  4 18  1  0
 18 19  1  0
 19 20  1  0
 17  9  1  0
 20 18  1  0
M  END
>  <energy_score>  (118) 
-17.414302

>  <inchikey>  (118) 
HBQPFNKNHYROJA-UHFFFAOYSA-N

>  <smiles>  (118) 
COC[C@](C)(NC(=O)c1ccc(S(N)(=O)=O)s1)C1CC1

>  <ref_pdb>  (118) 
A0719a

>  <alias>  (118) 
C29440-P77

>  <HIPPO Pose ID>  (118) 
443088

>  <name>  (118) 
C29440-P77

>  <HIPPO Compound ID>  (118) 
29440

>  <ref_mols>  (118) 
A0719a,A3176a

>  <distance_score>  (118) 
2.157764

>  <inspiration_score>  (118) 
None

$$$$
C10549-P176
     RDKit          3D

 24 25  0  0  0  0  0  0  0  0999 V2000
    6.8735   15.2219   23.8562 C   0  0  0  0  0  0  0  0  0  0  0  0
    7.8472   14.0457   23.7243 C   0  0  1  0  0  0  0  0  0  0  0  0
    9.6951   14.2214   23.5114 S   0  0  0  0  0  0  0  0  0  0  0  0
    9.8153   15.0764   21.9691 C   0  0  0  0  0  0  0  0  0  0  0  0
    8.7777   15.9257   21.8124 N   0  0  0  0  0  0  0  0  0  0  0  0
    8.7550   16.7390   20.7683 C   0  0  0  0  0  0  0  0  0  0  0  0
    9.6367   16.5923   19.7420 C   0  0  0  0  0  0  0  0  0  0  0  0
   10.6369   15.6360   19.8198 C   0  0  0  0  0  0  0  0  0  0  0  0
   10.8304   14.9492   21.0141 C   0  0  0  0  0  0  0  0  0  0  0  0
   11.9423   13.9654   21.2066 C   0  0  0  0  0  0  0  0  0  0  0  0
   12.3419   13.8157   22.3245 O   0  0  0  0  0  0  0  0  0  0  0  0
   12.2825   13.2784   19.9871 N   0  0  0  0  0  0  0  0  0  0  0  0
   13.1299   12.1358   19.7513 C   0  0  0  0  0  0  0  0  0  0  0  0
   13.7308   10.6686   20.2988 C   0  0  0  0  0  0  0  0  0  0  0  0
   12.0123    9.4851   20.6889 C   0  0  0  0  0  0  0  0  0  0  0  0
   15.5843   10.9708   20.9708 C   0  0  0  0  0  0  0  0  0  0  0  0
   14.0362    9.3887   19.8420 C   0  0  0  0  0  0  0  0  0  0  0  0
    7.7268   13.2938   25.0482 C   0  0  0  0  0  0  0  0  0  0  0  0
    7.8779   13.8385   26.1107 O   0  0  0  0  0  0  0  0  0  0  0  0
    7.4214   11.9491   24.7402 N   0  0  0  0  0  0  0  0  0  0  0  0
    8.6989   11.1465   24.5651 C   0  0  0  0  0  0  0  0  0  0  0  0
    8.4433    9.7282   24.1412 C   0  0  0  0  0  0  0  0  0  0  0  0
    7.1655    9.5481   24.8547 C   0  0  0  0  0  0  0  0  0  0  0  0
    7.0863   10.8204   25.6108 C   0  0  0  0  0  0  0  0  0  0  0  0
  2  1  1  1
  2  3  1  0
  3  4  1  0
  4  5  2  0
  5  6  1  0
  6  7  2  0
  7  8  1  0
  8  9  2  0
  9 10  1  0
 10 11  2  0
 10 12  1  0
 12 13  1  0
 13 14  1  0
 14 15  1  0
 14 16  1  0
 14 17  1  0
  2 18  1  0
 18 19  2  0
 18 20  1  0
 20 21  1  0
 21 22  1  0
 22 23  1  0
 23 24  1  0
  9  4  1  0
 24 20  1  0
M  END
>  <energy_score>  (119) 
424.619955

>  <inchikey>  (119) 
FJJPHLJGSPZUDZ-UHFFFAOYSA-N

>  <smiles>  (119) 
C[C@@H](Sc1ncccc1C(=O)NCC(C)(C)C)C(=O)N1CCCC1

>  <ref_pdb>  (119) 
A3392a

>  <alias>  (119) 
C10549-P176

>  <HIPPO Pose ID>  (119) 
443770

>  <name>  (119) 
C10549-P176

>  <HIPPO Compound ID>  (119) 
10549

>  <ref_mols>  (119) 
A3392a,A1778a

>  <distance_score>  (119) 
2.236961

>  <inspiration_score>  (119) 
None

$$$$
C20145-P356
     RDKit          3D

 23 25  0  0  0  0  0  0  0  0999 V2000
   11.0253   13.0943   24.8572 O   0  0  0  0  0  0  0  0  0  0  0  0
   10.5486   14.1246   24.5531 C   0  0  0  0  0  0  0  0  0  0  0  0
    9.2481   14.6247   25.2355 C   0  0  0  0  0  0  0  0  0  0  0  0
    8.0420   14.5323   24.5091 O   0  0  0  0  0  0  0  0  0  0  0  0
    7.2094   13.3725   24.6662 C   0  0  2  0  0  0  0  0  0  0  0  0
    6.4926   13.3650   26.0157 C   0  0  0  0  0  0  0  0  0  0  0  0
    5.6537   12.1153   26.2108 C   0  0  0  0  0  0  0  0  0  0  0  0
    6.4023   10.8076   25.9360 C   0  0  0  0  0  0  0  0  0  0  0  0
    7.4955   10.8646   24.9108 C   0  0  0  0  0  0  0  0  0  0  0  0
    8.1383    9.6796   24.5177 C   0  0  0  0  0  0  0  0  0  0  0  0
    9.1402    9.6656   23.5605 C   0  0  0  0  0  0  0  0  0  0  0  0
    9.4250   10.8414   22.9144 C   0  0  0  0  0  0  0  0  0  0  0  0
    8.7666   12.0063   23.2664 C   0  0  0  0  0  0  0  0  0  0  0  0
    7.8678   12.0645   24.3191 C   0  0  0  0  0  0  0  0  0  0  0  0
   10.9762   15.1291   23.5072 N   0  0  0  0  0  0  0  0  0  0  0  0
   12.1692   15.1603   22.6320 C   0  0  0  0  0  0  0  0  0  0  0  0
   12.0590   16.1261   21.4990 C   0  0  0  0  0  0  0  0  0  0  0  0
   10.6350   15.9223   21.1645 C   0  0  1  0  0  0  0  0  0  0  0  0
   10.3537   15.5253   19.7503 C   0  0  0  0  0  0  0  0  0  0  0  0
   10.4397   16.5852   18.9244 F   0  0  0  0  0  0  0  0  0  0  0  0
   11.1750   14.5703   19.2806 F   0  0  0  0  0  0  0  0  0  0  0  0
    9.0848   15.0738   19.6969 F   0  0  0  0  0  0  0  0  0  0  0  0
   10.3226   14.8415   22.1658 C   0  0  0  0  0  0  0  0  0  0  0  0
  1  2  2  0
  2  3  1  0
  3  4  1  0
  5  4  1  1
  5  6  1  0
  6  7  1  0
  7  8  1  0
  8  9  1  0
  9 10  2  0
 10 11  1  0
 11 12  2  0
 12 13  1  0
 13 14  2  0
  2 15  1  0
 15 16  1  0
 16 17  1  0
 17 18  1  0
 18 19  1  6
 19 20  1  0
 19 21  1  0
 19 22  1  0
 18 23  1  0
 14  5  1  0
 23 15  1  0
 14  9  1  0
M  END
>  <energy_score>  (120) 
48.516359

>  <inchikey>  (120) 
ZHEXKJJYJURADK-UHFFFAOYSA-N

>  <smiles>  (120) 
O=C(CO[C@@H]1CCCc2ccccc21)N1CC[C@@H](C(F)(F)F)C1

>  <ref_pdb>  (120) 
A4418a

>  <alias>  (120) 
C20145-P356

>  <HIPPO Pose ID>  (120) 
448908

>  <name>  (120) 
C20145-P356

>  <HIPPO Compound ID>  (120) 
20145

>  <ref_mols>  (120) 
A1778a,A4418a

>  <distance_score>  (120) 
1.710392

>  <inspiration_score>  (120) 
None

$$$$
C27893-P356
     RDKit          3D

 22 24  0  0  0  0  0  0  0  0999 V2000
   11.4195   15.0970   18.3690 C   0  0  0  0  0  0  0  0  0  0  0  0
   11.1011   14.8094   19.7903 C   0  0  0  0  0  0  0  0  0  0  0  0
   11.9187   14.2790   20.5305 O   0  0  0  0  0  0  0  0  0  0  0  0
    9.7534   15.2550   20.2501 C   0  0  2  0  0  0  0  0  0  0  0  0
    9.8179   16.7120   20.3785 C   0  0  0  0  0  0  0  0  0  0  0  0
    9.2132   16.8212   21.7123 C   0  0  0  0  0  0  0  0  0  0  0  0
    8.2495   15.8064   22.1828 N   0  0  0  0  0  0  0  0  0  0  0  0
    7.8339   15.4140   23.5931 C   0  0  0  0  0  0  0  0  0  0  0  0
    8.2452   15.7756   24.6384 O   0  0  0  0  0  0  0  0  0  0  0  0
    6.6842   14.4108   23.5010 C   0  0  0  0  0  0  0  0  0  0  0  0
    6.2380   13.9112   24.7532 O   0  0  0  0  0  0  0  0  0  0  0  0
    7.1754   13.2987   25.6429 C   0  0  1  0  0  0  0  0  0  0  0  0
    6.2960   12.7048   26.7491 C   0  0  0  0  0  0  0  0  0  0  0  0
    5.5651   11.4798   26.2569 C   0  0  0  0  0  0  0  0  0  0  0  0
    6.5005   10.4247   25.6701 C   0  0  0  0  0  0  0  0  0  0  0  0
    7.6393   10.9377   24.8393 C   0  0  0  0  0  0  0  0  0  0  0  0
    8.3639   10.0628   24.0198 C   0  0  0  0  0  0  0  0  0  0  0  0
    9.4289   10.5315   23.2628 C   0  0  0  0  0  0  0  0  0  0  0  0
    9.8365   11.8544   23.3909 C   0  0  0  0  0  0  0  0  0  0  0  0
    9.1973   12.6941   24.2844 C   0  0  0  0  0  0  0  0  0  0  0  0
    8.0378   12.2746   24.9424 C   0  0  0  0  0  0  0  0  0  0  0  0
    9.3504   14.8957   21.6579 C   0  0  0  0  0  0  0  0  0  0  0  0
  1  2  1  0
  2  3  2  0
  4  2  1  1
  4  5  1  0
  5  6  1  0
  6  7  1  0
  7  8  1  0
  8  9  2  0
  8 10  1  0
 10 11  1  0
 12 11  1  6
 12 13  1  0
 13 14  1  0
 14 15  1  0
 15 16  1  0
 16 17  2  0
 17 18  1  0
 18 19  2  0
 19 20  1  0
 20 21  2  0
  7 22  1  0
 22  4  1  0
 21 12  1  0
 21 16  1  0
M  END
>  <energy_score>  (121) 
45.48201

>  <inchikey>  (121) 
FVBCHNDLKPVLMF-UHFFFAOYSA-N

>  <smiles>  (121) 
CC(=O)[C@@H]1CCN(C(=O)CO[C@H]2CCCc3ccccc32)C1

>  <ref_pdb>  (121) 
A4418a

>  <alias>  (121) 
C27893-P356

>  <HIPPO Pose ID>  (121) 
448914

>  <name>  (121) 
C27893-P356

>  <HIPPO Compound ID>  (121) 
27893

>  <ref_mols>  (121) 
A1778a,A4418a

>  <distance_score>  (121) 
1.94859

>  <inspiration_score>  (121) 
None

$$$$
C13661-P274
     RDKit          3D

 21 23  0  0  0  0  0  0  0  0999 V2000
    7.2102   14.9785   24.3972 C   0  0  0  0  0  0  0  0  0  0  0  0
    7.3749   13.8148   23.4176 C   0  0  2  0  0  0  0  0  0  0  0  0
    8.2889   12.3092   23.9793 S   0  0  0  0  0  0  0  0  0  0  0  0
    7.2550   11.6810   25.2606 C   0  0  0  0  0  0  0  0  0  0  0  0
    6.9321   12.4847   26.3350 C   0  0  0  0  0  0  0  0  0  0  0  0
    6.0842   12.0121   27.3247 C   0  0  0  0  0  0  0  0  0  0  0  0
    5.6024   10.7239   27.2321 C   0  0  0  0  0  0  0  0  0  0  0  0
    6.0124    9.9672   26.1537 C   0  0  0  0  0  0  0  0  0  0  0  0
    6.8406   10.4000   25.1787 N   0  0  0  0  0  0  0  0  0  0  0  0
    7.9653   14.3546   22.0964 C   0  0  0  0  0  0  0  0  0  0  0  0
    7.4067   14.1726   21.0773 O   0  0  0  0  0  0  0  0  0  0  0  0
    9.2082   15.1620   22.4009 N   0  0  0  0  0  0  0  0  0  0  0  0
   10.0290   16.0412   21.5282 C   0  0  0  0  0  0  0  0  0  0  0  0
   10.8028   15.4442   20.3994 C   0  0  0  0  0  0  0  0  0  0  0  0
   11.6258   14.6372   21.2965 C   0  0  0  0  0  0  0  0  0  0  0  0
   10.5204   14.2686   22.2757 C   0  0  1  0  0  0  0  0  0  0  0  0
   11.0901   14.0870   23.6676 C   0  0  0  0  0  0  0  0  0  0  0  0
   10.6719   14.7561   24.7177 N   0  0  0  0  0  0  0  0  0  0  0  0
   11.5818   14.6426   25.7290 C   0  0  0  0  0  0  0  0  0  0  0  0
   12.6503   13.8110   25.4811 C   0  0  0  0  0  0  0  0  0  0  0  0
   12.3821   13.0320   24.0049 S   0  0  0  0  0  0  0  0  0  0  0  0
  2  1  1  1
  2  3  1  0
  3  4  1  0
  4  5  2  0
  5  6  1  0
  6  7  2  0
  7  8  1  0
  8  9  2  0
  2 10  1  0
 10 11  2  0
 10 12  1  0
 12 13  1  0
 13 14  1  0
 14 15  1  0
 15 16  1  0
 16 17  1  1
 17 18  2  0
 18 19  1  0
 19 20  2  0
 20 21  1  0
  9  4  1  0
 16 12  1  0
 21 17  1  0
M  END
>  <energy_score>  (122) 
-12.339832

>  <inchikey>  (122) 
IMISIXHIMJCONY-UHFFFAOYSA-N

>  <smiles>  (122) 
C[C@H](Sc1ccccn1)C(=O)N1CCC[C@H]1c1nccs1

>  <ref_pdb>  (122) 
A4031a

>  <alias>  (122) 
C13661-P274

>  <HIPPO Pose ID>  (122) 
450577

>  <name>  (122) 
C13661-P274

>  <HIPPO Compound ID>  (122) 
13661

>  <ref_mols>  (122) 
A4031a,A1776a

>  <distance_score>  (122) 
2.431194

>  <inspiration_score>  (122) 
None

$$$$
C20940-P248
     RDKit          3D

 14 14  0  0  0  0  0  0  0  0999 V2000
   11.5158   15.1766   18.3832 C   0  0  0  0  0  0  0  0  0  0  0  0
   10.7113   15.3690   19.5619 C   0  0  0  0  0  0  0  0  0  0  0  0
   10.0107   15.4378   20.5259 C   0  0  0  0  0  0  0  0  0  0  0  0
    9.0886   15.4420   21.6440 C   0  0  0  0  0  0  0  0  0  0  0  0
    9.7544   14.8893   22.8942 C   0  0  0  0  0  0  0  0  0  0  0  0
    8.9262   13.8802   23.4870 N   0  0  0  0  0  0  0  0  0  0  0  0
    9.2343   12.4094   23.8365 C   0  0  0  0  0  0  0  0  0  0  0  0
   10.2292   11.8113   23.7685 O   0  0  0  0  0  0  0  0  0  0  0  0
    7.8849   11.7976   24.2210 C   0  0  1  0  0  0  0  0  0  0  0  0
    7.9311   10.3096   24.4894 C   0  0  0  0  0  0  0  0  0  0  0  0
    6.7990   10.0882   25.4724 C   0  0  0  0  0  0  0  0  0  0  0  0
    6.5919   11.4338   26.1016 C   0  0  0  0  0  0  0  0  0  0  0  0
    5.8771   11.6950   27.0509 O   0  0  0  0  0  0  0  0  0  0  0  0
    7.3487   12.3612   25.4279 N   0  0  0  0  0  0  0  0  0  0  0  0
  1  2  1  0
  2  3  3  0
  3  4  1  0
  4  5  1  0
  5  6  1  0
  6  7  1  0
  7  8  2  0
  9  7  1  1
  9 10  1  0
 10 11  1  0
 11 12  1  0
 12 13  2  0
 12 14  1  0
 14  9  1  0
M  END
>  <energy_score>  (123) 
9.051615

>  <inchikey>  (123) 
MLNMURZXNDQHPB-UHFFFAOYSA-N

>  <smiles>  (123) 
CC#CCCNC(=O)[C@H]1CCC(=O)N1

>  <ref_pdb>  (123) 
A3956a

>  <alias>  (123) 
C20940-P248

>  <HIPPO Pose ID>  (123) 
451909

>  <name>  (123) 
C20940-P248

>  <HIPPO Compound ID>  (123) 
20940

>  <ref_mols>  (123) 
A3956a,A1778a

>  <distance_score>  (123) 
1.19123

>  <inspiration_score>  (123) 
None

$$$$
C20970-P248
     RDKit          3D

 18 18  0  0  0  0  0  0  0  0999 V2000
   10.2512   16.0267   19.1475 C   0  0  0  0  0  0  0  0  0  0  0  0
   10.6326   14.9592   20.1485 C   0  0  0  0  0  0  0  0  0  0  0  0
   12.1281   14.7381   20.0742 C   0  0  0  0  0  0  0  0  0  0  0  0
   10.0306   15.1906   21.5455 C   0  0  0  0  0  0  0  0  0  0  0  0
   10.6573   14.2737   22.6030 C   0  0  2  0  0  0  0  0  0  0  0  0
    9.6561   13.7062   23.4984 N   0  0  0  0  0  0  0  0  0  0  0  0
    9.0409   12.2949   23.5447 C   0  0  0  0  0  0  0  0  0  0  0  0
    9.1795   11.3891   22.8298 O   0  0  0  0  0  0  0  0  0  0  0  0
    8.2364   12.1965   24.8128 C   0  0  1  0  0  0  0  0  0  0  0  0
    7.0486   13.1223   24.9260 C   0  0  0  0  0  0  0  0  0  0  0  0
    6.2266   12.4523   25.8878 N   0  0  0  0  0  0  0  0  0  0  0  0
    6.4468   11.0901   25.8661 C   0  0  0  0  0  0  0  0  0  0  0  0
    5.7784   10.2672   26.4611 O   0  0  0  0  0  0  0  0  0  0  0  0
    7.6201   10.8097   24.9816 C   0  0  0  0  0  0  0  0  0  0  0  0
   11.7626   14.9895   23.3830 C   0  0  0  0  0  0  0  0  0  0  0  0
   12.5290   15.7830   22.6199 F   0  0  0  0  0  0  0  0  0  0  0  0
   11.2398   15.7722   24.3614 F   0  0  0  0  0  0  0  0  0  0  0  0
   12.5698   14.1008   24.0136 F   0  0  0  0  0  0  0  0  0  0  0  0
  1  2  1  0
  2  3  1  0
  2  4  1  0
  5  4  1  6
  5  6  1  0
  6  7  1  0
  7  8  2  0
  9  7  1  6
  9 10  1  0
 10 11  1  0
 11 12  1  0
 12 13  2  0
 12 14  1  0
  5 15  1  0
 15 16  1  0
 15 17  1  0
 15 18  1  0
 14  9  1  0
M  END
>  <energy_score>  (124) 
6.680349

>  <inchikey>  (124) 
BULTUWPSNNDDDR-UHFFFAOYSA-N

>  <smiles>  (124) 
CC(C)C[C@H](NC(=O)[C@H]1CNC(=O)C1)C(F)(F)F

>  <ref_pdb>  (124) 
A3956a

>  <alias>  (124) 
C20970-P248

>  <HIPPO Pose ID>  (124) 
451933

>  <name>  (124) 
C20970-P248

>  <HIPPO Compound ID>  (124) 
20970

>  <ref_mols>  (124) 
A3956a,A1778a

>  <distance_score>  (124) 
1.249518

>  <inspiration_score>  (124) 
None

$$$$
C1418-P183
     RDKit          3D

 15 15  0  0  0  0  0  0  0  0999 V2000
   11.2471   14.4468   22.8568 C   0  0  0  0  0  0  0  0  0  0  0  0
    9.9276   14.3971   22.1020 C   0  0  0  0  0  0  0  0  0  0  0  0
    8.7636   14.0965   22.9921 C   0  0  0  0  0  0  0  0  0  0  0  0
    8.5110   12.9678   23.6843 C   0  0  0  0  0  0  0  0  0  0  0  0
    9.3362   11.7252   23.5510 C   0  0  0  0  0  0  0  0  0  0  0  0
    7.3131   13.0893   24.6090 C   0  0  0  0  0  0  0  0  0  0  0  0
    6.5261   13.9300   24.4318 O   0  0  0  0  0  0  0  0  0  0  0  0
    7.3802   11.9961   25.6942 N   0  0  0  0  0  0  0  0  0  0  0  0
    6.5417   11.7664   26.8475 C   0  0  0  0  0  0  0  0  0  0  0  0
    5.2305   12.5557   26.9249 C   0  0  2  0  0  0  0  0  0  0  0  0
    5.4705   14.0143   27.3302 C   0  0  0  0  0  0  0  0  0  0  0  0
    4.1771   14.8174   27.2230 C   0  0  0  0  0  0  0  0  0  0  0  0
    2.9403   13.9355   27.3883 C   0  0  0  0  0  0  0  0  0  0  0  0
    3.2076   12.7564   28.3211 C   0  0  0  0  0  0  0  0  0  0  0  0
    4.3557   11.9282   27.9420 N   0  0  0  0  0  0  0  0  0  0  0  0
  1  2  1  0
  2  3  1  0
  3  4  2  3
  4  5  1  0
  4  6  1  0
  6  7  2  0
  6  8  1  0
  8  9  1  0
 10  9  1  1
 10 11  1  0
 11 12  1  0
 12 13  1  0
 13 14  1  0
 14 15  1  0
 15 10  1  0
M  END
>  <energy_score>  (125) 
-8.335501

>  <inchikey>  (125) 
RJOSSQZKFJTYBT-UHFFFAOYSA-N

>  <smiles>  (125) 
CCC=C(C)C(=O)NC[C@@H]1CCCCN1

>  <ref_pdb>  (125) 
A3436a

>  <alias>  (125) 
C1418-P183

>  <HIPPO Pose ID>  (125) 
452795

>  <name>  (125) 
C1418-P183

>  <HIPPO Compound ID>  (125) 
1418

>  <ref_mols>  (125) 
A3436a,A4320a

>  <distance_score>  (125) 
1.110472

>  <inspiration_score>  (125) 
None

$$$$
C29678-P371
     RDKit          3D

 22 24  0  0  0  0  0  0  0  0999 V2000
    5.2607   13.6348   26.2269 C   0  0  0  0  0  0  0  0  0  0  0  0
    5.7135   12.2413   26.0043 C   0  0  0  0  0  0  0  0  0  0  0  0
    5.1262   11.1977   26.6064 N   0  0  0  0  0  0  0  0  0  0  0  0
    5.8207   10.1334   26.1485 N   0  0  0  0  0  0  0  0  0  0  0  0
    6.9018   10.4685   25.3846 C   0  0  0  0  0  0  0  0  0  0  0  0
    7.8519    9.6444   24.8971 N   0  0  0  0  0  0  0  0  0  0  0  0
    8.8361   10.3253   24.2537 C   0  0  0  0  0  0  0  0  0  0  0  0
    8.8403   11.7027   24.0308 C   0  0  0  0  0  0  0  0  0  0  0  0
    9.9830   12.4016   23.7012 N   0  0  0  0  0  0  0  0  0  0  0  0
   10.1934   13.9212   23.4161 C   0  0  0  0  0  0  0  0  0  0  0  0
    9.4169   14.7925   23.3422 O   0  0  0  0  0  0  0  0  0  0  0  0
   11.6930   14.1372   23.3426 C   0  0  1  0  0  0  0  0  0  0  0  0
   11.9957   15.3705   22.6154 C   0  0  0  0  0  0  0  0  0  0  0  0
   12.3032   16.3394   22.0630 N   0  0  0  0  0  0  0  0  0  0  0  0
   12.2827   14.2197   24.7925 C   0  0  0  0  0  0  0  0  0  0  0  0
   11.4566   15.0811   25.7856 C   0  0  0  0  0  0  0  0  0  0  0  0
   11.5215   14.5902   27.2332 C   0  0  0  0  0  0  0  0  0  0  0  0
   12.7992   14.0384   27.6513 N   0  0  0  0  0  0  0  0  0  0  0  0
   13.3999   13.0818   26.7321 C   0  0  0  0  0  0  0  0  0  0  0  0
   12.6019   12.8640   25.4432 C   0  0  0  0  0  0  0  0  0  0  0  0
    7.7585   12.4725   24.4350 C   0  0  0  0  0  0  0  0  0  0  0  0
    6.8080   11.8369   25.2161 C   0  0  0  0  0  0  0  0  0  0  0  0
  1  2  1  0
  2  3  2  0
  3  4  1  0
  4  5  1  0
  5  6  2  0
  6  7  1  0
  7  8  2  0
  8  9  1  0
  9 10  1  0
 10 11  2  0
 10 12  1  0
 12 13  1  1
 13 14  3  0
 12 15  1  0
 15 16  1  0
 16 17  1  0
 17 18  1  0
 18 19  1  0
 19 20  1  0
  8 21  1  0
 21 22  2  0
 22  2  1  0
 22  5  1  0
 20 15  1  0
M  END
>  <energy_score>  (126) 
-24.302969

>  <inchikey>  (126) 
FYJMSWTZCOGYII-UHFFFAOYSA-N

>  <smiles>  (126) 
Cc1n[nH]c2ncc(NC(=O)[C@@H](C#N)C3CCNCC3)cc12

>  <ref_pdb>  (126) 
A4456a

>  <alias>  (126) 
C29678-P371

>  <HIPPO Pose ID>  (126) 
454531

>  <name>  (126) 
C29678-P371

>  <HIPPO Compound ID>  (126) 
29678

>  <ref_mols>  (126) 
A4456a,A0310a

>  <distance_score>  (126) 
1.452147

>  <inspiration_score>  (126) 
None

$$$$
C17988-P145
     RDKit          3D

 22 25  0  0  0  0  0  0  0  0999 V2000
   20.0531   19.4050   18.0948 O   0  0  0  0  0  0  0  0  0  0  0  0
   20.7298   18.5250   18.5609 C   0  0  0  0  0  0  0  0  0  0  0  0
   21.5806   17.4673   17.8759 N   0  0  0  0  0  0  0  0  0  0  0  0
   21.8216   17.1492   16.3056 C   0  0  0  0  0  0  0  0  0  0  0  0
   21.4025   18.0121   14.5845 C   0  0  0  0  0  0  0  0  0  0  0  0
   21.5432   18.4798   13.1115 C   0  0  0  0  0  0  0  0  0  0  0  0
   23.4266   17.9037   12.9836 C   0  0  0  0  0  0  0  0  0  0  0  0
   23.9808   18.8203   11.3002 C   0  0  0  0  0  0  0  0  0  0  0  0
   23.1512   19.9098    9.9097 C   0  0  0  0  0  0  0  0  0  0  0  0
   23.3807   20.1223    8.5181 C   0  0  0  0  0  0  0  0  0  0  0  0
   22.2804   20.2351    7.7609 N   0  0  0  0  0  0  0  0  0  0  0  0
   21.1675   20.1353    8.5436 N   0  0  0  0  0  0  0  0  0  0  0  0
   21.3157   19.4605    9.7615 C   0  0  0  0  0  0  0  0  0  0  0  0
   20.3739   18.5694   11.3073 C   0  0  0  0  0  0  0  0  0  0  0  0
   20.8319   18.5305   20.0430 C   0  0  0  0  0  0  0  0  0  0  0  0
   21.6652   17.8009   20.8836 C   0  0  0  0  0  0  0  0  0  0  0  0
   21.3542   18.2432   22.1119 N   0  0  0  0  0  0  0  0  0  0  0  0
   20.4024   19.2042   22.0337 C   0  0  0  0  0  0  0  0  0  0  0  0
   20.0352   19.4100   20.8032 N   0  0  0  0  0  0  0  0  0  0  0  0
   20.0866   19.7651   23.3532 C   0  0  0  0  0  0  0  0  0  0  0  0
   21.2710   19.2385   24.1990 C   0  0  0  0  0  0  0  0  0  0  0  0
   21.8213   18.0066   23.4549 C   0  0  0  0  0  0  0  0  0  0  0  0
  1  2  2  0
  2  3  1  0
  3  4  1  0
  4  5  1  0
  5  6  1  0
  6  7  2  0
  7  8  1  0
  8  9  2  0
  9 10  1  0
 10 11  2  0
 11 12  1  0
 12 13  1  0
 13 14  2  0
  2 15  1  0
 15 16  2  0
 16 17  1  0
 17 18  1  0
 18 19  2  0
 18 20  1  0
 20 21  1  0
 21 22  1  0
 14  6  1  0
 19 15  1  0
 13  9  1  0
 22 17  1  0
M  END
>  <energy_score>  (127) 
899.349383

>  <inchikey>  (127) 
CPIBTNTZBHUDNS-UHFFFAOYSA-N

>  <smiles>  (127) 
O=C(NCCc1ccc2cn[nH]c2c1)c1cn2c(n1)CCC2

>  <ref_pdb>  (127) 
A3181b

>  <alias>  (127) 
C17988-P145

>  <HIPPO Pose ID>  (127) 
456545

>  <name>  (127) 
C17988-P145

>  <HIPPO Compound ID>  (127) 
17988

>  <ref_mols>  (127) 
A3181b,A0309a

>  <distance_score>  (127) 
6.127222

>  <inspiration_score>  (127) 
None

$$$$
C18032-P36
     RDKit          3D

 18 20  0  0  0  0  0  0  0  0999 V2000
   24.8266   24.3067   11.1260 O   0  0  0  0  0  0  0  0  0  0  0  0
   24.7281   23.1607   11.4199 C   0  0  0  0  0  0  0  0  0  0  0  0
   24.4998   21.8528   10.4814 N   0  0  0  0  0  0  0  0  0  0  0  0
   24.2426   21.7440    8.9420 C   0  0  0  0  0  0  0  0  0  0  0  0
   23.9856   20.4164    8.0184 C   0  0  0  0  0  0  0  0  0  0  0  0
   22.8226   19.8640    7.4431 C   0  0  0  0  0  0  0  0  0  0  0  0
   23.0773   18.8455    6.5315 N   0  0  0  0  0  0  0  0  0  0  0  0
   24.3829   18.8239    6.4310 C   0  0  0  0  0  0  0  0  0  0  0  0
   24.9678   19.7332    7.2896 N   0  0  0  0  0  0  0  0  0  0  0  0
   24.9227   22.9788   13.0377 C   0  0  0  0  0  0  0  0  0  0  0  0
   26.2172   22.9316   13.6214 C   0  0  0  0  0  0  0  0  0  0  0  0
   26.4673   22.8796   15.0402 C   0  0  0  0  0  0  0  0  0  0  0  0
   25.3709   22.8735   15.9189 C   0  0  0  0  0  0  0  0  0  0  0  0
   25.2511   22.7001   17.2781 N   0  0  0  0  0  0  0  0  0  0  0  0
   23.9842   22.7734   17.7443 N   0  0  0  0  0  0  0  0  0  0  0  0
   23.2753   22.9602   16.6260 C   0  0  0  0  0  0  0  0  0  0  0  0
   24.0757   23.0175   15.4452 C   0  0  0  0  0  0  0  0  0  0  0  0
   23.8697   23.1233   14.0098 C   0  0  0  0  0  0  0  0  0  0  0  0
  1  2  2  0
  2  3  1  0
  3  4  1  0
  4  5  1  0
  5  6  2  0
  6  7  1  0
  7  8  2  0
  8  9  1  0
  2 10  1  0
 10 11  2  0
 11 12  1  0
 12 13  2  0
 13 14  1  0
 14 15  1  0
 15 16  2  0
 16 17  1  0
 17 18  2  0
  9  5  1  0
 18 10  1  0
 17 13  1  0
M  END
>  <energy_score>  (128) 
56.878883

>  <inchikey>  (128) 
DVLVUUCTVLQLBO-UHFFFAOYSA-N

>  <smiles>  (128) 
O=C(NCc1cnc[nH]1)c1ccc2[nH]ncc2c1

>  <ref_pdb>  (128) 
A0309a

>  <alias>  (128) 
C18032-P36

>  <HIPPO Pose ID>  (128) 
456571

>  <name>  (128) 
C18032-P36

>  <HIPPO Compound ID>  (128) 
18032

>  <ref_mols>  (128) 
A3181b,A0309a

>  <distance_score>  (128) 
5.717983

>  <inspiration_score>  (128) 
None

$$$$
C43172-P115
     RDKit          3D

 20 21  0  0  0  0  0  0  0  0999 V2000
    5.0699   12.6381   20.5525 O   0  0  0  0  0  0  0  0  0  0  0  0
    4.5236   13.4066   21.2366 C   0  0  0  0  0  0  0  0  0  0  0  0
    5.3569   14.2600   22.2752 C   0  0  0  0  0  0  0  0  0  0  0  0
    6.8869   13.8464   22.3952 C   0  0  1  0  0  0  0  0  0  0  0  0
    7.7720   14.8484   23.0675 C   0  0  0  0  0  0  0  0  0  0  0  0
    9.0709   14.1707   23.5481 C   0  0  0  0  0  0  0  0  0  0  0  0
    8.7877   13.2165   24.6817 C   0  0  0  0  0  0  0  0  0  0  0  0
    7.5922   12.3607   24.3385 C   0  0  2  0  0  0  0  0  0  0  0  0
    7.9706   10.9003   24.7028 C   0  0  0  0  0  0  0  0  0  0  0  0
    8.9127   10.3666   23.8930 F   0  0  0  0  0  0  0  0  0  0  0  0
    8.4650   10.8725   25.9693 F   0  0  0  0  0  0  0  0  0  0  0  0
    6.9152   10.0744   24.7314 F   0  0  0  0  0  0  0  0  0  0  0  0
    7.2659   12.5676   22.9425 O   0  0  0  0  0  0  0  0  0  0  0  0
    3.0114   13.7065   21.4012 N   0  0  0  0  0  0  0  0  0  0  0  0
    1.8432   13.0456   20.8183 C   0  0  0  0  0  0  0  0  0  0  0  0
    1.2046   13.6751   19.6054 C   0  0  0  0  0  0  0  0  0  0  0  0
    1.0988   13.1837   18.3109 C   0  0  0  0  0  0  0  0  0  0  0  0
    0.3358   14.0902   17.6246 N   0  0  0  0  0  0  0  0  0  0  0  0
   -0.0215   15.0669   18.5108 C   0  0  0  0  0  0  0  0  0  0  0  0
    0.4613   14.8371   19.7161 N   0  0  0  0  0  0  0  0  0  0  0  0
  1  2  2  0
  2  3  1  0
  4  3  1  1
  4  5  1  0
  5  6  1  0
  6  7  1  0
  7  8  1  0
  8  9  1  6
  9 10  1  0
  9 11  1  0
  9 12  1  0
  8 13  1  0
  2 14  1  0
 14 15  1  0
 15 16  1  0
 16 17  2  0
 17 18  1  0
 18 19  1  0
 19 20  2  0
 13  4  1  0
 20 16  1  0
M  END
>  <energy_score>  (129) 
2.64362

>  <inchikey>  (129) 
KZXHPHICQMDTES-UHFFFAOYSA-N

>  <smiles>  (129) 
O=C(C[C@H]1CCC[C@H](C(F)(F)F)O1)NCc1c[nH]cn1

>  <ref_pdb>  (129) 
A1209a

>  <alias>  (129) 
C43172-P115

>  <HIPPO Pose ID>  (129) 
456823

>  <name>  (129) 
C43172-P115

>  <HIPPO Compound ID>  (129) 
43172

>  <ref_mols>  (129) 
A0473a,A1209a

>  <distance_score>  (129) 
3.602527

>  <inspiration_score>  (129) 
None

$$$$
C29694-P439
     RDKit          3D

 19 20  0  0  0  0  0  0  0  0999 V2000
   11.4858   14.8135   18.4798 C   0  0  0  0  0  0  0  0  0  0  0  0
   10.9937   15.3737   19.7573 C   0  0  0  0  0  0  0  0  0  0  0  0
    9.7744   16.0165   19.7828 C   0  0  0  0  0  0  0  0  0  0  0  0
    9.2005   16.2938   21.0052 C   0  0  0  0  0  0  0  0  0  0  0  0
    9.8483   15.7939   22.1166 C   0  0  0  0  0  0  0  0  0  0  0  0
    9.1221   14.8381   22.7943 N   0  0  0  0  0  0  0  0  0  0  0  0
    9.4669   14.0302   24.0637 C   0  0  0  0  0  0  0  0  0  0  0  0
   10.3848   14.1018   24.7789 O   0  0  0  0  0  0  0  0  0  0  0  0
    8.3738   12.9847   24.1670 C   0  0  1  0  0  0  0  0  0  0  0  0
    9.0672   11.7507   24.5399 C   0  0  0  0  0  0  0  0  0  0  0  0
    9.6818   10.7782   24.6819 N   0  0  0  0  0  0  0  0  0  0  0  0
    7.0430   13.3978   24.8013 C   0  0  0  0  0  0  0  0  0  0  0  0
    6.2236   12.2099   25.3185 C   0  0  0  0  0  0  0  0  0  0  0  0
    6.5660   11.8034   26.7434 C   0  0  0  0  0  0  0  0  0  0  0  0
    6.4914   12.9456   27.6479 N   0  0  0  0  0  0  0  0  0  0  0  0
    7.4106   14.0098   27.2363 C   0  0  0  0  0  0  0  0  0  0  0  0
    7.0812   14.5202   25.8447 C   0  0  0  0  0  0  0  0  0  0  0  0
   11.1977   15.4820   22.0335 C   0  0  0  0  0  0  0  0  0  0  0  0
   11.7586   15.2024   20.8532 N   0  0  0  0  0  0  0  0  0  0  0  0
  1  2  1  0
  2  3  2  0
  3  4  1  0
  4  5  2  0
  5  6  1  0
  6  7  1  0
  7  8  2  0
  7  9  1  0
  9 10  1  1
 10 11  3  0
  9 12  1  0
 12 13  1  0
 13 14  1  0
 14 15  1  0
 15 16  1  0
 16 17  1  0
  5 18  1  0
 18 19  2  0
 19  2  1  0
 17 12  1  0
M  END
>  <energy_score>  (130) 
10.700281

>  <inchikey>  (130) 
JKACJOUKLURBPE-UHFFFAOYSA-N

>  <smiles>  (130) 
Cc1ccc(NC(=O)[C@@H](C#N)C2CCNCC2)cn1

>  <ref_pdb>  (130) 
A4706a

>  <alias>  (130) 
C29694-P439

>  <HIPPO Pose ID>  (130) 
456851

>  <name>  (130) 
C29694-P439

>  <HIPPO Compound ID>  (130) 
29694

>  <ref_mols>  (130) 
A0310a,A4706a

>  <distance_score>  (130) 
1.505652

>  <inspiration_score>  (130) 
None

$$$$
C10567-P182
     RDKit          3D

 22 23  0  0  0  0  0  0  0  0999 V2000
   15.8703   11.1043   21.3126 C   0  0  0  0  0  0  0  0  0  0  0  0
   14.1345   11.0252   20.6510 C   0  0  0  0  0  0  0  0  0  0  0  0
   13.8042   10.2555   19.8427 O   0  0  0  0  0  0  0  0  0  0  0  0
   13.1040   12.3192   21.6563 N   0  0  0  0  0  0  0  0  0  0  0  0
   11.6468   12.5720   21.7176 C   0  0  0  0  0  0  0  0  0  0  0  0
   10.3864   11.8505   22.5307 C   0  0  1  0  0  0  0  0  0  0  0  0
   10.0945   10.3579   22.6535 C   0  0  0  0  0  0  0  0  0  0  0  0
    9.1469   10.2821   23.8023 C   0  0  0  0  0  0  0  0  0  0  0  0
    9.0263   11.8729   24.4190 C   0  0  0  0  0  0  0  0  0  0  0  0
    7.7643   12.3144   24.0320 N   0  0  0  0  0  0  0  0  0  0  0  0
    7.2526   13.2851   23.2046 C   0  0  0  0  0  0  0  0  0  0  0  0
    7.0149   13.0961   22.0153 O   0  0  0  0  0  0  0  0  0  0  0  0
    6.8802   14.5935   23.8731 C   0  0  1  0  0  0  0  0  0  0  0  0
    7.6748   15.0067   25.0961 C   0  0  0  0  0  0  0  0  0  0  0  0
    6.6016   15.8801   22.6175 S   0  0  0  0  0  0  0  0  0  0  0  0
    8.1180   15.8998   21.6717 C   0  0  0  0  0  0  0  0  0  0  0  0
    8.3237   16.7995   20.6418 C   0  0  0  0  0  0  0  0  0  0  0  0
    9.4544   16.7025   19.8491 C   0  0  0  0  0  0  0  0  0  0  0  0
   10.4334   15.8210   20.2011 C   0  0  0  0  0  0  0  0  0  0  0  0
   10.3067   15.3024   21.4540 C   0  0  0  0  0  0  0  0  0  0  0  0
    9.1528   15.1806   22.1262 N   0  0  0  0  0  0  0  0  0  0  0  0
    9.6609   12.4719   23.9689 C   0  0  0  0  0  0  0  0  0  0  0  0
  1  2  1  0
  2  3  2  0
  2  4  1  0
  4  5  1  0
  6  5  1  1
  6  7  1  0
  7  8  1  0
  8  9  1  0
  9 10  1  0
 10 11  1  0
 11 12  2  0
 11 13  1  0
 13 14  1  1
 13 15  1  0
 15 16  1  0
 16 17  2  0
 17 18  1  0
 18 19  2  0
 19 20  1  0
 20 21  2  0
 10 22  1  0
 22  6  1  0
 21 16  1  0
M  END
>  <energy_score>  (131) 
717.291892

>  <inchikey>  (131) 
IAONGZSOXIKTBP-UHFFFAOYSA-N

>  <smiles>  (131) 
CC(=O)NC[C@H]1CCCN(C(=O)[C@@H](C)Sc2ccccn2)C1

>  <ref_pdb>  (131) 
A3435a

>  <alias>  (131) 
C10567-P182

>  <HIPPO Pose ID>  (131) 
458751

>  <name>  (131) 
C10567-P182

>  <HIPPO Compound ID>  (131) 
10567

>  <ref_mols>  (131) 
A1776a,A3435a

>  <distance_score>  (131) 
2.276783

>  <inspiration_score>  (131) 
None

$$$$
C20308-P95
     RDKit          3D

 21 23  0  0  0  0  0  0  0  0999 V2000
   13.0772   16.7774   26.9740 C   0  0  0  0  0  0  0  0  0  0  0  0
   11.9695   16.4951   25.9045 C   0  0  2  0  0  0  0  0  0  0  0  0
   12.0882   17.8671   24.5159 O   0  0  0  0  0  0  0  0  0  0  0  0
   11.9535   18.4668   22.7201 C   0  0  0  0  0  0  0  0  0  0  0  0
   12.0016   17.8854   21.6797 O   0  0  0  0  0  0  0  0  0  0  0  0
   11.4546   20.6204   22.8506 C   0  0  0  0  0  0  0  0  0  0  0  0
   12.0877   21.3218   23.8582 C   0  0  0  0  0  0  0  0  0  0  0  0
   11.0515   20.4789   24.2597 C   0  0  0  0  0  0  0  0  0  0  0  0
   10.4593   18.3188   24.1521 C   0  0  0  0  0  0  0  0  0  0  0  0
    9.5517   16.8929   25.4208 C   0  0  0  0  0  0  0  0  0  0  0  0
    9.2716   18.0179   26.0996 C   0  0  0  0  0  0  0  0  0  0  0  0
   10.4474   21.9786   24.8897 N   0  0  0  0  0  0  0  0  0  0  0  0
   10.5122   22.9065   23.8500 C   0  0  0  0  0  0  0  0  0  0  0  0
   10.3127   24.0910   24.0238 O   0  0  0  0  0  0  0  0  0  0  0  0
   11.1877   22.0667   22.5760 C   0  0  0  0  0  0  0  0  0  0  0  0
   10.7477   15.3049   26.3818 C   0  0  0  0  0  0  0  0  0  0  0  0
   10.1903   15.4410   27.6404 C   0  0  0  0  0  0  0  0  0  0  0  0
    8.8347   15.2230   27.9196 N   0  0  0  0  0  0  0  0  0  0  0  0
    8.0273   14.7309   26.9033 C   0  0  0  0  0  0  0  0  0  0  0  0
    8.5800   14.3684   25.6638 C   0  0  0  0  0  0  0  0  0  0  0  0
    9.9585   14.5907   25.4340 N   0  0  0  0  0  0  0  0  0  0  0  0
  2  1  1  1
  2  3  1  0
  3  4  1  0
  4  5  2  0
  4  6  1  0
  6  7  1  0
  7  8  2  0
  8  9  1  0
  9 10  1  0
 10 11  1  0
  8 12  1  0
 12 13  1  0
 13 14  2  0
 13 15  1  0
  2 16  1  0
 16 17  2  0
 17 18  1  0
 18 19  2  0
 19 20  1  0
 20 21  2  0
 15  6  2  0
 21 16  1  0
 11  9  1  0
M  END
>  <energy_score>  (132) 
1562.0036

>  <inchikey>  (132) 
DSFDBKRLVJNMKP-UHFFFAOYSA-N

>  <smiles>  (132) 
C[C@H](OC(=O)c1cc(C2CC2)[nH]c(=O)c1)c1cnccn1

>  <ref_pdb>  (132) 
A1068a

>  <alias>  (132) 
C20308-P95

>  <HIPPO Pose ID>  (132) 
458922

>  <name>  (132) 
C20308-P95

>  <HIPPO Compound ID>  (132) 
20308

>  <ref_mols>  (132) 
A0525a,A1068a

>  <distance_score>  (132) 
4.57873

>  <inspiration_score>  (132) 
None

$$$$
C29671-P492
     RDKit          3D

 22 24  0  0  0  0  0  0  0  0999 V2000
    8.7795    8.7863   23.9845 C   0  0  0  0  0  0  0  0  0  0  0  0
    7.9912    9.8035   24.7589 C   0  0  0  0  0  0  0  0  0  0  0  0
    6.9268    9.5378   25.6286 C   0  0  0  0  0  0  0  0  0  0  0  0
    6.2051   10.5026   26.3305 C   0  0  0  0  0  0  0  0  0  0  0  0
    6.5532   11.8328   26.2153 C   0  0  0  0  0  0  0  0  0  0  0  0
    7.5907   12.1233   25.3307 C   0  0  0  0  0  0  0  0  0  0  0  0
    8.3684   13.6200   25.0169 S   0  0  0  0  0  0  0  0  0  0  0  0
    9.2845   12.8336   23.8523 C   0  0  0  0  0  0  0  0  0  0  0  0
   10.1513   13.4949   23.1151 N   0  0  0  0  0  0  0  0  0  0  0  0
   11.1053   14.6454   23.4839 C   0  0  0  0  0  0  0  0  0  0  0  0
   11.2207   15.2405   24.4766 O   0  0  0  0  0  0  0  0  0  0  0  0
   11.7917   14.8758   22.1875 C   0  0  2  0  0  0  0  0  0  0  0  0
   12.9216   15.7288   22.3058 C   0  0  0  0  0  0  0  0  0  0  0  0
   13.6653   16.5595   22.0251 N   0  0  0  0  0  0  0  0  0  0  0  0
   10.8887   15.6683   21.2647 C   0  0  0  0  0  0  0  0  0  0  0  0
    9.5091   16.1161   21.7315 C   0  0  0  0  0  0  0  0  0  0  0  0
    9.2095   17.3563   20.9091 C   0  0  0  0  0  0  0  0  0  0  0  0
    9.8736   17.3367   19.6069 N   0  0  0  0  0  0  0  0  0  0  0  0
   10.1059   16.0577   18.9528 C   0  0  0  0  0  0  0  0  0  0  0  0
   10.7763   15.0557   19.8749 C   0  0  0  0  0  0  0  0  0  0  0  0
    9.0663   11.5925   23.6002 N   0  0  0  0  0  0  0  0  0  0  0  0
    8.2252   11.1476   24.5616 C   0  0  0  0  0  0  0  0  0  0  0  0
  1  2  1  0
  2  3  2  0
  3  4  1  0
  4  5  2  0
  5  6  1  0
  6  7  1  0
  7  8  1  0
  8  9  1  0
  9 10  1  0
 10 11  2  0
 10 12  1  0
 12 13  1  1
 13 14  3  0
 12 15  1  0
 15 16  1  0
 16 17  1  0
 17 18  1  0
 18 19  1  0
 19 20  1  0
  8 21  2  0
 21 22  1  0
 22  2  1  0
 22  6  2  0
 20 15  1  0
M  END
>  <energy_score>  (133) 
4.750882

>  <inchikey>  (133) 
MKPOMUBYMPSDBU-UHFFFAOYSA-N

>  <smiles>  (133) 
Cc1cccc2sc(NC(=O)[C@H](C#N)C3CCNCC3)nc12

>  <ref_pdb>  (133) 
A4873a

>  <alias>  (133) 
C29671-P492

>  <HIPPO Pose ID>  (133) 
459884

>  <name>  (133) 
C29671-P492

>  <HIPPO Compound ID>  (133) 
29671

>  <ref_mols>  (133) 
A4873a,A0310a

>  <distance_score>  (133) 
1.960457

>  <inspiration_score>  (133) 
None

$$$$
C4820-P371
     RDKit          3D

 21 22  0  0  0  0  0  0  0  0999 V2000
   10.0906   15.2797   19.1201 C   0  0  0  0  0  0  0  0  0  0  0  0
   10.6491   15.8817   20.4058 C   0  0  0  0  0  0  0  0  0  0  0  0
   10.1651   17.3260   20.4523 C   0  0  0  0  0  0  0  0  0  0  0  0
   12.1361   15.6566   20.2837 C   0  0  0  0  0  0  0  0  0  0  0  0
   12.6555   14.8086   19.5693 O   0  0  0  0  0  0  0  0  0  0  0  0
   12.9135   16.4151   21.0778 O   0  0  0  0  0  0  0  0  0  0  0  0
   10.2330   15.2514   21.6524 N   0  0  0  0  0  0  0  0  0  0  0  0
    8.9500   14.9898   22.0486 C   0  0  0  0  0  0  0  0  0  0  0  0
    9.0280   14.7562   23.3936 C   0  0  0  0  0  0  0  0  0  0  0  0
    8.0482   14.2964   24.2014 N   0  0  0  0  0  0  0  0  0  0  0  0
    6.5435   14.0450   23.9175 C   0  0  0  0  0  0  0  0  0  0  0  0
    5.9059   14.2695   22.9669 O   0  0  0  0  0  0  0  0  0  0  0  0
    6.0733   13.3065   25.1849 C   0  0  0  0  0  0  0  0  0  0  0  0
    7.1542   12.5215   25.7479 O   0  0  0  0  0  0  0  0  0  0  0  0
    7.6443   11.5159   24.8501 C   0  0  0  0  0  0  0  0  0  0  0  0
    9.1697   11.4384   24.8709 C   0  0  0  0  0  0  0  0  0  0  0  0
    9.5017   10.0548   24.3437 C   0  0  0  0  0  0  0  0  0  0  0  0
    8.2493    9.2252   24.5626 C   0  0  0  0  0  0  0  0  0  0  0  0
    7.2647   10.1254   25.2991 C   0  0  0  0  0  0  0  0  0  0  0  0
   10.3767   14.9064   23.7393 C   0  0  0  0  0  0  0  0  0  0  0  0
   11.1228   15.1616   22.6781 N   0  0  0  0  0  0  0  0  0  0  0  0
  1  2  1  0
  2  3  1  0
  2  4  1  0
  4  5  2  0
  4  6  1  0
  2  7  1  0
  7  8  1  0
  8  9  2  0
  9 10  1  0
 10 11  1  0
 11 12  2  0
 11 13  1  0
 13 14  1  0
 14 15  1  0
 15 16  1  0
 16 17  1  0
 17 18  1  0
 18 19  1  0
  9 20  1  0
 20 21  2  0
 21  7  1  0
 19 15  1  0
M  END
>  <energy_score>  (134) 
-39.857324

>  <inchikey>  (134) 
YKFCDWMBODQRLV-UHFFFAOYSA-N

>  <smiles>  (134) 
CC(C)(C(=O)O)n1cc(NC(=O)COC2CCCC2)cn1

>  <ref_pdb>  (134) 
A4456a

>  <alias>  (134) 
C4820-P371

>  <HIPPO Pose ID>  (134) 
460087

>  <name>  (134) 
C4820-P371

>  <HIPPO Compound ID>  (134) 
4820

>  <ref_mols>  (134) 
A4456a,A0556a

>  <distance_score>  (134) 
1.310113

>  <inspiration_score>  (134) 
None

$$$$
C28323-P198
     RDKit          3D

 18 18  0  0  0  0  0  0  0  0999 V2000
    6.4631   12.8496   24.3948 C   0  0  0  0  0  0  0  0  0  0  0  0
    7.6558   12.7764   24.3112 C   0  0  0  0  0  0  0  0  0  0  0  0
    9.0982   12.7768   24.5388 C   0  0  2  0  0  0  0  0  0  0  0  0
    9.5430   14.2419   24.7093 C   0  0  0  0  0  0  0  0  0  0  0  0
   10.2873   14.8539   23.6656 N   0  0  0  0  0  0  0  0  0  0  0  0
   11.7773   14.7103   23.2776 C   0  0  0  0  0  0  0  0  0  0  0  0
   12.6056   14.0096   23.7060 O   0  0  0  0  0  0  0  0  0  0  0  0
   12.0560   15.7831   22.2301 C   0  0  0  0  0  0  0  0  0  0  0  0
   11.3175   15.5911   20.9724 C   0  0  0  0  0  0  0  0  0  0  0  0
   10.1377   16.1630   20.5489 C   0  0  0  0  0  0  0  0  0  0  0  0
    9.7927   15.8814   19.2491 N   0  0  0  0  0  0  0  0  0  0  0  0
   10.7090   15.1067   18.7201 C   0  0  0  0  0  0  0  0  0  0  0  0
   12.0080   14.6847   19.7152 S   0  0  0  0  0  0  0  0  0  0  0  0
    9.9571   11.7766   23.7285 C   0  0  0  0  0  0  0  0  0  0  0  0
    9.5142   10.2038   23.8197 C   0  0  0  0  0  0  0  0  0  0  0  0
   10.4792    8.9970   23.7777 C   0  0  0  0  0  0  0  0  0  0  0  0
    8.2272    9.9135   24.6448 C   0  0  0  0  0  0  0  0  0  0  0  0
    9.0795    9.9849   22.4536 C   0  0  0  0  0  0  0  0  0  0  0  0
  1  2  3  0
  3  2  1  6
  3  4  1  0
  4  5  1  0
  5  6  1  0
  6  7  2  0
  6  8  1  0
  8  9  1  0
  9 10  2  0
 10 11  1  0
 11 12  2  0
 12 13  1  0
  3 14  1  0
 14 15  1  0
 15 16  1  0
 15 17  1  0
 15 18  1  0
 13  9  1  0
M  END
>  <energy_score>  (135) 
-21.141402

>  <inchikey>  (135) 
XCYLQKXLCZOTSZ-UHFFFAOYSA-N

>  <smiles>  (135) 
C#C[C@H](CNC(=O)Cc1cncs1)CC(C)(C)C

>  <ref_pdb>  (135) 
A3618a

>  <alias>  (135) 
C28323-P198

>  <HIPPO Pose ID>  (135) 
463188

>  <name>  (135) 
C28323-P198

>  <HIPPO Compound ID>  (135) 
28323

>  <ref_mols>  (135) 
A3306a,A3618a

>  <distance_score>  (135) 
1.490671

>  <inspiration_score>  (135) 
None

$$$$
C38131-P71
     RDKit          3D

 20 22  0  0  0  0  0  0  0  0999 V2000
   15.2663   14.3423   -0.4402 O   0  0  0  0  0  0  0  0  0  0  0  0
   15.6274   14.0547    0.6427 C   0  0  0  0  0  0  0  0  0  0  0  0
   14.5600   14.0020    1.8216 C   0  0  0  0  0  0  0  0  0  0  0  0
   13.2596   14.8866    1.6360 C   0  0  0  0  0  0  0  0  0  0  0  0
   11.8614   14.3205    1.5368 C   0  0  0  0  0  0  0  0  0  0  0  0
   10.8233   14.9021    2.1207 N   0  0  0  0  0  0  0  0  0  0  0  0
    9.6489   14.2734    1.7403 C   0  0  0  0  0  0  0  0  0  0  0  0
    9.7998   13.1872    0.9101 C   0  0  0  0  0  0  0  0  0  0  0  0
   11.4592   12.9767    0.5416 S   0  0  0  0  0  0  0  0  0  0  0  0
   17.0557   13.5838    1.1590 N   0  0  0  0  0  0  0  0  0  0  0  0
   18.3053   13.2808    0.4028 C   0  0  0  0  0  0  0  0  0  0  0  0
   19.7714   13.9116    0.6242 C   0  0  1  0  0  0  0  0  0  0  0  0
   20.2615   13.9569    2.0852 C   0  0  0  0  0  0  0  0  0  0  0  0
   21.7689   14.1365    2.3293 C   0  0  0  0  0  0  0  0  0  0  0  0
   22.6022   13.5886    1.3063 N   0  0  0  0  0  0  0  0  0  0  0  0
   23.9475   13.4663    1.3205 C   0  0  0  0  0  0  0  0  0  0  0  0
   24.3457   13.0848    0.1295 N   0  0  0  0  0  0  0  0  0  0  0  0
   23.2336   12.9281   -0.6636 N   0  0  0  0  0  0  0  0  0  0  0  0
   22.1844   13.2318    0.0644 C   0  0  0  0  0  0  0  0  0  0  0  0
   20.7626   13.1709   -0.3302 C   0  0  0  0  0  0  0  0  0  0  0  0
  1  2  2  0
  2  3  1  0
  3  4  1  0
  4  5  1  0
  5  6  2  0
  6  7  1  0
  7  8  2  0
  8  9  1  0
  2 10  1  0
 10 11  1  0
 12 11  1  1
 12 13  1  0
 13 14  1  0
 14 15  1  0
 15 16  1  0
 16 17  2  0
 17 18  1  0
 18 19  2  0
 19 20  1  0
  9  5  1  0
 20 12  1  0
 19 15  1  0
M  END
>  <energy_score>  (136) 
-22.085874

>  <inchikey>  (136) 
VSVXIUZTPMFJAC-UHFFFAOYSA-N

>  <smiles>  (136) 
O=C(CCc1nccs1)NC[C@H]1CCn2cnnc2C1

>  <ref_pdb>  (136) 
A0428a

>  <alias>  (136) 
C38131-P71

>  <HIPPO Pose ID>  (136) 
464274

>  <name>  (136) 
C38131-P71

>  <HIPPO Compound ID>  (136) 
38131

>  <ref_mols>  (136) 
A0239a,A0428a

>  <distance_score>  (136) 
6.00932

>  <inspiration_score>  (136) 
None

$$$$
C14078-P135
     RDKit          3D

 21 22  0  0  0  0  0  0  0  0999 V2000
    7.1069   10.6516   25.6033 C   0  0  0  0  0  0  0  0  0  0  0  0
    7.0541   11.8380   24.8223 O   0  0  0  0  0  0  0  0  0  0  0  0
    8.2633   12.2631   24.3520 C   0  0  0  0  0  0  0  0  0  0  0  0
    9.4508   12.1041   25.0393 C   0  0  0  0  0  0  0  0  0  0  0  0
   10.6306   12.5592   24.4569 C   0  0  0  0  0  0  0  0  0  0  0  0
   10.6213   13.1449   23.1936 C   0  0  0  0  0  0  0  0  0  0  0  0
   11.9531   13.5204   22.5574 C   0  0  0  0  0  0  0  0  0  0  0  0
   11.9187   14.0589   21.0932 C   0  0  0  0  0  0  0  0  0  0  0  0
   12.8110   15.0721   20.4366 N   0  0  0  0  0  0  0  0  0  0  0  0
   12.2554   15.9496   21.5217 C   0  0  0  0  0  0  0  0  0  0  0  0
   12.7010   15.7314   19.1614 C   0  0  0  0  0  0  0  0  0  0  0  0
   11.8181   15.7050   18.3373 O   0  0  0  0  0  0  0  0  0  0  0  0
   13.9614   16.5720   18.8473 C   0  0  1  0  0  0  0  0  0  0  0  0
   13.7526   17.4091   17.5833 C   0  0  0  0  0  0  0  0  0  0  0  0
   14.9413   18.3295   17.3750 C   0  0  0  0  0  0  0  0  0  0  0  0
   15.0610   19.2782   18.5555 C   0  0  0  0  0  0  0  0  0  0  0  0
   15.0793   18.5624   19.8848 C   0  0  0  0  0  0  0  0  0  0  0  0
   15.6257   19.0456   20.8740 O   0  0  0  0  0  0  0  0  0  0  0  0
   14.3861   17.3962   19.9766 N   0  0  0  0  0  0  0  0  0  0  0  0
    9.3669   13.3068   22.6202 C   0  0  0  0  0  0  0  0  0  0  0  0
    8.1967   12.8870   23.1648 N   0  0  0  0  0  0  0  0  0  0  0  0
  1  2  1  0
  2  3  1  0
  3  4  2  0
  4  5  1  0
  5  6  2  0
  6  7  1  0
  7  8  1  0
  8  9  1  0
  9 10  1  0
  9 11  1  0
 11 12  2  0
 13 11  1  1
 13 14  1  0
 14 15  1  0
 15 16  1  0
 16 17  1  0
 17 18  2  0
 17 19  1  0
  6 20  1  0
 20 21  2  0
 21  3  1  0
 19 13  1  0
M  END
>  <energy_score>  (137) 
69.829139

>  <inchikey>  (137) 
BJINXMMGATXGDH-UHFFFAOYSA-N

>  <smiles>  (137) 
COc1ccc(CCN(C)C(=O)[C@H]2CCCC(=O)N2)cn1

>  <ref_pdb>  (137) 
A2629a

>  <alias>  (137) 
C14078-P135

>  <HIPPO Pose ID>  (137) 
467135

>  <name>  (137) 
C14078-P135

>  <HIPPO Compound ID>  (137) 
14078

>  <ref_mols>  (137) 
A3956a,A2629a

>  <distance_score>  (137) 
3.185144

>  <inspiration_score>  (137) 
None

$$$$
C1002-P233
     RDKit          3D

 20 22  0  0  0  0  0  0  0  0999 V2000
   30.3043    7.9564    1.3616 C   0  0  0  0  0  0  0  0  0  0  0  0
   30.0455    9.0362    1.8197 C   0  0  0  0  0  0  0  0  0  0  0  0
   29.7414   10.3605    2.3824 C   0  0  2  0  0  0  0  0  0  0  0  0
   28.4210   10.7529    1.9602 N   0  0  0  0  0  0  0  0  0  0  0  0
   27.4960   11.8849    2.4730 C   0  0  0  0  0  0  0  0  0  0  0  0
   27.6912   12.7207    3.2624 O   0  0  0  0  0  0  0  0  0  0  0  0
   26.1812   11.7772    1.6914 C   0  0  2  0  0  0  0  0  0  0  0  0
   26.3704   12.0856    0.1937 C   0  0  0  0  0  0  0  0  0  0  0  0
   25.0579   11.8821   -0.5674 C   0  0  0  0  0  0  0  0  0  0  0  0
   23.9360   12.5675    0.1144 C   0  0  0  0  0  0  0  0  0  0  0  0
   22.7741   12.9281   -0.3822 N   0  0  0  0  0  0  0  0  0  0  0  0
   22.0667   13.5528    0.6198 N   0  0  0  0  0  0  0  0  0  0  0  0
   22.8115   13.5576    1.7069 C   0  0  0  0  0  0  0  0  0  0  0  0
   22.4726   14.1646    3.0067 C   0  0  0  0  0  0  0  0  0  0  0  0
   23.9879   12.9198    1.4345 N   0  0  0  0  0  0  0  0  0  0  0  0
   25.1403   12.7399    2.2933 C   0  0  0  0  0  0  0  0  0  0  0  0
   30.7094   11.4052    1.8337 C   0  0  0  0  0  0  0  0  0  0  0  0
   30.7627   12.7932    2.5379 C   0  0  0  0  0  0  0  0  0  0  0  0
   32.2813   12.7893    2.2765 C   0  0  0  0  0  0  0  0  0  0  0  0
   32.1990   11.2508    2.2644 C   0  0  0  0  0  0  0  0  0  0  0  0
  1  2  3  0
  3  2  1  6
  3  4  1  0
  4  5  1  0
  5  6  2  0
  7  5  1  1
  7  8  1  0
  8  9  1  0
  9 10  1  0
 10 11  2  0
 11 12  1  0
 12 13  2  0
 13 14  1  0
 13 15  1  0
 15 16  1  0
  3 17  1  0
 17 18  1  0
 18 19  1  0
 19 20  1  0
 16  7  1  0
 20 17  1  0
 15 10  1  0
M  END
>  <energy_score>  (138) 
-8.238322

>  <inchikey>  (138) 
LRTLCHQEZXDGPD-UHFFFAOYSA-N

>  <smiles>  (138) 
C#C[C@H](NC(=O)[C@@H]1CCc2nnc(C)n2C1)C1CCC1

>  <ref_pdb>  (138) 
A3890a

>  <alias>  (138) 
C1002-P233

>  <HIPPO Pose ID>  (138) 
474246

>  <name>  (138) 
C1002-P233

>  <HIPPO Compound ID>  (138) 
1002

>  <ref_mols>  (138) 
A3890a,A0239a

>  <distance_score>  (138) 
0.34466

>  <inspiration_score>  (138) 
None

$$$$
C10333-P564
     RDKit          3D

 23 25  0  0  0  0  0  0  0  0999 V2000
   13.3527   13.9023   19.4835 C   0  0  0  0  0  0  0  0  0  0  0  0
   13.0497   12.0021   19.3295 C   0  0  0  0  0  0  0  0  0  0  0  0
   11.5585   13.3914   19.0149 C   0  0  0  0  0  0  0  0  0  0  0  0
   13.4443    9.9415   19.9486 C   0  0  1  0  0  0  0  0  0  0  0  0
   14.3484    8.0994   20.7000 N   0  0  0  0  0  0  0  0  0  0  0  0
   14.1366    5.9369   20.5123 C   0  0  0  0  0  0  0  0  0  0  0  0
   13.4867    5.2432   19.7754 O   0  0  0  0  0  0  0  0  0  0  0  0
   15.3438    5.2891   22.2844 C   0  0  0  0  0  0  0  0  0  0  0  0
   15.6179    3.7281   23.1339 C   0  0  1  0  0  0  0  0  0  0  0  0
   14.5626    2.7616   23.5787 C   0  0  0  0  0  0  0  0  0  0  0  0
   15.1719    2.1753   24.8030 C   0  0  0  0  0  0  0  0  0  0  0  0
   16.7040    1.9637   24.8334 C   0  0  0  0  0  0  0  0  0  0  0  0
   17.2776    1.8251   23.4619 C   0  0  0  0  0  0  0  0  0  0  0  0
   16.8320    2.9382   22.6592 N   0  0  0  0  0  0  0  0  0  0  0  0
   12.5539   11.7748   20.7685 C   0  0  0  0  0  0  0  0  0  0  0  0
   11.0626   11.7344   21.6522 N   0  0  0  0  0  0  0  0  0  0  0  0
   10.9262   12.0947   22.9838 N   0  0  0  0  0  0  0  0  0  0  0  0
   12.0615   12.6612   23.2770 C   0  0  0  0  0  0  0  0  0  0  0  0
   12.2865   13.3804   24.4699 C   0  0  0  0  0  0  0  0  0  0  0  0
   11.9700   14.6748   24.3958 C   0  0  0  0  0  0  0  0  0  0  0  0
   11.7464   15.2488   23.0907 C   0  0  0  0  0  0  0  0  0  0  0  0
   11.9931   14.5356   21.9736 C   0  0  0  0  0  0  0  0  0  0  0  0
   12.4817   13.0987   21.9902 N   0  0  0  0  0  0  0  0  0  0  0  0
  1  2  1  0
  2  3  1  0
  2  4  1  0
  4  5  1  1
  5  6  1  0
  6  7  2  0
  6  8  1  0
  9  8  1  6
  9 10  1  0
 10 11  1  0
 11 12  1  0
 12 13  1  0
 13 14  1  0
  4 15  1  0
 15 16  2  0
 16 17  1  0
 17 18  2  0
 18 19  1  0
 19 20  2  0
 20 21  1  0
 21 22  2  0
 22 23  1  0
 14  9  1  0
 23 15  1  0
 23 18  1  0
M  END
>  <energy_score>  (139) 
1644.573654

>  <inchikey>  (139) 
BLTQFJGWWWBBKH-UHFFFAOYSA-N

>  <smiles>  (139) 
CC(C)[C@@H](NC(=O)C[C@H]1CCCCN1)c1nnc2ccccn12

>  <ref_pdb>  (139) 
A5091a

>  <alias>  (139) 
C10333-P564

>  <HIPPO Pose ID>  (139) 
475236

>  <name>  (139) 
C10333-P564

>  <HIPPO Compound ID>  (139) 
10333

>  <ref_mols>  (139) 
A5091a,A1293a

>  <distance_score>  (139) 
4.401656

>  <inspiration_score>  (139) 
None

$$$$
C10575-P174
     RDKit          3D

 23 24  0  0  0  0  0  0  0  0999 V2000
   11.6221   14.1093   21.8506 C   0  0  0  0  0  0  0  0  0  0  0  0
   11.0718   15.2059   20.9749 C   0  0  1  0  0  0  0  0  0  0  0  0
    9.7847   15.8609   21.5603 C   0  0  0  0  0  0  0  0  0  0  0  0
    8.7758   14.9768   22.1637 N   0  0  0  0  0  0  0  0  0  0  0  0
    7.6874   15.2704   23.2526 C   0  0  0  0  0  0  0  0  0  0  0  0
    7.3851   16.2774   23.7712 O   0  0  0  0  0  0  0  0  0  0  0  0
    6.9180   13.9625   23.6119 C   0  0  0  0  0  0  0  0  0  0  0  0
    6.7730   13.7396   25.1655 C   0  0  1  0  0  0  0  0  0  0  0  0
    5.5849   12.8892   25.6262 C   0  0  0  0  0  0  0  0  0  0  0  0
    7.9939   13.2213   25.8291 N   0  0  0  0  0  0  0  0  0  0  0  0
    9.0796   14.2301   25.9632 C   0  0  0  0  0  0  0  0  0  0  0  0
   10.2308   13.8363   25.0366 C   0  0  0  0  0  0  0  0  0  0  0  0
    9.7975   12.4933   24.5709 C   0  0  0  0  0  0  0  0  0  0  0  0
   10.4005   11.6476   23.6717 C   0  0  0  0  0  0  0  0  0  0  0  0
    9.7896   10.4346   23.3366 C   0  0  0  0  0  0  0  0  0  0  0  0
    8.6293   10.0329   23.9791 C   0  0  0  0  0  0  0  0  0  0  0  0
    8.0290   10.8903   24.8918 C   0  0  0  0  0  0  0  0  0  0  0  0
    8.5807   12.1474   25.1235 C   0  0  0  0  0  0  0  0  0  0  0  0
   12.2256   16.2035   20.7200 C   0  0  0  0  0  0  0  0  0  0  0  0
   12.2431   16.6898   19.2929 C   0  0  0  0  0  0  0  0  0  0  0  0
   11.1123   17.3882   19.0466 F   0  0  0  0  0  0  0  0  0  0  0  0
   12.3526   15.6522   18.4427 F   0  0  0  0  0  0  0  0  0  0  0  0
   13.2928   17.5186   19.0942 F   0  0  0  0  0  0  0  0  0  0  0  0
  2  1  1  1
  2  3  1  0
  3  4  1  0
  4  5  1  0
  5  6  2  0
  5  7  1  0
  7  8  1  0
  8  9  1  6
  8 10  1  0
 10 11  1  0
 11 12  1  0
 12 13  1  0
 13 14  2  0
 14 15  1  0
 15 16  2  0
 16 17  1  0
 17 18  2  0
  2 19  1  0
 19 20  1  0
 20 21  1  0
 20 22  1  0
 20 23  1  0
 18 10  1  0
 18 13  1  0
M  END
>  <energy_score>  (140) 
-6.254342

>  <inchikey>  (140) 
HGTCSWHCBHNZLM-UHFFFAOYSA-N

>  <smiles>  (140) 
C[C@@H](CNC(=O)C[C@@H](C)N1CCc2ccccc21)CC(F)(F)F

>  <ref_pdb>  (140) 
A3371a

>  <alias>  (140) 
C10575-P174

>  <HIPPO Pose ID>  (140) 
478135

>  <name>  (140) 
C10575-P174

>  <HIPPO Compound ID>  (140) 
10575

>  <ref_mols>  (140) 
A1778a,A3371a

>  <distance_score>  (140) 
1.681523

>  <inspiration_score>  (140) 
None

$$$$
C10535-P183
     RDKit          3D

 20 21  0  0  0  0  0  0  0  0999 V2000
   13.0895   13.0890   24.7510 C   0  0  0  0  0  0  0  0  0  0  0  0
   11.7582   12.9087   24.3046 N   0  0  0  0  0  0  0  0  0  0  0  0
   10.5265   13.4109   24.8137 C   0  0  0  0  0  0  0  0  0  0  0  0
   10.2915   14.0505   25.7955 O   0  0  0  0  0  0  0  0  0  0  0  0
    9.2496   12.8552   23.8388 C   0  0  1  0  0  0  0  0  0  0  0  0
    9.4459   11.2636   23.7896 C   0  0  0  0  0  0  0  0  0  0  0  0
    8.3922   11.3411   24.7410 C   0  0  0  0  0  0  0  0  0  0  0  0
    8.3220   12.7330   23.9160 C   0  0  0  0  0  0  0  0  0  0  0  0
    7.9815   13.8946   24.7150 N   0  0  0  0  0  0  0  0  0  0  0  0
    6.6126   13.8375   24.9539 C   0  0  0  0  0  0  0  0  0  0  0  0
    6.1235   13.2846   25.9380 O   0  0  0  0  0  0  0  0  0  0  0  0
    5.7136   14.6140   23.9709 C   0  0  1  0  0  0  0  0  0  0  0  0
    5.6973   16.0744   24.3658 C   0  0  0  0  0  0  0  0  0  0  0  0
    5.9283   14.3130   22.1602 S   0  0  0  0  0  0  0  0  0  0  0  0
    7.4909   15.0193   21.6698 C   0  0  0  0  0  0  0  0  0  0  0  0
    7.6987   16.3686   21.6836 C   0  0  0  0  0  0  0  0  0  0  0  0
    8.7329   16.9433   20.9465 C   0  0  0  0  0  0  0  0  0  0  0  0
    9.6120   16.1184   20.2881 C   0  0  0  0  0  0  0  0  0  0  0  0
    9.4483   14.7688   20.4541 C   0  0  0  0  0  0  0  0  0  0  0  0
    8.3805   14.2002   21.0709 N   0  0  0  0  0  0  0  0  0  0  0  0
  1  2  1  0
  2  3  1  0
  3  4  2  0
  5  3  1  1
  5  6  1  0
  6  7  1  0
  7  8  1  0
  8  9  1  0
  9 10  1  0
 10 11  2  0
 10 12  1  0
 12 13  1  6
 12 14  1  0
 14 15  1  0
 15 16  2  0
 16 17  1  0
 17 18  2  0
 18 19  1  0
 19 20  2  0
  9  5  1  0
 20 15  1  0
M  END
>  <energy_score>  (141) 
552.264148

>  <inchikey>  (141) 
OIEINAHBCCCPSB-UHFFFAOYSA-N

>  <smiles>  (141) 
CNC(=O)[C@H]1CCCN1C(=O)[C@@H](C)Sc1ccccn1

>  <ref_pdb>  (141) 
A3436a

>  <alias>  (141) 
C10535-P183

>  <HIPPO Pose ID>  (141) 
478249

>  <name>  (141) 
C10535-P183

>  <HIPPO Compound ID>  (141) 
10535

>  <ref_mols>  (141) 
A1776a,A3436a

>  <distance_score>  (141) 
3.045916

>  <inspiration_score>  (141) 
None

$$$$
C3842-P87
     RDKit          3D

 21 23  0  0  0  0  0  0  0  0999 V2000
   14.9352    1.8519   24.4379 O   0  0  0  0  0  0  0  0  0  0  0  0
   15.5583    2.2491   23.4944 C   0  0  0  0  0  0  0  0  0  0  0  0
   15.1398    3.6885   22.8341 C   0  0  0  0  0  0  0  0  0  0  0  0
   14.3941    5.3060   22.7137 N   0  0  0  0  0  0  0  0  0  0  0  0
   12.4530    5.9183   22.1061 C   0  0  0  0  0  0  0  0  0  0  0  0
   11.7508    5.0226   21.6689 O   0  0  0  0  0  0  0  0  0  0  0  0
   11.7167    7.7910   22.4316 C   0  0  2  0  0  0  0  0  0  0  0  0
   11.6673    8.6270   23.9281 C   0  0  0  0  0  0  0  0  0  0  0  0
   10.5544    9.6245   23.9967 C   0  0  0  0  0  0  0  0  0  0  0  0
   10.2666    9.8708   22.5734 C   0  0  0  0  0  0  0  0  0  0  0  0
   10.5299    8.6307   21.8363 N   0  0  0  0  0  0  0  0  0  0  0  0
   16.7241    1.7062   22.8414 N   0  0  0  0  0  0  0  0  0  0  0  0
   17.5146    0.6323   23.1612 C   0  0  0  0  0  0  0  0  0  0  0  0
   17.6465   -0.0206   24.3671 C   0  0  0  0  0  0  0  0  0  0  0  0
   18.5786   -1.0232   24.3218 N   0  0  0  0  0  0  0  0  0  0  0  0
   19.0822   -0.9357   23.1112 C   0  0  0  0  0  0  0  0  0  0  0  0
   20.1116   -1.6800   22.4984 C   0  0  0  0  0  0  0  0  0  0  0  0
   20.4806   -1.3771   21.2498 C   0  0  0  0  0  0  0  0  0  0  0  0
   19.7635   -0.2656   20.5833 C   0  0  0  0  0  0  0  0  0  0  0  0
   18.8151    0.4543   21.0891 N   0  0  0  0  0  0  0  0  0  0  0  0
   18.4931    0.0829   22.3671 N   0  0  0  0  0  0  0  0  0  0  0  0
  1  2  2  0
  2  3  1  0
  3  4  1  0
  4  5  1  0
  5  6  2  0
  7  5  1  1
  7  8  1  0
  8  9  1  0
  9 10  1  0
 10 11  1  0
  2 12  1  0
 12 13  1  0
 13 14  2  0
 14 15  1  0
 15 16  2  0
 16 17  1  0
 17 18  2  0
 18 19  1  0
 19 20  2  0
 20 21  1  0
 11  7  1  0
 21 13  1  0
 21 16  1  0
M  END
>  <energy_score>  (142) 
399.828321

>  <inchikey>  (142) 
PLIIAKFRJSUEBR-UHFFFAOYSA-N

>  <smiles>  (142) 
O=C(CNC(=O)[C@@H]1CCCN1)Nc1cnc2cccnn12

>  <ref_pdb>  (142) 
A0875a

>  <alias>  (142) 
C3842-P87

>  <HIPPO Pose ID>  (142) 
479383

>  <name>  (142) 
C3842-P87

>  <HIPPO Compound ID>  (142) 
3842

>  <ref_mols>  (142) 
A0202a,A0875a

>  <distance_score>  (142) 
3.838929

>  <inspiration_score>  (142) 
None

$$$$
C3863-P87
     RDKit          3D

 22 25  0  0  0  0  0  0  0  0999 V2000
   19.4547   -0.0159   20.1171 C   0  0  0  0  0  0  0  0  0  0  0  0
   19.8719    0.1202   21.4679 O   0  0  0  0  0  0  0  0  0  0  0  0
   18.8863    0.5284   22.3060 C   0  0  0  0  0  0  0  0  0  0  0  0
   19.2355    0.0249   23.6448 C   0  0  0  0  0  0  0  0  0  0  0  0
   18.2569    0.1258   24.5445 C   0  0  0  0  0  0  0  0  0  0  0  0
   17.0760    0.7994   24.1768 C   0  0  0  0  0  0  0  0  0  0  0  0
   15.8989    0.8262   24.7205 N   0  0  0  0  0  0  0  0  0  0  0  0
   15.2339    1.8697   24.1585 C   0  0  0  0  0  0  0  0  0  0  0  0
   15.9852    2.4319   23.1671 C   0  0  0  0  0  0  0  0  0  0  0  0
   15.8134    3.7266   22.4609 C   0  0  0  0  0  0  0  0  0  0  0  0
   16.7511    4.2821   22.0042 O   0  0  0  0  0  0  0  0  0  0  0  0
   14.4088    4.0439   22.3777 N   0  0  0  0  0  0  0  0  0  0  0  0
   13.3716    5.6757   21.5220 C   0  0  0  0  0  0  0  0  0  0  0  0
   11.9376    7.1815   22.3277 C   0  0  1  0  0  0  0  0  0  0  0  0
   10.3501    7.2084   23.0475 C   0  0  0  0  0  0  0  0  0  0  0  0
    9.6606    8.4557   22.3226 C   0  0  0  0  0  0  0  0  0  0  0  0
   10.6838    9.4347   22.2488 C   0  0  1  0  0  0  0  0  0  0  0  0
   10.9841    9.6784   23.6776 C   0  0  0  0  0  0  0  0  0  0  0  0
   11.9754    8.5333   23.7787 C   0  0  0  0  0  0  0  0  0  0  0  0
   11.5392    8.4802   21.5492 N   0  0  0  0  0  0  0  0  0  0  0  0
   17.0258    1.4968   22.9937 N   0  0  0  0  0  0  0  0  0  0  0  0
   17.8538    1.2092   21.9343 N   0  0  0  0  0  0  0  0  0  0  0  0
  1  2  1  0
  2  3  1  0
  3  4  1  0
  4  5  2  0
  5  6  1  0
  6  7  2  0
  7  8  1  0
  8  9  2  0
  9 10  1  0
 10 11  2  0
 10 12  1  0
 12 13  1  0
 14 13  1  6
 14 15  1  0
 15 16  1  0
 17 16  1  1
 17 18  1  0
 18 19  1  0
 17 20  1  0
  9 21  1  0
 21 22  1  0
 22  3  2  0
 21  6  1  0
 19 14  1  0
 20 14  1  0
M  END
>  <energy_score>  (143) 
554.240385

>  <inchikey>  (143) 
JTEJVNYAELMDNE-UHFFFAOYSA-N

>  <smiles>  (143) 
COc1ccc2ncc(C(=O)NC[C@]34CC[C@H](CC3)N4)n2n1

>  <ref_pdb>  (143) 
A0875a

>  <alias>  (143) 
C3863-P87

>  <HIPPO Pose ID>  (143) 
479389

>  <name>  (143) 
C3863-P87

>  <HIPPO Compound ID>  (143) 
3863

>  <ref_mols>  (143) 
A0202a,A0875a

>  <distance_score>  (143) 
4.82035

>  <inspiration_score>  (143) 
None

$$$$
C1399-P296
     RDKit          3D

 18 18  0  0  0  0  0  0  0  0999 V2000
    7.5245   12.8806   24.1903 C   0  0  0  0  0  0  0  0  0  0  0  0
    7.8643   13.5712   22.8719 C   0  0  0  0  0  0  0  0  0  0  0  0
    7.0775   14.8613   22.7108 C   0  0  0  0  0  0  0  0  0  0  0  0
    9.3863   13.7605   22.6453 C   0  0  0  0  0  0  0  0  0  0  0  0
    9.8550   14.6246   23.7639 N   0  0  0  0  0  0  0  0  0  0  0  0
   11.1273   14.6491   22.8588 C   0  0  0  0  0  0  0  0  0  0  0  0
   11.2858   15.8744   21.9256 C   0  0  0  0  0  0  0  0  0  0  0  0
   10.7208   15.7009   20.5839 C   0  0  0  0  0  0  0  0  0  0  0  0
   10.2366   15.5870   19.5368 N   0  0  0  0  0  0  0  0  0  0  0  0
   10.2063   14.2801   25.1919 C   0  0  0  0  0  0  0  0  0  0  0  0
   10.2676   13.2369   25.7293 O   0  0  0  0  0  0  0  0  0  0  0  0
   10.3934   15.5703   25.9674 C   0  0  0  0  0  0  0  0  0  0  0  0
    9.2730   15.6677   27.0356 C   0  0  1  0  0  0  0  0  0  0  0  0
    9.8682   15.9731   28.4197 C   0  0  0  0  0  0  0  0  0  0  0  0
    8.9147   16.8035   29.2650 C   0  0  0  0  0  0  0  0  0  0  0  0
    8.5668   18.1200   28.5636 C   0  0  0  0  0  0  0  0  0  0  0  0
    8.5002   18.0362   27.0910 N   0  0  0  0  0  0  0  0  0  0  0  0
    8.1693   16.6718   26.6578 C   0  0  0  0  0  0  0  0  0  0  0  0
  1  2  1  0
  2  3  1  0
  2  4  1  0
  4  5  1  0
  5  6  1  0
  6  7  1  0
  7  8  1  0
  8  9  3  0
  5 10  1  0
 10 11  2  0
 10 12  1  0
 13 12  1  6
 13 14  1  0
 14 15  1  0
 15 16  1  0
 16 17  1  0
 17 18  1  0
 18 13  1  0
M  END
>  <energy_score>  (144) 
54.238624

>  <inchikey>  (144) 
VUDZIAUPKJMEKU-UHFFFAOYSA-N

>  <smiles>  (144) 
CC(C)CN(CCC#N)C(=O)C[C@H]1CCCNC1

>  <ref_pdb>  (144) 
A4311a

>  <alias>  (144) 
C1399-P296

>  <HIPPO Pose ID>  (144) 
481610

>  <name>  (144) 
C1399-P296

>  <HIPPO Compound ID>  (144) 
1399

>  <ref_mols>  (144) 
A4311a,A3181b

>  <distance_score>  (144) 
1.373959

>  <inspiration_score>  (144) 
None

$$$$
C4256-P174
     RDKit          3D

 19 21  0  0  0  0  0  0  0  0999 V2000
    9.4972    8.8144   22.4725 C   0  0  0  0  0  0  0  0  0  0  0  0
    9.6331    9.5105   23.7939 C   0  0  1  0  0  0  0  0  0  0  0  0
    9.6272   10.9270   23.7377 N   0  0  0  0  0  0  0  0  0  0  0  0
   10.7800   11.9524   23.9535 C   0  0  0  0  0  0  0  0  0  0  0  0
   11.9190   11.7815   24.1325 O   0  0  0  0  0  0  0  0  0  0  0  0
   10.0415   13.2340   23.9756 C   0  0  0  0  0  0  0  0  0  0  0  0
    9.1170   13.5268   22.8136 C   0  0  0  0  0  0  0  0  0  0  0  0
    7.6671   13.7470   23.2804 C   0  0  0  0  0  0  0  0  0  0  0  0
    7.4795   13.9660   24.7684 C   0  0  0  0  0  0  0  0  0  0  0  0
    6.4676   13.2608   25.4309 C   0  0  0  0  0  0  0  0  0  0  0  0
    6.3394   13.3118   26.8120 C   0  0  0  0  0  0  0  0  0  0  0  0
    7.2072   14.1064   27.5469 C   0  0  0  0  0  0  0  0  0  0  0  0
    8.2041   14.8388   26.9098 C   0  0  0  0  0  0  0  0  0  0  0  0
    8.3550   14.7800   25.5247 C   0  0  0  0  0  0  0  0  0  0  0  0
    9.5425   15.4727   24.8927 C   0  0  0  0  0  0  0  0  0  0  0  0
   10.6703   14.4805   24.5127 C   0  0  0  0  0  0  0  0  0  0  0  0
    8.4081    9.1654   24.6286 C   0  0  0  0  0  0  0  0  0  0  0  0
    7.7935   10.0797   25.6874 C   0  0  0  0  0  0  0  0  0  0  0  0
    7.0685    9.8366   24.4209 C   0  0  0  0  0  0  0  0  0  0  0  0
  2  1  1  6
  2  3  1  0
  3  4  1  0
  4  5  2  0
  4  6  1  0
  6  7  1  0
  7  8  1  0
  8  9  1  0
  9 10  2  0
 10 11  1  0
 11 12  2  0
 12 13  1  0
 13 14  2  0
 14 15  1  0
 15 16  1  0
  2 17  1  0
 17 18  1  0
 18 19  1  0
 16  6  1  0
 19 17  1  0
 14  9  1  0
M  END
>  <energy_score>  (145) 
17.516451

>  <inchikey>  (145) 
HPPAAFQSZKKTKP-UHFFFAOYSA-N

>  <smiles>  (145) 
C[C@@H](NC(=O)C1CCc2ccccc2CC1)C1CC1

>  <ref_pdb>  (145) 
A3371a

>  <alias>  (145) 
C4256-P174

>  <HIPPO Pose ID>  (145) 
482764

>  <name>  (145) 
C4256-P174

>  <HIPPO Compound ID>  (145) 
4256

>  <ref_mols>  (145) 
A1778a,A3371a

>  <distance_score>  (145) 
3.166051

>  <inspiration_score>  (145) 
None

$$$$
C33613-P137
     RDKit          3D

 22 24  0  0  0  0  0  0  0  0999 V2000
   12.6166   13.1433   23.9822 C   0  0  0  0  0  0  0  0  0  0  0  0
   11.9365   14.2234   23.1357 C   0  0  0  0  0  0  0  0  0  0  0  0
   12.9516   14.8337   22.1513 C   0  0  0  0  0  0  0  0  0  0  0  0
   10.8056   13.6329   22.2924 C   0  0  1  0  0  0  0  0  0  0  0  0
   10.0062   12.6055   22.9024 N   0  0  0  0  0  0  0  0  0  0  0  0
    9.2788   12.5734   24.2789 C   0  0  0  0  0  0  0  0  0  0  0  0
    9.1557   13.4066   25.0899 O   0  0  0  0  0  0  0  0  0  0  0  0
    8.8065   11.1940   24.4844 C   0  0  0  0  0  0  0  0  0  0  0  0
    9.4462   10.0877   23.9216 C   0  0  0  0  0  0  0  0  0  0  0  0
    8.8143    8.9617   24.3917 C   0  0  0  0  0  0  0  0  0  0  0  0
    7.8936    9.2709   25.2792 N   0  0  0  0  0  0  0  0  0  0  0  0
    7.8626   10.6269   25.3396 N   0  0  0  0  0  0  0  0  0  0  0  0
    6.7195   11.1555   26.0897 C   0  0  0  0  0  0  0  0  0  0  0  0
    6.9328   11.9625   27.3806 C   0  0  0  0  0  0  0  0  0  0  0  0
    5.9360   11.4399   28.4363 C   0  0  0  0  0  0  0  0  0  0  0  0
    4.8790   10.7114   27.6387 C   0  0  0  0  0  0  0  0  0  0  0  0
    5.7446   10.0438   26.5969 C   0  0  0  0  0  0  0  0  0  0  0  0
   10.1606   14.6020   21.3648 C   0  0  0  0  0  0  0  0  0  0  0  0
    9.2172   15.4756   21.6177 N   0  0  0  0  0  0  0  0  0  0  0  0
    9.2421   16.3634   20.5663 C   0  0  0  0  0  0  0  0  0  0  0  0
   10.1331   15.9649   19.6034 C   0  0  0  0  0  0  0  0  0  0  0  0
   10.6770   14.8186   20.0971 N   0  0  0  0  0  0  0  0  0  0  0  0
  1  2  1  0
  2  3  1  0
  2  4  1  0
  4  5  1  1
  5  6  1  0
  6  7  2  0
  6  8  1  0
  8  9  2  0
  9 10  1  0
 10 11  2  0
 11 12  1  0
 12 13  1  0
 13 14  1  0
 14 15  1  0
 15 16  1  0
 16 17  1  0
  4 18  1  0
 18 19  2  0
 19 20  1  0
 20 21  2  0
 21 22  1  0
 12  8  1  0
 17 13  1  0
 22 18  1  0
M  END
>  <energy_score>  (146) 
5.719052

>  <inchikey>  (146) 
NBHSRRAUBJKLTH-UHFFFAOYSA-N

>  <smiles>  (146) 
CC(C)[C@@H](NC(=O)c1ccnn1C1CCCC1)c1ncc[nH]1

>  <ref_pdb>  (146) 
A2972a

>  <alias>  (146) 
C33613-P137

>  <HIPPO Pose ID>  (146) 
482901

>  <name>  (146) 
C33613-P137

>  <HIPPO Compound ID>  (146) 
33613

>  <ref_mols>  (146) 
A2972a,A0556a

>  <distance_score>  (146) 
2.185821

>  <inspiration_score>  (146) 
None

$$$$
C1132-P228
     RDKit          3D

 23 25  0  0  0  0  0  0  0  0999 V2000
    5.8830   11.4922    3.0267 C   0  0  0  0  0  0  0  0  0  0  0  0
    5.6524   12.4731    4.0347 O   0  0  0  0  0  0  0  0  0  0  0  0
    6.7026   12.7605    4.8328 C   0  0  0  0  0  0  0  0  0  0  0  0
    6.6026   13.8574    5.6526 C   0  0  0  0  0  0  0  0  0  0  0  0
    7.7696   14.2914    6.5364 C   0  0  0  0  0  0  0  0  0  0  0  0
    9.6065   13.8616    7.0552 C   0  0  0  0  0  0  0  0  0  0  0  0
    9.0068   12.9124    5.6404 C   0  0  0  0  0  0  0  0  0  0  0  0
    7.9221   12.1695    4.8892 C   0  0  0  0  0  0  0  0  0  0  0  0
    9.0913   14.2556    4.4405 C   0  0  0  0  0  0  0  0  0  0  0  0
    9.8783   15.1582    5.3736 C   0  0  0  0  0  0  0  0  0  0  0  0
    9.8740   14.2168    7.2623 C   0  0  0  0  0  0  0  0  0  0  0  0
   10.9399   13.4321    8.7261 N   0  0  0  0  0  0  0  0  0  0  0  0
   10.5060   12.3297   10.5786 C   0  0  0  0  0  0  0  0  0  0  0  0
    9.3772   12.0943   10.6106 O   0  0  0  0  0  0  0  0  0  0  0  0
   11.2881   11.6788   12.5011 C   0  0  0  0  0  0  0  0  0  0  0  0
   10.5793   10.5360   14.8026 S   0  0  0  0  0  0  0  0  0  0  0  0
    9.7949    9.8196   17.2945 C   0  0  0  0  0  0  0  0  0  0  0  0
    9.9058    8.6686   19.3440 C   0  0  0  0  0  0  0  0  0  0  0  0
   10.6020    9.4944   20.9827 C   0  0  0  0  0  0  0  0  0  0  0  0
    9.9493   10.5262   22.0859 C   0  0  0  0  0  0  0  0  0  0  0  0
    8.8022   10.1093   22.8244 N   0  0  0  0  0  0  0  0  0  0  0  0
    8.6576    8.7161   22.5392 C   0  0  0  0  0  0  0  0  0  0  0  0
    8.9795    8.0671   20.9851 C   0  0  0  0  0  0  0  0  0  0  0  0
  1  2  1  0
  2  3  1  0
  3  4  2  0
  4  5  1  0
  5  6  2  0
  6  7  1  0
  7  8  2  0
  7  9  1  0
  9 10  1  0
 10 11  1  0
 11 12  1  0
 12 13  1  0
 13 14  2  0
 13 15  1  0
 15 16  1  0
 16 17  1  0
 17 18  1  0
 18 19  1  0
 19 20  1  0
 20 21  1  0
 21 22  1  0
 22 23  1  0
  8  3  1  0
 23 18  1  0
 12  6  1  0
M  END
>  <energy_score>  (147) 
3026.13452

>  <inchikey>  (147) 
MFKRNLQTMZKUJR-UHFFFAOYSA-N

>  <smiles>  (147) 
COc1ccc2c(c1)CCCN2C(=O)CSCC1CCNCC1

>  <ref_pdb>  (147) 
A3868a

>  <alias>  (147) 
C1132-P228

>  <HIPPO Pose ID>  (147) 
483323

>  <name>  (147) 
C1132-P228

>  <HIPPO Compound ID>  (147) 
1132

>  <ref_mols>  (147) 
A3868a,A0586a

>  <distance_score>  (147) 
5.784897

>  <inspiration_score>  (147) 
None

$$$$
C11987-P343
     RDKit          3D

 23 25  0  0  0  0  0  0  0  0999 V2000
   10.9491   14.6138   18.4533 C   0  0  0  0  0  0  0  0  0  0  0  0
    9.8715   15.4234   18.8882 O   0  0  0  0  0  0  0  0  0  0  0  0
   10.3656   16.4189   19.7491 C   0  0  0  0  0  0  0  0  0  0  0  0
   10.6499   15.8456   21.0947 C   0  0  0  0  0  0  0  0  0  0  0  0
   11.8708   16.0197   21.7288 C   0  0  0  0  0  0  0  0  0  0  0  0
   12.0441   15.4882   22.9876 C   0  0  0  0  0  0  0  0  0  0  0  0
   11.1177   14.7760   23.6443 N   0  0  0  0  0  0  0  0  0  0  0  0
    9.9619   14.5813   22.9844 C   0  0  0  0  0  0  0  0  0  0  0  0
    9.0637   13.8067   23.6616 N   0  0  0  0  0  0  0  0  0  0  0  0
    7.7604   13.1562   23.1944 C   0  0  0  0  0  0  0  0  0  0  0  0
    7.1989   13.2360   22.1791 O   0  0  0  0  0  0  0  0  0  0  0  0
    7.2057   12.3979   24.3084 C   0  0  0  0  0  0  0  0  0  0  0  0
    7.5260   11.0477   24.4733 C   0  0  0  0  0  0  0  0  0  0  0  0
    6.9193   10.3422   25.5089 C   0  0  0  0  0  0  0  0  0  0  0  0
    6.0602   11.0095   26.3837 C   0  0  0  0  0  0  0  0  0  0  0  0
    5.8053   12.3674   26.1967 C   0  0  0  0  0  0  0  0  0  0  0  0
    6.3672   13.0879   25.1737 C   0  0  0  0  0  0  0  0  0  0  0  0
    4.9306   12.9717   27.1296 N   0  0  0  0  0  0  0  0  0  0  0  0
    4.3095   11.7436   28.1371 S   0  0  0  0  0  0  0  0  0  0  0  0
    2.9331   11.5235   27.7443 O   0  0  0  0  0  0  0  0  0  0  0  0
    4.6788   12.0524   29.5004 O   0  0  0  0  0  0  0  0  0  0  0  0
    5.3261   10.3912   27.5330 C   0  0  0  0  0  0  0  0  0  0  0  0
    9.6714   15.1041   21.7385 C   0  0  0  0  0  0  0  0  0  0  0  0
  1  2  1  0
  2  3  1  0
  3  4  1  0
  4  5  2  0
  5  6  1  0
  6  7  2  0
  7  8  1  0
  8  9  1  0
  9 10  1  0
 10 11  2  0
 10 12  1  0
 12 13  2  0
 13 14  1  0
 14 15  2  0
 15 16  1  0
 16 17  2  0
 16 18  1  0
 18 19  1  0
 19 20  2  0
 19 21  2  0
 19 22  1  0
  8 23  2  0
 23  4  1  0
 17 12  1  0
 22 15  1  0
M  END
>  <energy_score>  (148) 
-35.269542

>  <inchikey>  (148) 
KSXOKYAWWBQFNE-UHFFFAOYSA-N

>  <smiles>  (148) 
COCc1ccnc(NC(=O)c2ccc3c(c2)NS(=O)(=O)C3)c1

>  <ref_pdb>  (148) 
A4274a

>  <alias>  (148) 
C11987-P343

>  <HIPPO Pose ID>  (148) 
484432

>  <name>  (148) 
C11987-P343

>  <HIPPO Compound ID>  (148) 
11987

>  <ref_mols>  (148) 
A2513a,A4274a

>  <distance_score>  (148) 
2.107671

>  <inspiration_score>  (148) 
None

$$$$
C12009-P343
     RDKit          3D

 23 25  0  0  0  0  0  0  0  0999 V2000
   12.1194   14.1545   24.6319 C   0  0  0  0  0  0  0  0  0  0  0  0
   10.9014   14.8180   24.0092 C   0  0  2  0  0  0  0  0  0  0  0  0
    9.6769   14.1604   24.3880 O   0  0  0  0  0  0  0  0  0  0  0  0
    9.4613   12.9112   23.9198 C   0  0  0  0  0  0  0  0  0  0  0  0
   10.1845   12.2572   23.1962 O   0  0  0  0  0  0  0  0  0  0  0  0
    8.2309   12.3576   24.4973 C   0  0  0  0  0  0  0  0  0  0  0  0
    8.1161   10.9579   24.5447 C   0  0  0  0  0  0  0  0  0  0  0  0
    7.1464   10.3674   25.3484 C   0  0  0  0  0  0  0  0  0  0  0  0
    6.3225   11.1863   26.1082 C   0  0  0  0  0  0  0  0  0  0  0  0
    6.3680   12.5671   25.9345 C   0  0  0  0  0  0  0  0  0  0  0  0
    7.2919   13.1773   25.1182 C   0  0  0  0  0  0  0  0  0  0  0  0
    5.3944   13.3085   26.6458 N   0  0  0  0  0  0  0  0  0  0  0  0
    4.6337   12.2410   27.7425 S   0  0  0  0  0  0  0  0  0  0  0  0
    5.1058   12.5556   29.0737 O   0  0  0  0  0  0  0  0  0  0  0  0
    3.2261   12.2036   27.4119 O   0  0  0  0  0  0  0  0  0  0  0  0
    5.4179   10.7231   27.1983 C   0  0  0  0  0  0  0  0  0  0  0  0
   10.9323   15.0891   22.5363 C   0  0  0  0  0  0  0  0  0  0  0  0
   11.5557   14.2961   21.5816 C   0  0  0  0  0  0  0  0  0  0  0  0
   11.5738   14.5288   20.2395 N   0  0  0  0  0  0  0  0  0  0  0  0
   10.8299   15.5562   19.8090 C   0  0  0  0  0  0  0  0  0  0  0  0
   10.1267   16.3532   20.6822 C   0  0  0  0  0  0  0  0  0  0  0  0
    9.3559   17.3405   20.2537 F   0  0  0  0  0  0  0  0  0  0  0  0
   10.1924   16.1443   22.0424 C   0  0  0  0  0  0  0  0  0  0  0  0
  2  1  1  6
  2  3  1  0
  3  4  1  0
  4  5  2  0
  4  6  1  0
  6  7  2  0
  7  8  1  0
  8  9  2  0
  9 10  1  0
 10 11  2  0
 10 12  1  0
 12 13  1  0
 13 14  2  0
 13 15  2  0
 13 16  1  0
  2 17  1  0
 17 18  2  0
 18 19  1  0
 19 20  2  0
 20 21  1  0
 21 22  1  0
 21 23  2  0
 11  6  1  0
 23 17  1  0
 16  9  1  0
M  END
>  <energy_score>  (149) 
-23.529064

>  <inchikey>  (149) 
RZNCMZZNQCUVSA-UHFFFAOYSA-N

>  <smiles>  (149) 
C[C@H](OC(=O)c1ccc2c(c1)NS(=O)(=O)C2)c1cncc(F)c1

>  <ref_pdb>  (149) 
A4274a

>  <alias>  (149) 
C12009-P343

>  <HIPPO Pose ID>  (149) 
484447

>  <name>  (149) 
C12009-P343

>  <HIPPO Compound ID>  (149) 
12009

>  <ref_mols>  (149) 
A2513a,A4274a

>  <distance_score>  (149) 
1.419892

>  <inspiration_score>  (149) 
None

$$$$
C15471-P171
     RDKit          3D

 22 24  0  0  0  0  0  0  0  0999 V2000
    9.4763   14.3363   26.0637 O   0  0  0  0  0  0  0  0  0  0  0  0
    8.8370   13.9525   25.1947 C   0  0  0  0  0  0  0  0  0  0  0  0
    7.6989   13.0468   25.5081 C   0  0  0  0  0  0  0  0  0  0  0  0
    7.7561   11.7067   25.0852 C   0  0  0  0  0  0  0  0  0  0  0  0
    6.9392   10.7476   25.6935 C   0  0  0  0  0  0  0  0  0  0  0  0
    6.0732   11.1462   26.7114 C   0  0  0  0  0  0  0  0  0  0  0  0
    5.9492   12.4998   27.0340 C   0  0  0  0  0  0  0  0  0  0  0  0
    6.7595   13.4621   26.4576 C   0  0  0  0  0  0  0  0  0  0  0  0
    5.0500   12.7915   28.1014 N   0  0  0  0  0  0  0  0  0  0  0  0
    4.2371   11.3437   28.5061 S   0  0  0  0  0  0  0  0  0  0  0  0
    2.9490   11.3793   27.8453 O   0  0  0  0  0  0  0  0  0  0  0  0
    4.3664   11.1363   29.9300 O   0  0  0  0  0  0  0  0  0  0  0  0
    5.3257   10.2215   27.6222 C   0  0  0  0  0  0  0  0  0  0  0  0
    8.9489   14.1012   23.6374 N   0  0  0  0  0  0  0  0  0  0  0  0
   10.2304   15.2269   22.8566 C   0  0  0  0  0  0  0  0  0  0  0  0
   11.7693   14.9454   23.1869 C   0  0  0  0  0  0  0  0  0  0  0  0
   11.3033   13.7390   22.5989 C   0  0  0  0  0  0  0  0  0  0  0  0
    9.8680   14.6183   22.7300 C   0  0  1  0  0  0  0  0  0  0  0  0
    8.8547   14.9727   21.2071 C   0  0  0  0  0  0  0  0  0  0  0  0
    9.6569   15.0307   19.9262 C   0  0  0  0  0  0  0  0  0  0  0  0
   10.6390   16.1527   19.7661 C   0  0  0  0  0  0  0  0  0  0  0  0
   10.9707   16.2726   18.3924 O   0  0  0  0  0  0  0  0  0  0  0  0
  1  2  2  0
  2  3  1  0
  3  4  2  0
  4  5  1  0
  5  6  2  0
  6  7  1  0
  7  8  2  0
  7  9  1  0
  9 10  1  0
 10 11  2  0
 10 12  2  0
 10 13  1  0
  2 14  1  0
 14 15  1  0
 15 16  1  0
 16 17  1  0
 17 18  1  0
 18 19  1  6
 19 20  1  0
 20 21  1  0
 21 22  1  0
  8  3  1  0
 18 14  1  0
 13  6  1  0
M  END
>  <energy_score>  (150) 
620.103973

>  <inchikey>  (150) 
BCTSMZODMDXYPM-UHFFFAOYSA-N

>  <smiles>  (150) 
O=C(c1ccc2c(c1)NS(=O)(=O)C2)N1CCC[C@H]1CCCO

>  <ref_pdb>  (150) 
A3581a

>  <alias>  (150) 
C15471-P171

>  <HIPPO Pose ID>  (150) 
485914

>  <name>  (150) 
C15471-P171

>  <HIPPO Compound ID>  (150) 
15471

>  <ref_mols>  (150) 
A3581a,A2513a

>  <distance_score>  (150) 
1.774251

>  <inspiration_score>  (150) 
None

$$$$
C15476-P171
     RDKit          3D

 22 24  0  0  0  0  0  0  0  0999 V2000
   10.5306   15.3773   18.6351 C   0  0  0  0  0  0  0  0  0  0  0  0
   10.6075   15.7681   20.0891 C   0  0  0  0  0  0  0  0  0  0  0  0
   10.2435   16.8593   20.4141 O   0  0  0  0  0  0  0  0  0  0  0  0
   11.2217   14.7285   20.8443 N   0  0  0  0  0  0  0  0  0  0  0  0
   11.6768   14.6977   22.1863 C   0  0  2  0  0  0  0  0  0  0  0  0
   11.3859   13.5029   22.8871 C   0  0  0  0  0  0  0  0  0  0  0  0
   10.5378   14.6121   23.8310 C   0  0  0  0  0  0  0  0  0  0  0  0
    9.3289   14.1566   24.1472 N   0  0  0  0  0  0  0  0  0  0  0  0
    8.9974   12.6224   24.2774 C   0  0  0  0  0  0  0  0  0  0  0  0
    9.6063   11.6696   24.0392 O   0  0  0  0  0  0  0  0  0  0  0  0
    7.6549   12.4457   24.9304 C   0  0  0  0  0  0  0  0  0  0  0  0
    7.2977   11.1436   25.3463 C   0  0  0  0  0  0  0  0  0  0  0  0
    6.2364   10.9365   26.2319 C   0  0  0  0  0  0  0  0  0  0  0  0
    5.5264   12.0389   26.6920 C   0  0  0  0  0  0  0  0  0  0  0  0
    5.8239   13.3107   26.2017 C   0  0  0  0  0  0  0  0  0  0  0  0
    6.8778   13.5366   25.3319 C   0  0  0  0  0  0  0  0  0  0  0  0
    5.0443   14.3731   26.7439 N   0  0  0  0  0  0  0  0  0  0  0  0
    3.8090   13.6764   27.6920 S   0  0  0  0  0  0  0  0  0  0  0  0
    3.8675   14.2600   29.0128 O   0  0  0  0  0  0  0  0  0  0  0  0
    2.6047   13.6969   26.8902 O   0  0  0  0  0  0  0  0  0  0  0  0
    4.4566   11.9993   27.7356 C   0  0  0  0  0  0  0  0  0  0  0  0
   10.7855   15.2039   23.3893 C   0  0  0  0  0  0  0  0  0  0  0  0
  1  2  1  0
  2  3  2  0
  2  4  1  0
  5  4  1  6
  5  6  1  0
  6  7  1  0
  7  8  1  0
  8  9  1  0
  9 10  2  0
  9 11  1  0
 11 12  2  0
 12 13  1  0
 13 14  2  0
 14 15  1  0
 15 16  2  0
 15 17  1  0
 17 18  1  0
 18 19  2  0
 18 20  2  0
 18 21  1  0
  8 22  1  0
 22  5  1  0
 16 11  1  0
 21 14  1  0
M  END
>  <energy_score>  (151) 
713.795661

>  <inchikey>  (151) 
UQMQHNCBMSEKGJ-UHFFFAOYSA-N

>  <smiles>  (151) 
CC(=O)N[C@@H]1CCN(C(=O)c2ccc3c(c2)NS(=O)(=O)C3)C1

>  <ref_pdb>  (151) 
A3581a

>  <alias>  (151) 
C15476-P171

>  <HIPPO Pose ID>  (151) 
485919

>  <name>  (151) 
C15476-P171

>  <HIPPO Compound ID>  (151) 
15476

>  <ref_mols>  (151) 
A3581a,A2513a

>  <distance_score>  (151) 
1.560635

>  <inspiration_score>  (151) 
None

$$$$
C15494-P171
     RDKit          3D

 22 24  0  0  0  0  0  0  0  0999 V2000
   11.1207   15.2482   19.1622 C   0  0  0  0  0  0  0  0  0  0  0  0
   10.2325   15.2224   20.3841 C   0  0  0  0  0  0  0  0  0  0  0  0
    9.8604   16.4859   20.7073 F   0  0  0  0  0  0  0  0  0  0  0  0
    9.0858   14.5476   20.1090 F   0  0  0  0  0  0  0  0  0  0  0  0
   10.9843   14.4677   21.7547 C   0  0  1  0  0  0  0  0  0  0  0  0
   11.9233   15.6024   22.2971 C   0  0  0  0  0  0  0  0  0  0  0  0
   11.8485   14.6431   23.3534 C   0  0  0  0  0  0  0  0  0  0  0  0
   10.6228   14.0412   22.3317 C   0  0  0  0  0  0  0  0  0  0  0  0
    9.5031   14.1692   23.0063 N   0  0  0  0  0  0  0  0  0  0  0  0
    9.3630   13.7332   24.5077 C   0  0  0  0  0  0  0  0  0  0  0  0
   10.1270   13.3617   25.2880 O   0  0  0  0  0  0  0  0  0  0  0  0
    7.9297   13.7639   24.8769 C   0  0  0  0  0  0  0  0  0  0  0  0
    7.3694   12.6377   25.5083 C   0  0  0  0  0  0  0  0  0  0  0  0
    6.0458   12.6644   25.9498 C   0  0  0  0  0  0  0  0  0  0  0  0
    5.3053   13.8292   25.7652 C   0  0  0  0  0  0  0  0  0  0  0  0
    5.8823   14.9338   25.1320 C   0  0  0  0  0  0  0  0  0  0  0  0
    7.1780   14.9150   24.6560 C   0  0  0  0  0  0  0  0  0  0  0  0
    5.0322   16.0623   24.9703 N   0  0  0  0  0  0  0  0  0  0  0  0
    3.6269   15.7796   25.8920 S   0  0  0  0  0  0  0  0  0  0  0  0
    2.4948   15.9929   25.0184 O   0  0  0  0  0  0  0  0  0  0  0  0
    3.7712   16.4821   27.1493 O   0  0  0  0  0  0  0  0  0  0  0  0
    3.8762   14.0170   26.1666 C   0  0  0  0  0  0  0  0  0  0  0  0
  1  2  1  0
  2  3  1  0
  2  4  1  0
  5  2  1  6
  5  6  1  0
  6  7  1  0
  7  8  1  0
  8  9  1  0
  9 10  1  0
 10 11  2  0
 10 12  1  0
 12 13  2  0
 13 14  1  0
 14 15  2  0
 15 16  1  0
 16 17  2  0
 16 18  1  0
 18 19  1  0
 19 20  2  0
 19 21  2  0
 19 22  1  0
  9  5  1  0
 17 12  1  0
 22 15  1  0
M  END
>  <energy_score>  (152) 
694.581876

>  <inchikey>  (152) 
ZQTXUGBNRHOCTR-UHFFFAOYSA-N

>  <smiles>  (152) 
CC(F)(F)[C@H]1CCCN1C(=O)c1ccc2c(c1)NS(=O)(=O)C2

>  <ref_pdb>  (152) 
A3581a

>  <alias>  (152) 
C15494-P171

>  <HIPPO Pose ID>  (152) 
485935

>  <name>  (152) 
C15494-P171

>  <HIPPO Compound ID>  (152) 
15494

>  <ref_mols>  (152) 
A3581a,A2513a

>  <distance_score>  (152) 
1.990364

>  <inspiration_score>  (152) 
None

$$$$
C13918-P135
     RDKit          3D

 19 20  0  0  0  0  0  0  0  0999 V2000
   13.5839   17.1908   21.3434 C   0  0  0  0  0  0  0  0  0  0  0  0
   12.6751   16.3554   20.6404 N   0  0  0  0  0  0  0  0  0  0  0  0
   12.6993   16.5591   19.2654 C   0  0  0  0  0  0  0  0  0  0  0  0
   12.8750   17.6193   18.6807 O   0  0  0  0  0  0  0  0  0  0  0  0
   12.5392   15.2486   18.5796 C   0  0  0  0  0  0  0  0  0  0  0  0
   12.1400   14.2954   19.6812 C   0  0  0  0  0  0  0  0  0  0  0  0
   12.6298   14.9401   20.9656 C   0  0  2  0  0  0  0  0  0  0  0  0
   11.9511   14.2633   22.1956 C   0  0  0  0  0  0  0  0  0  0  0  0
   12.4770   13.3210   22.7915 O   0  0  0  0  0  0  0  0  0  0  0  0
   10.6957   14.6855   22.5338 O   0  0  0  0  0  0  0  0  0  0  0  0
    9.7127   13.6172   22.4988 C   0  0  0  0  0  0  0  0  0  0  0  0
    9.2701   12.9219   23.8387 C   0  0  0  0  0  0  0  0  0  0  0  0
   10.0804   13.3935   25.0309 C   0  0  0  0  0  0  0  0  0  0  0  0
    7.7931   13.3068   24.1316 C   0  0  0  0  0  0  0  0  0  0  0  0
    9.3971   11.4554   23.7550 N   0  0  0  0  0  0  0  0  0  0  0  0
   10.3010   10.7294   23.0364 C   0  0  0  0  0  0  0  0  0  0  0  0
    9.9920    9.4061   23.2039 C   0  0  0  0  0  0  0  0  0  0  0  0
    8.9300    9.4354   24.1053 C   0  0  0  0  0  0  0  0  0  0  0  0
    8.5826   10.6651   24.4880 N   0  0  0  0  0  0  0  0  0  0  0  0
  1  2  1  0
  2  3  1  0
  3  4  2  0
  3  5  1  0
  5  6  1  0
  6  7  1  0
  7  8  1  1
  8  9  2  0
  8 10  1  0
 10 11  1  0
 11 12  1  0
 12 13  1  0
 12 14  1  0
 12 15  1  0
 15 16  1  0
 16 17  2  0
 17 18  1  0
 18 19  2  0
  7  2  1  0
 19 15  1  0
M  END
>  <energy_score>  (153) 
-12.447233

>  <inchikey>  (153) 
FZXVNLASEWYDBT-UHFFFAOYSA-N

>  <smiles>  (153) 
CN1C(=O)CC[C@@H]1C(=O)OCC(C)(C)n1cccn1

>  <ref_pdb>  (153) 
A2629a

>  <alias>  (153) 
C13918-P135

>  <HIPPO Pose ID>  (153) 
495248

>  <name>  (153) 
C13918-P135

>  <HIPPO Compound ID>  (153) 
13918

>  <ref_mols>  (153) 
A3956a,A2629a

>  <distance_score>  (153) 
1.430133

>  <inspiration_score>  (153) 
None

$$$$
C1142-P465
     RDKit          3D

 22 24  0  0  0  0  0  0  0  0999 V2000
    4.1863   15.3755    3.7825 C   0  0  0  0  0  0  0  0  0  0  0  0
    5.1471   16.3965    4.0408 O   0  0  0  0  0  0  0  0  0  0  0  0
    6.2322   15.9830    4.7648 C   0  0  0  0  0  0  0  0  0  0  0  0
    7.4490   16.3242    4.2671 C   0  0  0  0  0  0  0  0  0  0  0  0
    8.4293   15.5126    4.7395 C   0  0  0  0  0  0  0  0  0  0  0  0
    8.1242   14.6341    5.8386 C   0  0  0  0  0  0  0  0  0  0  0  0
    7.1627   14.8774    6.8919 C   0  0  0  0  0  0  0  0  0  0  0  0
    6.1464   15.2043    5.9818 C   0  0  0  0  0  0  0  0  0  0  0  0
    6.9201   13.9890    8.6315 C   0  0  2  0  0  0  0  0  0  0  0  0
    7.6563   13.6137   10.5469 N   0  0  0  0  0  0  0  0  0  0  0  0
    6.9497   13.9608   12.2883 C   0  0  0  0  0  0  0  0  0  0  0  0
    5.8299   14.4190   12.5303 O   0  0  0  0  0  0  0  0  0  0  0  0
    8.1024   13.6479   14.0388 C   0  0  2  0  0  0  0  0  0  0  0  0
    8.4828   12.8747   15.8641 C   0  0  0  0  0  0  0  0  0  0  0  0
    9.6600   13.1505   17.2907 C   0  0  0  0  0  0  0  0  0  0  0  0
    9.9430   14.1105   18.4441 C   0  0  0  0  0  0  0  0  0  0  0  0
    9.5845   15.4279   17.9517 C   0  0  0  0  0  0  0  0  0  0  0  0
    8.4477   15.3076   16.8577 C   0  0  0  0  0  0  0  0  0  0  0  0
    7.6854   14.5370   15.4603 N   0  0  0  0  0  0  0  0  0  0  0  0
    6.7990   12.6957    7.0583 C   0  0  0  0  0  0  0  0  0  0  0  0
    7.5335   12.4533    5.6952 C   0  0  0  0  0  0  0  0  0  0  0  0
    8.6133   13.3472    5.6458 N   0  0  0  0  0  0  0  0  0  0  0  0
  1  2  1  0
  2  3  1  0
  3  4  2  0
  4  5  1  0
  5  6  2  0
  6  7  1  0
  7  8  2  0
  7  9  1  0
  9 10  1  1
 10 11  1  0
 11 12  2  0
 13 11  1  1
 13 14  1  0
 14 15  1  0
 15 16  1  0
 16 17  1  0
 17 18  1  0
 18 19  1  0
  9 20  1  0
 20 21  1  0
 21 22  1  0
  8  3  1  0
 19 13  1  0
 22  6  1  0
M  END
>  <energy_score>  (154) 
1079.675622

>  <inchikey>  (154) 
JWMDCIUJPJCIMA-UHFFFAOYSA-N

>  <smiles>  (154) 
COc1ccc2c(c1)[C@H](NC(=O)[C@@H]1CCCCCN1)CCN2

>  <ref_pdb>  (154) 
A4786a

>  <alias>  (154) 
C1142-P465

>  <HIPPO Pose ID>  (154) 
496163

>  <name>  (154) 
C1142-P465

>  <HIPPO Compound ID>  (154) 
1142

>  <ref_mols>  (154) 
A4786a,A0586a

>  <distance_score>  (154) 
5.444975

>  <inspiration_score>  (154) 
None

$$$$
P496339
     RDKit          3D

 21 23  0  0  0  0  0  0  0  0999 V2000
   10.2204   14.2872   25.4067 O   0  0  0  0  0  0  0  0  0  0  0  0
   10.2449   13.6466   24.4344 C   0  0  0  0  0  0  0  0  0  0  0  0
   11.1778   13.7170   23.2226 N   0  0  0  0  0  0  0  0  0  0  0  0
    9.2731   12.5073   24.3585 C   0  0  0  0  0  0  0  0  0  0  0  0
    9.5750   11.3007   23.7293 C   0  0  0  0  0  0  0  0  0  0  0  0
    8.7815   10.2112   24.0200 C   0  0  0  0  0  0  0  0  0  0  0  0
    7.7297   10.2545   24.8688 N   0  0  0  0  0  0  0  0  0  0  0  0
    7.4034   11.4540   25.4142 C   0  0  0  0  0  0  0  0  0  0  0  0
    8.1295   12.6035   25.1600 C   0  0  0  0  0  0  0  0  0  0  0  0
    6.3309   11.4871   26.3448 N   0  0  0  0  0  0  0  0  0  0  0  0
    5.5228   12.5355   26.7161 C   0  0  0  0  0  0  0  0  0  0  0  0
    4.6606   12.0268   27.6644 C   0  0  0  0  0  0  0  0  0  0  0  0
    4.9294   10.7181   27.9208 N   0  0  0  0  0  0  0  0  0  0  0  0
    5.9146   10.4240   27.1046 C   0  0  0  0  0  0  0  0  0  0  0  0
   12.2217   14.6498   22.9010 C   0  0  0  0  0  0  0  0  0  0  0  0
   12.2806   15.0194   21.4281 C   0  0  0  0  0  0  0  0  0  0  0  0
   10.9538   15.2709   20.7966 C   0  0  0  0  0  0  0  0  0  0  0  0
   10.6603   15.2167   19.4198 C   0  0  0  0  0  0  0  0  0  0  0  0
    9.4674   15.8799   19.3068 C   0  0  0  0  0  0  0  0  0  0  0  0
    9.0438   16.1416   20.5724 N   0  0  0  0  0  0  0  0  0  0  0  0
    9.8892   15.6757   21.4990 N   0  0  0  0  0  0  0  0  0  0  0  0
  1  2  2  0
  2  3  1  0
  3 15  1  0
 15 16  1  0
 16 17  1  0
 17 18  1  0
 18 19  2  0
 19 20  1  0
 20 21  1  0
  2  4  1  0
  4  5  2  0
  5  6  1  0
  6  7  2  0
  7  8  1  0
  8 10  1  0
 10 11  1  0
 11 12  2  0
 12 13  1  0
 13 14  2  0
  8  9  2  0
 21 17  2  0
  9  4  1  0
 14 10  1  0
M  END
>  <energy_score>  (155) 
-6.84743

>  <inchikey>  (155) 
ZZPZYEPSKIPXIU-UHFFFAOYSA-N

>  <smiles>  (155) 
O=C(NCCc1cc[nH]n1)c1ccnc(-n2ccnc2)c1

>  <ref_pdb>  (155) 
A3435a

>  <alias>  (155) 
None

>  <HIPPO Pose ID>  (155) 
496339

>  <name>  (155) 
P496339

>  <HIPPO Compound ID>  (155) 
16361

>  <ref_mols>  (155) 
A0556a,A3435a

>  <distance_score>  (155) 
0.44443

>  <inspiration_score>  (155) 
None

$$$$
P497800
     RDKit          3D

 25 28  0  0  0  0  0  0  0  0999 V2000
    8.7630   12.3610    0.9956 C   0  0  0  0  0  0  0  0  0  0  0  0
    8.9498   13.6075    1.6974 N   0  0  0  0  0  0  0  0  0  0  0  0
    8.1952   14.0923    2.7177 C   0  0  0  0  0  0  0  0  0  0  0  0
    8.7827   15.2823    3.0848 C   0  0  0  0  0  0  0  0  0  0  0  0
    9.9174   15.4345    2.2384 C   0  0  0  0  0  0  0  0  0  0  0  0
   11.0084   16.4320    2.2807 C   0  0  0  0  0  0  0  0  0  0  0  0
   11.8743   16.5566    1.1814 C   0  0  0  0  0  0  0  0  0  0  0  0
   13.0176   17.3748    1.2237 C   0  0  0  0  0  0  0  0  0  0  0  0
   13.3584   18.0974    2.3762 C   0  0  0  0  0  0  0  0  0  0  0  0
   14.6127   18.9738    2.3901 C   0  0  0  0  0  0  0  0  0  0  0  0
   15.7152   18.4483    3.2149 N   0  0  0  0  0  0  0  0  0  0  0  0
   17.0716   18.6366    2.6204 C   0  0  0  0  0  0  0  0  0  0  0  0
   17.6534   17.3259    2.0898 C   0  0  0  0  0  0  0  0  0  0  0  0
   16.8067   16.5488    1.2948 C   0  0  0  0  0  0  0  0  0  0  0  0
   17.0352   15.1973    1.0999 C   0  0  0  0  0  0  0  0  0  0  0  0
   18.1836   14.6339    1.6510 C   0  0  0  0  0  0  0  0  0  0  0  0
   18.6465   13.3208    1.7975 C   0  0  0  0  0  0  0  0  0  0  0  0
   19.8409   13.2750    2.3745 N   0  0  0  0  0  0  0  0  0  0  0  0
   20.2056   14.5725    2.4562 N   0  0  0  0  0  0  0  0  0  0  0  0
   21.6132   14.8509    2.6166 C   0  0  0  0  0  0  0  0  0  0  0  0
   19.1602   15.4460    2.2288 C   0  0  0  0  0  0  0  0  0  0  0  0
   18.9303   16.8242    2.4475 C   0  0  0  0  0  0  0  0  0  0  0  0
   12.4854   17.9994    3.4717 C   0  0  0  0  0  0  0  0  0  0  0  0
   11.3228   17.1872    3.4223 C   0  0  0  0  0  0  0  0  0  0  0  0
    9.9808   14.4046    1.3740 N   0  0  0  0  0  0  0  0  0  0  0  0
  1  2  1  0
  2  3  1  0
  3  4  2  0
  4  5  1  0
  5  6  1  0
  6  7  2  0
  7  8  1  0
  8  9  2  0
  9 10  1  0
 10 11  1  0
 11 12  1  0
 12 13  1  0
 13 14  2  0
 14 15  1  0
 15 16  2  0
 16 17  1  0
 17 18  2  0
 18 19  1  0
 19 20  1  0
 19 21  1  0
 21 22  2  0
  9 23  1  0
 23 24  2  0
  5 25  2  0
 25  2  1  0
 24  6  1  0
 22 13  1  0
 21 16  1  0
M  END
>  <energy_score>  (156) 
-15.722514

>  <inchikey>  (156) 
None

>  <smiles>  (156) 
None

>  <ref_pdb>  (156) 
A0486a

>  <alias>  (156) 
None

>  <HIPPO Pose ID>  (156) 
497800

>  <name>  (156) 
P497800

>  <HIPPO Compound ID>  (156) 
289721

>  <ref_mols>  (156) 
A0486a,A0717a

>  <distance_score>  (156) 
1.809404

>  <inspiration_score>  (156) 
None

$$$$
P497801
     RDKit          3D

 25 28  0  0  0  0  0  0  0  0999 V2000
   10.5093   14.4246   -0.2377 C   0  0  0  0  0  0  0  0  0  0  0  0
    9.7931   14.4698    1.0172 N   0  0  0  0  0  0  0  0  0  0  0  0
    8.8003   13.5828    1.2112 N   0  0  0  0  0  0  0  0  0  0  0  0
    8.2791   13.9373    2.3838 C   0  0  0  0  0  0  0  0  0  0  0  0
    8.9394   15.0493    2.9403 C   0  0  0  0  0  0  0  0  0  0  0  0
    9.9973   15.3222    2.0847 C   0  0  0  0  0  0  0  0  0  0  0  0
   11.1695   16.2009    2.2423 C   0  0  0  0  0  0  0  0  0  0  0  0
   11.0756   17.5485    2.5930 C   0  0  0  0  0  0  0  0  0  0  0  0
   12.2363   18.3527    2.7098 C   0  0  0  0  0  0  0  0  0  0  0  0
   13.5292   17.8320    2.5044 C   0  0  0  0  0  0  0  0  0  0  0  0
   14.7542   18.7508    2.4479 C   0  0  0  0  0  0  0  0  0  0  0  0
   15.9213   18.3214    3.2380 N   0  0  0  0  0  0  0  0  0  0  0  0
   17.2353   18.6307    2.6060 C   0  0  0  0  0  0  0  0  0  0  0  0
   17.8582   17.3848    1.9797 C   0  0  0  0  0  0  0  0  0  0  0  0
   17.0881   16.7131    1.0275 C   0  0  0  0  0  0  0  0  0  0  0  0
   17.2809   15.3626    0.7785 C   0  0  0  0  0  0  0  0  0  0  0  0
   18.3175   14.7062    1.4418 C   0  0  0  0  0  0  0  0  0  0  0  0
   18.6868   13.3629    1.5985 C   0  0  0  0  0  0  0  0  0  0  0  0
   19.7990   13.2325    2.3126 N   0  0  0  0  0  0  0  0  0  0  0  0
   20.2335   14.5033    2.4521 N   0  0  0  0  0  0  0  0  0  0  0  0
   21.6438   14.6971    2.6960 C   0  0  0  0  0  0  0  0  0  0  0  0
   19.2597   15.4380    2.1644 C   0  0  0  0  0  0  0  0  0  0  0  0
   19.0696   16.8097    2.4343 C   0  0  0  0  0  0  0  0  0  0  0  0
   13.6167   16.4688    2.2016 C   0  0  0  0  0  0  0  0  0  0  0  0
   12.4634   15.6738    2.0735 C   0  0  0  0  0  0  0  0  0  0  0  0
  1  2  1  0
  2  3  1  0
  3  4  2  0
  4  5  1  0
  5  6  2  0
  6  7  1  0
  7  8  2  0
  8  9  1  0
  9 10  2  0
 10 11  1  0
 11 12  1  0
 12 13  1  0
 13 14  1  0
 14 15  2  0
 15 16  1  0
 16 17  2  0
 17 18  1  0
 18 19  2  0
 19 20  1  0
 20 21  1  0
 20 22  1  0
 22 23  2  0
 10 24  1  0
 24 25  2  0
  6  2  1  0
 25  7  1  0
 23 14  1  0
 22 17  1  0
M  END
>  <energy_score>  (157) 
-14.599318

>  <inchikey>  (157) 
None

>  <smiles>  (157) 
None

>  <ref_pdb>  (157) 
A0486a

>  <alias>  (157) 
None

>  <HIPPO Pose ID>  (157) 
497801

>  <name>  (157) 
P497801

>  <HIPPO Compound ID>  (157) 
289722

>  <ref_mols>  (157) 
A0486a,A0717a

>  <distance_score>  (157) 
1.730914

>  <inspiration_score>  (157) 
None

$$$$
P497802
     RDKit          3D

 26 29  0  0  0  0  0  0  0  0999 V2000
    8.6446   11.8574    1.3432 C   0  0  0  0  0  0  0  0  0  0  0  0
    8.9401   13.2159    1.7309 N   0  0  0  0  0  0  0  0  0  0  0  0
    8.2573   13.9757    2.6263 C   0  0  0  0  0  0  0  0  0  0  0  0
    8.9237   15.1785    2.6821 C   0  0  0  0  0  0  0  0  0  0  0  0
   10.0261   15.0547    1.7904 C   0  0  0  0  0  0  0  0  0  0  0  0
   11.1283   15.9936    1.5078 C   0  0  0  0  0  0  0  0  0  0  0  0
   11.4914   17.0313    2.3725 C   0  0  0  0  0  0  0  0  0  0  0  0
   12.6233   17.8387    2.1046 C   0  0  0  0  0  0  0  0  0  0  0  0
   13.4328   17.6403    0.9668 C   0  0  0  0  0  0  0  0  0  0  0  0
   14.6300   18.5573    0.6960 C   0  0  0  0  0  0  0  0  0  0  0  0
   15.7873   17.9129    0.0482 N   0  0  0  0  0  0  0  0  0  0  0  0
   17.0966   18.3086    0.5854 C   0  0  2  0  0  0  0  0  0  0  0  0
   17.9391   18.4347   -0.5365 O   0  0  0  0  0  0  0  0  0  0  0  0
   17.6657   17.2592    1.5450 C   0  0  0  0  0  0  0  0  0  0  0  0
   16.8146   16.8438    2.5783 C   0  0  0  0  0  0  0  0  0  0  0  0
   17.0362   15.6676    3.2748 C   0  0  0  0  0  0  0  0  0  0  0  0
   18.1842   14.9327    2.9864 C   0  0  0  0  0  0  0  0  0  0  0  0
   18.6675   13.6836    3.3900 C   0  0  0  0  0  0  0  0  0  0  0  0
   19.8636   13.4112    2.8861 N   0  0  0  0  0  0  0  0  0  0  0  0
   20.1986   14.5476    2.2383 N   0  0  0  0  0  0  0  0  0  0  0  0
   21.5702   14.6941    1.8167 C   0  0  0  0  0  0  0  0  0  0  0  0
   19.1549   15.4439    2.1284 C   0  0  0  0  0  0  0  0  0  0  0  0
   18.9229   16.6191    1.3823 C   0  0  0  0  0  0  0  0  0  0  0  0
   13.0391   16.6335    0.0799 C   0  0  0  0  0  0  0  0  0  0  0  0
   11.9199   15.8211    0.3547 C   0  0  0  0  0  0  0  0  0  0  0  0
   10.0122   13.8393    1.2153 N   0  0  0  0  0  0  0  0  0  0  0  0
  1  2  1  0
  2  3  1  0
  3  4  2  0
  4  5  1  0
  5  6  1  0
  6  7  2  0
  7  8  1  0
  8  9  2  0
  9 10  1  0
 10 11  1  0
 11 12  1  0
 12 13  1  6
 12 14  1  0
 14 15  2  0
 15 16  1  0
 16 17  2  0
 17 18  1  0
 18 19  2  0
 19 20  1  0
 20 21  1  0
 20 22  1  0
 22 23  2  0
  9 24  1  0
 24 25  2  0
  5 26  2  0
 26  2  1  0
 25  6  1  0
 23 14  1  0
 22 17  1  0
M  END
>  <energy_score>  (158) 
-25.901034

>  <inchikey>  (158) 
None

>  <smiles>  (158) 
None

>  <ref_pdb>  (158) 
A0486a

>  <alias>  (158) 
None

>  <HIPPO Pose ID>  (158) 
497802

>  <name>  (158) 
P497802

>  <HIPPO Compound ID>  (158) 
289725

>  <ref_mols>  (158) 
A0486a,A0717a

>  <distance_score>  (158) 
1.852658

>  <inspiration_score>  (158) 
None

$$$$
P497816
     RDKit          3D

 27 30  0  0  0  0  0  0  0  0999 V2000
   18.4228   20.2372    1.0986 C   0  0  0  0  0  0  0  0  0  0  0  0
   17.1393   19.6288    1.0773 O   0  0  0  0  0  0  0  0  0  0  0  0
   17.1557   18.3060    0.5562 C   0  0  2  0  0  0  0  0  0  0  0  0
   15.8083   17.8936    0.0883 N   0  0  0  0  0  0  0  0  0  0  0  0
   14.6660   18.5041    0.7968 C   0  0  0  0  0  0  0  0  0  0  0  0
   13.4664   17.5732    1.0001 C   0  0  0  0  0  0  0  0  0  0  0  0
   13.6025   16.1877    1.1404 C   0  0  0  0  0  0  0  0  0  0  0  0
   12.4867   15.3698    1.4027 C   0  0  0  0  0  0  0  0  0  0  0  0
   11.1898   15.9007    1.5318 C   0  0  0  0  0  0  0  0  0  0  0  0
   10.0409   15.0042    1.7179 C   0  0  0  0  0  0  0  0  0  0  0  0
    9.0382   14.9720    2.6744 C   0  0  0  0  0  0  0  0  0  0  0  0
    8.3209   13.7852    2.4304 C   0  0  0  0  0  0  0  0  0  0  0  0
    8.7641   13.1481    1.3495 N   0  0  0  0  0  0  0  0  0  0  0  0
    9.7612   13.9284    0.8984 N   0  0  0  0  0  0  0  0  0  0  0  0
   10.4013   13.5637   -0.3460 C   0  0  0  0  0  0  0  0  0  0  0  0
   11.0526   17.2861    1.4291 C   0  0  0  0  0  0  0  0  0  0  0  0
   12.1736   18.1077    1.1695 C   0  0  0  0  0  0  0  0  0  0  0  0
   17.7222   17.2823    1.5516 C   0  0  0  0  0  0  0  0  0  0  0  0
   16.9132   16.9313    2.6365 C   0  0  0  0  0  0  0  0  0  0  0  0
   17.1060   15.7488    3.3293 C   0  0  0  0  0  0  0  0  0  0  0  0
   18.2055   14.9594    3.0007 C   0  0  0  0  0  0  0  0  0  0  0  0
   18.6470   13.6901    3.3897 C   0  0  0  0  0  0  0  0  0  0  0  0
   19.8209   13.3729    2.8588 N   0  0  0  0  0  0  0  0  0  0  0  0
   20.1840   14.4998    2.2091 N   0  0  0  0  0  0  0  0  0  0  0  0
   21.5602   14.6152    1.7924 C   0  0  0  0  0  0  0  0  0  0  0  0
   19.1659   15.4252    2.1060 C   0  0  0  0  0  0  0  0  0  0  0  0
   18.9466   16.5922    1.3431 C   0  0  0  0  0  0  0  0  0  0  0  0
  1  2  1  0
  2  3  1  0
  3  4  1  1
  4  5  1  0
  5  6  1  0
  6  7  2  0
  7  8  1  0
  8  9  2  0
  9 10  1  0
 10 11  2  0
 11 12  1  0
 12 13  2  0
 13 14  1  0
 14 15  1  0
  9 16  1  0
 16 17  2  0
  3 18  1  0
 18 19  2  0
 19 20  1  0
 20 21  2  0
 21 22  1  0
 22 23  2  0
 23 24  1  0
 24 25  1  0
 24 26  1  0
 26 27  2  0
 17  6  1  0
 27 18  1  0
 14 10  1  0
 26 21  1  0
M  END
>  <energy_score>  (159) 
-30.311558

>  <inchikey>  (159) 
None

>  <smiles>  (159) 
None

>  <ref_pdb>  (159) 
A0486a

>  <alias>  (159) 
None

>  <HIPPO Pose ID>  (159) 
497816

>  <name>  (159) 
P497816

>  <HIPPO Compound ID>  (159) 
289733

>  <ref_mols>  (159) 
A0486a,A0717a

>  <distance_score>  (159) 
1.785503

>  <inspiration_score>  (159) 
None

$$$$
P497818
     RDKit          3D

 27 30  0  0  0  0  0  0  0  0999 V2000
   17.7448   19.8955    4.8357 C   0  0  0  0  0  0  0  0  0  0  0  0
   17.9220   18.6305    4.2141 O   0  0  0  0  0  0  0  0  0  0  0  0
   17.1200   18.4711    3.0414 C   0  0  2  0  0  0  0  0  0  0  0  0
   15.7332   18.1608    3.4712 N   0  0  0  0  0  0  0  0  0  0  0  0
   14.6819   18.8040    2.6764 C   0  0  0  0  0  0  0  0  0  0  0  0
   13.3951   17.9829    2.5807 C   0  0  0  0  0  0  0  0  0  0  0  0
   13.0973   17.2679    1.4121 C   0  0  0  0  0  0  0  0  0  0  0  0
   11.9325   16.4867    1.3074 C   0  0  0  0  0  0  0  0  0  0  0  0
   11.0048   16.3923    2.3579 C   0  0  0  0  0  0  0  0  0  0  0  0
    9.9022   15.4104    2.2693 C   0  0  0  0  0  0  0  0  0  0  0  0
    8.7370   15.2702    3.0746 C   0  0  0  0  0  0  0  0  0  0  0  0
    8.1496   14.0877    2.6848 C   0  0  0  0  0  0  0  0  0  0  0  0
    8.9319   13.5967    1.6889 N   0  0  0  0  0  0  0  0  0  0  0  0
    8.7442   12.3605    0.9691 C   0  0  0  0  0  0  0  0  0  0  0  0
    9.9935   14.3733    1.4151 N   0  0  0  0  0  0  0  0  0  0  0  0
   11.2751   17.1459    3.5118 C   0  0  0  0  0  0  0  0  0  0  0  0
   12.4582   17.9192    3.6250 C   0  0  0  0  0  0  0  0  0  0  0  0
   17.7444   17.3003    2.2464 C   0  0  0  0  0  0  0  0  0  0  0  0
   16.9391   16.6660    1.2957 C   0  0  0  0  0  0  0  0  0  0  0  0
   17.1844   15.3603    0.8967 C   0  0  0  0  0  0  0  0  0  0  0  0
   18.2979   14.7051    1.4215 C   0  0  0  0  0  0  0  0  0  0  0  0
   18.7469   13.3783    1.4151 C   0  0  0  0  0  0  0  0  0  0  0  0
   19.9025   13.2388    2.0521 N   0  0  0  0  0  0  0  0  0  0  0  0
   20.2710   14.5065    2.3311 N   0  0  0  0  0  0  0  0  0  0  0  0
   21.6575   14.7283    2.6659 C   0  0  0  0  0  0  0  0  0  0  0  0
   19.2520   15.4174    2.1461 C   0  0  0  0  0  0  0  0  0  0  0  0
   19.0258   16.7562    2.5256 C   0  0  0  0  0  0  0  0  0  0  0  0
  1  2  1  0
  2  3  1  0
  3  4  1  1
  4  5  1  0
  5  6  1  0
  6  7  2  0
  7  8  1  0
  8  9  2  0
  9 10  1  0
 10 11  1  0
 11 12  2  0
 12 13  1  0
 13 14  1  0
 13 15  1  0
  9 16  1  0
 16 17  2  0
  3 18  1  0
 18 19  2  0
 19 20  1  0
 20 21  2  0
 21 22  1  0
 22 23  2  0
 23 24  1  0
 24 25  1  0
 24 26  1  0
 26 27  2  0
 17  6  1  0
 27 18  1  0
 15 10  2  0
 26 21  1  0
M  END
>  <energy_score>  (160) 
-9.632786

>  <inchikey>  (160) 
None

>  <smiles>  (160) 
None

>  <ref_pdb>  (160) 
A0486a

>  <alias>  (160) 
None

>  <HIPPO Pose ID>  (160) 
497818

>  <name>  (160) 
P497818

>  <HIPPO Compound ID>  (160) 
289734

>  <ref_mols>  (160) 
A0486a,A0717a

>  <distance_score>  (160) 
1.821671

>  <inspiration_score>  (160) 
None

$$$$
P497823
     RDKit          3D

 27 30  0  0  0  0  0  0  0  0999 V2000
    8.3153   11.4345    1.3860 C   0  0  0  0  0  0  0  0  0  0  0  0
    8.4203   12.7698    1.9218 N   0  0  0  0  0  0  0  0  0  0  0  0
    7.7112   13.2901    2.9571 C   0  0  0  0  0  0  0  0  0  0  0  0
    8.2010   14.5610    3.1476 C   0  0  0  0  0  0  0  0  0  0  0  0
    9.2255   14.7246    2.1782 C   0  0  0  0  0  0  0  0  0  0  0  0
   10.2120   15.8007    2.0252 C   0  0  0  0  0  0  0  0  0  0  0  0
   10.5004   16.7049    3.0547 C   0  0  0  0  0  0  0  0  0  0  0  0
   11.6452   17.5169    2.9885 C   0  0  0  0  0  0  0  0  0  0  0  0
   12.5043   17.4657    1.8797 C   0  0  0  0  0  0  0  0  0  0  0  0
   13.7804   18.2765    1.8361 C   0  0  0  0  0  0  0  0  0  0  0  0
   14.9879   17.4988    1.5736 N   0  0  0  0  0  0  0  0  0  0  0  0
   15.6250   16.8675    2.7076 C   0  0  1  0  0  0  0  0  0  0  0  0
   14.9379   15.6820    3.0483 O   0  0  0  0  0  0  0  0  0  0  0  0
   17.1059   16.5700    2.4133 C   0  0  0  0  0  0  0  0  0  0  0  0
   17.9172   17.6390    1.9003 C   0  0  0  0  0  0  0  0  0  0  0  0
   19.2910   17.5306    1.6397 C   0  0  0  0  0  0  0  0  0  0  0  0
   19.7814   16.2698    1.9617 C   0  0  0  0  0  0  0  0  0  0  0  0
   21.0877   15.8777    1.9098 C   0  0  0  0  0  0  0  0  0  0  0  0
   22.5868   16.8972    1.3244 Br  0  0  0  0  0  0  0  0  0  0  0  0
   21.0991   14.6148    2.4320 N   0  0  0  0  0  0  0  0  0  0  0  0
   22.2698   13.8548    2.7954 C   0  0  0  0  0  0  0  0  0  0  0  0
   19.8618   14.1104    2.6846 N   0  0  0  0  0  0  0  0  0  0  0  0
   19.0345   15.1511    2.4720 C   0  0  0  0  0  0  0  0  0  0  0  0
   17.6578   15.2848    2.7016 C   0  0  0  0  0  0  0  0  0  0  0  0
   12.1475   16.6498    0.8005 C   0  0  0  0  0  0  0  0  0  0  0  0
   11.0263   15.8216    0.8805 C   0  0  0  0  0  0  0  0  0  0  0  0
    9.3162   13.6257    1.4081 N   0  0  0  0  0  0  0  0  0  0  0  0
  1  2  1  0
  2  3  1  0
  3  4  2  0
  4  5  1  0
  5  6  1  0
  6  7  2  0
  7  8  1  0
  8  9  2  0
  9 10  1  0
 10 11  1  0
 11 12  1  0
 12 13  1  6
 12 14  1  0
 14 15  1  0
 15 16  2  0
 16 17  1  0
 17 18  2  0
 18 19  1  0
 18 20  1  0
 20 21  1  0
 20 22  1  0
 22 23  2  0
 23 24  1  0
  9 25  1  0
 25 26  2  0
  5 27  2  0
 27  2  1  0
 26  6  1  0
 24 14  2  0
 23 17  1  0
M  END
>  <energy_score>  (161) 
-32.682183

>  <inchikey>  (161) 
None

>  <smiles>  (161) 
None

>  <ref_pdb>  (161) 
A0486a

>  <alias>  (161) 
None

>  <HIPPO Pose ID>  (161) 
497823

>  <name>  (161) 
P497823

>  <HIPPO Compound ID>  (161) 
289736

>  <ref_mols>  (161) 
A0486a,A0717a

>  <distance_score>  (161) 
1.767144

>  <inspiration_score>  (161) 
None

$$$$
P497828
     RDKit          3D

 27 30  0  0  0  0  0  0  0  0999 V2000
   11.3544   14.1185    0.5164 C   0  0  0  0  0  0  0  0  0  0  0  0
   10.2337   14.5159    1.3415 N   0  0  0  0  0  0  0  0  0  0  0  0
    9.1995   13.6582    1.4351 N   0  0  0  0  0  0  0  0  0  0  0  0
    8.4306   14.1805    2.3858 C   0  0  0  0  0  0  0  0  0  0  0  0
    8.9431   15.4002    2.8653 C   0  0  0  0  0  0  0  0  0  0  0  0
   10.1209   15.6283    2.1644 C   0  0  0  0  0  0  0  0  0  0  0  0
   11.1631   16.6695    2.3248 C   0  0  0  0  0  0  0  0  0  0  0  0
   11.5535   17.1247    3.5912 C   0  0  0  0  0  0  0  0  0  0  0  0
   12.7220   17.9003    3.7647 C   0  0  0  0  0  0  0  0  0  0  0  0
   13.5373   18.2697    2.6790 C   0  0  0  0  0  0  0  0  0  0  0  0
   14.8831   18.9544    2.9469 C   0  0  0  0  0  0  0  0  0  0  0  0
   15.7645   19.1230    1.7717 N   0  0  0  0  0  0  0  0  0  0  0  0
   17.1810   18.8343    2.0279 C   0  0  2  0  0  0  0  0  0  0  0  0
   17.9003   19.4826    1.0005 O   0  0  0  0  0  0  0  0  0  0  0  0
   17.5668   17.3533    1.9845 C   0  0  0  0  0  0  0  0  0  0  0  0
   16.5582   16.4255    1.7055 C   0  0  0  0  0  0  0  0  0  0  0  0
   16.7542   15.0650    1.8186 C   0  0  0  0  0  0  0  0  0  0  0  0
   15.6598   14.2586    1.6011 O   0  0  0  0  0  0  0  0  0  0  0  0
   18.0158   14.5843    2.1544 C   0  0  0  0  0  0  0  0  0  0  0  0
   18.5446   13.3140    2.3933 C   0  0  0  0  0  0  0  0  0  0  0  0
   19.8436   13.3467    2.6553 N   0  0  0  0  0  0  0  0  0  0  0  0
   20.1747   14.6475    2.5024 N   0  0  0  0  0  0  0  0  0  0  0  0
   21.5815   14.9743    2.4820 C   0  0  0  0  0  0  0  0  0  0  0  0
   19.0835   15.4740    2.3077 C   0  0  0  0  0  0  0  0  0  0  0  0
   18.8858   16.8774    2.2333 C   0  0  0  0  0  0  0  0  0  0  0  0
   13.0633   17.9415    1.4040 C   0  0  0  0  0  0  0  0  0  0  0  0
   11.8984   17.1595    1.2329 C   0  0  0  0  0  0  0  0  0  0  0  0
  1  2  1  0
  2  3  1  0
  3  4  2  0
  4  5  1  0
  5  6  2  0
  6  7  1  0
  7  8  2  0
  8  9  1  0
  9 10  2  0
 10 11  1  0
 11 12  1  0
 12 13  1  0
 13 14  1  6
 13 15  1  0
 15 16  2  0
 16 17  1  0
 17 18  1  0
 17 19  2  0
 19 20  1  0
 20 21  2  0
 21 22  1  0
 22 23  1  0
 22 24  1  0
 24 25  2  0
 10 26  1  0
 26 27  2  0
  6  2  1  0
 27  7  1  0
 25 15  1  0
 24 19  1  0
M  END
>  <energy_score>  (162) 
-34.245935

>  <inchikey>  (162) 
None

>  <smiles>  (162) 
None

>  <ref_pdb>  (162) 
A0486a

>  <alias>  (162) 
None

>  <HIPPO Pose ID>  (162) 
497828

>  <name>  (162) 
P497828

>  <HIPPO Compound ID>  (162) 
289740

>  <ref_mols>  (162) 
A0486a,A0717a

>  <distance_score>  (162) 
1.869729

>  <inspiration_score>  (162) 
None

$$$$
P497834
     RDKit          3D

 27 30  0  0  0  0  0  0  0  0999 V2000
   17.8138   12.1020    1.1887 C   0  0  0  0  0  0  0  0  0  0  0  0
   18.5644   13.2917    1.6620 C   0  0  0  0  0  0  0  0  0  0  0  0
   19.6897   13.1624    2.3628 N   0  0  0  0  0  0  0  0  0  0  0  0
   20.1533   14.4259    2.4717 N   0  0  0  0  0  0  0  0  0  0  0  0
   21.5666   14.5950    2.7181 C   0  0  0  0  0  0  0  0  0  0  0  0
   19.2036   15.3771    2.1667 C   0  0  0  0  0  0  0  0  0  0  0  0
   19.0615   16.7635    2.3901 C   0  0  0  0  0  0  0  0  0  0  0  0
   17.8647   17.3696    1.9335 C   0  0  0  0  0  0  0  0  0  0  0  0
   17.3496   18.7247    2.4195 C   0  0  2  0  0  0  0  0  0  0  0  0
   17.8609   19.0211    3.7034 O   0  0  0  0  0  0  0  0  0  0  0  0
   15.8804   18.8222    2.4377 N   0  0  0  0  0  0  0  0  0  0  0  0
   15.2126   18.0242    3.4732 C   0  0  0  0  0  0  0  0  0  0  0  0
   13.8809   17.4208    3.0235 C   0  0  0  0  0  0  0  0  0  0  0  0
   13.8511   16.1292    2.4846 C   0  0  0  0  0  0  0  0  0  0  0  0
   12.6417   15.5130    2.1223 C   0  0  0  0  0  0  0  0  0  0  0  0
   11.3993   16.1505    2.2967 C   0  0  0  0  0  0  0  0  0  0  0  0
   10.1589   15.3926    2.0390 C   0  0  0  0  0  0  0  0  0  0  0  0
    9.0578   15.1530    2.8511 C   0  0  0  0  0  0  0  0  0  0  0  0
    8.3536   14.1012    2.2349 C   0  0  0  0  0  0  0  0  0  0  0  0
    8.8959   13.7550    1.0700 N   0  0  0  0  0  0  0  0  0  0  0  0
    9.9286   14.6062    0.9270 N   0  0  0  0  0  0  0  0  0  0  0  0
   10.6576   14.5891   -0.3215 C   0  0  0  0  0  0  0  0  0  0  0  0
   11.4227   17.4443    2.8280 C   0  0  0  0  0  0  0  0  0  0  0  0
   12.6470   18.0765    3.1723 C   0  0  0  0  0  0  0  0  0  0  0  0
   17.0564   16.6801    1.0218 C   0  0  0  0  0  0  0  0  0  0  0  0
   17.2067   15.3186    0.8106 C   0  0  0  0  0  0  0  0  0  0  0  0
   18.2333   14.6503    1.4782 C   0  0  0  0  0  0  0  0  0  0  0  0
  1  2  1  0
  2  3  2  0
  3  4  1  0
  4  5  1  0
  4  6  1  0
  6  7  2  0
  7  8  1  0
  8  9  1  0
  9 10  1  1
  9 11  1  0
 11 12  1  0
 12 13  1  0
 13 14  2  0
 14 15  1  0
 15 16  2  0
 16 17  1  0
 17 18  2  0
 18 19  1  0
 19 20  2  0
 20 21  1  0
 21 22  1  0
 16 23  1  0
 23 24  2  0
  8 25  2  0
 25 26  1  0
 26 27  2  0
 27  2  1  0
 27  6  1  0
 24 13  1  0
 21 17  1  0
M  END
>  <energy_score>  (163) 
-22.865062

>  <inchikey>  (163) 
None

>  <smiles>  (163) 
None

>  <ref_pdb>  (163) 
A0486a

>  <alias>  (163) 
None

>  <HIPPO Pose ID>  (163) 
497834

>  <name>  (163) 
P497834

>  <HIPPO Compound ID>  (163) 
289743

>  <ref_mols>  (163) 
A0486a,A0717a

>  <distance_score>  (163) 
1.805822

>  <inspiration_score>  (163) 
None

$$$$
P497839
     RDKit          3D

 27 30  0  0  0  0  0  0  0  0999 V2000
   19.9507   17.9857    2.5660 C   0  0  0  0  0  0  0  0  0  0  0  0
   18.9119   16.9353    2.3004 C   0  0  0  0  0  0  0  0  0  0  0  0
   17.5332   17.3049    2.1449 C   0  0  0  0  0  0  0  0  0  0  0  0
   16.8646   18.6541    2.4949 C   0  0  2  0  0  0  0  0  0  0  0  0
   17.6045   19.3694    3.4569 O   0  0  0  0  0  0  0  0  0  0  0  0
   15.5548   18.4142    3.0939 N   0  0  0  0  0  0  0  0  0  0  0  0
   14.4073   19.1549    2.5960 C   0  0  0  0  0  0  0  0  0  0  0  0
   13.1583   18.2756    2.5204 C   0  0  0  0  0  0  0  0  0  0  0  0
   12.8759   17.5567    1.3500 C   0  0  0  0  0  0  0  0  0  0  0  0
   11.7711   16.6890    1.2716 C   0  0  0  0  0  0  0  0  0  0  0  0
   10.8923   16.5069    2.3529 C   0  0  0  0  0  0  0  0  0  0  0  0
    9.8534   15.4574    2.2822 C   0  0  0  0  0  0  0  0  0  0  0  0
    8.7036   15.2548    3.0969 C   0  0  0  0  0  0  0  0  0  0  0  0
    8.1711   14.0474    2.7047 C   0  0  0  0  0  0  0  0  0  0  0  0
    8.9685   13.6008    1.6997 N   0  0  0  0  0  0  0  0  0  0  0  0
    8.8301   12.3652    0.9676 C   0  0  0  0  0  0  0  0  0  0  0  0
    9.9932   14.4265    1.4272 N   0  0  0  0  0  0  0  0  0  0  0  0
   11.1459   17.2594    3.5108 C   0  0  0  0  0  0  0  0  0  0  0  0
   12.2676   18.1229    3.5960 C   0  0  0  0  0  0  0  0  0  0  0  0
   16.6266   16.3645    1.6275 C   0  0  0  0  0  0  0  0  0  0  0  0
   16.9241   15.0257    1.5201 C   0  0  0  0  0  0  0  0  0  0  0  0
   18.1870   14.6083    1.9115 C   0  0  0  0  0  0  0  0  0  0  0  0
   18.7418   13.3383    2.0589 C   0  0  0  0  0  0  0  0  0  0  0  0
   20.0091   13.3927    2.4280 N   0  0  0  0  0  0  0  0  0  0  0  0
   20.3033   14.7121    2.4132 N   0  0  0  0  0  0  0  0  0  0  0  0
   21.7079   15.0280    2.5104 C   0  0  0  0  0  0  0  0  0  0  0  0
   19.1921   15.5287    2.2365 C   0  0  0  0  0  0  0  0  0  0  0  0
  1  2  1  0
  2  3  2  0
  3  4  1  0
  4  5  1  1
  4  6  1  0
  6  7  1  0
  7  8  1  0
  8  9  2  0
  9 10  1  0
 10 11  2  0
 11 12  1  0
 12 13  1  0
 13 14  2  0
 14 15  1  0
 15 16  1  0
 15 17  1  0
 11 18  1  0
 18 19  2  0
  3 20  1  0
 20 21  2  0
 21 22  1  0
 22 23  1  0
 23 24  2  0
 24 25  1  0
 25 26  1  0
 25 27  1  0
 27  2  1  0
 19  8  1  0
 27 22  2  0
 17 12  2  0
M  END
>  <energy_score>  (164) 
-21.773343

>  <inchikey>  (164) 
None

>  <smiles>  (164) 
None

>  <ref_pdb>  (164) 
A0486a

>  <alias>  (164) 
None

>  <HIPPO Pose ID>  (164) 
497839

>  <name>  (164) 
P497839

>  <HIPPO Compound ID>  (164) 
289746

>  <ref_mols>  (164) 
A0486a,A0717a

>  <distance_score>  (164) 
1.806936

>  <inspiration_score>  (164) 
None

$$$$
P497841
     RDKit          3D

 27 30  0  0  0  0  0  0  0  0999 V2000
   10.3259   13.6260   -0.3587 C   0  0  0  0  0  0  0  0  0  0  0  0
    9.7061   13.9571    0.9052 N   0  0  0  0  0  0  0  0  0  0  0  0
    8.7236   13.1588    1.3561 N   0  0  0  0  0  0  0  0  0  0  0  0
    8.2909   13.7711    2.4555 C   0  0  0  0  0  0  0  0  0  0  0  0
    9.0031   14.9580    2.7133 C   0  0  0  0  0  0  0  0  0  0  0  0
    9.9930   15.0154    1.7448 C   0  0  0  0  0  0  0  0  0  0  0  0
   11.1393   15.9164    1.5672 C   0  0  0  0  0  0  0  0  0  0  0  0
   12.4327   15.3857    1.4094 C   0  0  0  0  0  0  0  0  0  0  0  0
   13.5467   16.2072    1.1558 C   0  0  0  0  0  0  0  0  0  0  0  0
   13.4133   17.5968    1.0540 C   0  0  0  0  0  0  0  0  0  0  0  0
   14.6134   18.5279    0.8505 C   0  0  0  0  0  0  0  0  0  0  0  0
   15.7475   17.9084    0.1402 N   0  0  0  0  0  0  0  0  0  0  0  0
   17.1007   18.3109    0.5721 C   0  0  1  0  0  0  0  0  0  0  0  0
   17.1120   19.6155    1.1153 O   0  0  0  0  0  0  0  0  0  0  0  0
   17.7209   17.2865    1.5335 C   0  0  0  0  0  0  0  0  0  0  0  0
   16.9039   16.9025    2.6055 C   0  0  0  0  0  0  0  0  0  0  0  0
   17.1065   15.7201    3.2905 C   0  0  0  0  0  0  0  0  0  0  0  0
   18.2243   14.9557    2.9733 C   0  0  0  0  0  0  0  0  0  0  0  0
   18.6646   13.6882    3.3631 C   0  0  0  0  0  0  0  0  0  0  0  0
   19.8537   13.3912    2.8617 N   0  0  0  0  0  0  0  0  0  0  0  0
   20.2310   14.5317    2.2423 N   0  0  0  0  0  0  0  0  0  0  0  0
   21.6297   14.6656    1.9079 C   0  0  0  0  0  0  0  0  0  0  0  0
   19.2014   15.4469    2.1051 C   0  0  0  0  0  0  0  0  0  0  0  0
   18.9672   16.6226    1.3484 C   0  0  0  0  0  0  0  0  0  0  0  0
   20.2192   17.2110    0.0566 Br  0  0  0  0  0  0  0  0  0  0  0  0
   12.1246   18.1303    1.2534 C   0  0  0  0  0  0  0  0  0  0  0  0
   11.0045   17.3045    1.5043 C   0  0  0  0  0  0  0  0  0  0  0  0
  1  2  1  0
  2  3  1  0
  3  4  2  0
  4  5  1  0
  5  6  2  0
  6  7  1  0
  7  8  2  0
  8  9  1  0
  9 10  2  0
 10 11  1  0
 11 12  1  0
 12 13  1  0
 13 14  1  1
 13 15  1  0
 15 16  2  0
 16 17  1  0
 17 18  2  0
 18 19  1  0
 19 20  2  0
 20 21  1  0
 21 22  1  0
 21 23  1  0
 23 24  2  0
 24 25  1  0
 10 26  1  0
 26 27  2  0
  6  2  1  0
 27  7  1  0
 24 15  1  0
 23 18  1  0
M  END
>  <energy_score>  (165) 
-58.480608

>  <inchikey>  (165) 
None

>  <smiles>  (165) 
None

>  <ref_pdb>  (165) 
A0486a

>  <alias>  (165) 
None

>  <HIPPO Pose ID>  (165) 
497841

>  <name>  (165) 
P497841

>  <HIPPO Compound ID>  (165) 
289747

>  <ref_mols>  (165) 
A0486a,A0717a

>  <distance_score>  (165) 
1.787869

>  <inspiration_score>  (165) 
None

$$$$
P497842
     RDKit          3D

 27 30  0  0  0  0  0  0  0  0999 V2000
    8.7979   12.3007    0.9766 C   0  0  0  0  0  0  0  0  0  0  0  0
    8.9133   13.5391    1.7079 N   0  0  0  0  0  0  0  0  0  0  0  0
    8.1210   13.9628    2.7268 C   0  0  0  0  0  0  0  0  0  0  0  0
    8.6359   15.1770    3.1215 C   0  0  0  0  0  0  0  0  0  0  0  0
    9.7689   15.4083    2.2915 C   0  0  0  0  0  0  0  0  0  0  0  0
   10.7957   16.4690    2.3627 C   0  0  0  0  0  0  0  0  0  0  0  0
   11.0396   17.2227    3.5222 C   0  0  0  0  0  0  0  0  0  0  0  0
   12.1611   18.0838    3.6161 C   0  0  0  0  0  0  0  0  0  0  0  0
   13.0597   18.2300    2.5474 C   0  0  0  0  0  0  0  0  0  0  0  0
   14.3267   19.0861    2.6306 C   0  0  0  0  0  0  0  0  0  0  0  0
   15.4851   18.2348    2.8477 N   0  0  0  0  0  0  0  0  0  0  0  0
   16.7991   18.6074    2.3155 C   0  0  2  0  0  0  0  0  0  0  0  0
   16.6851   19.4391    1.1778 O   0  0  0  0  0  0  0  0  0  0  0  0
   17.5325   17.3050    1.9368 C   0  0  0  0  0  0  0  0  0  0  0  0
   16.7238   16.3850    1.2483 C   0  0  0  0  0  0  0  0  0  0  0  0
   17.0458   15.0474    1.1673 C   0  0  0  0  0  0  0  0  0  0  0  0
   18.2449   14.6246    1.7289 C   0  0  0  0  0  0  0  0  0  0  0  0
   18.7763   13.3560    1.9670 C   0  0  0  0  0  0  0  0  0  0  0  0
   19.9855   13.4221    2.4998 N   0  0  0  0  0  0  0  0  0  0  0  0
   20.2902   14.7394    2.4552 N   0  0  0  0  0  0  0  0  0  0  0  0
   21.6994   15.0478    2.5211 C   0  0  0  0  0  0  0  0  0  0  0  0
   19.1896   15.5460    2.2033 C   0  0  0  0  0  0  0  0  0  0  0  0
   18.8526   16.9267    2.3033 C   0  0  0  0  0  0  0  0  0  0  0  0
   20.0404   18.2257    2.9909 Br  0  0  0  0  0  0  0  0  0  0  0  0
   12.7833   17.5162    1.3724 C   0  0  0  0  0  0  0  0  0  0  0  0
   11.6784   16.6525    1.2849 C   0  0  0  0  0  0  0  0  0  0  0  0
    9.9095   14.3926    1.4192 N   0  0  0  0  0  0  0  0  0  0  0  0
  1  2  1  0
  2  3  1  0
  3  4  2  0
  4  5  1  0
  5  6  1  0
  6  7  2  0
  7  8  1  0
  8  9  2  0
  9 10  1  0
 10 11  1  0
 11 12  1  0
 12 13  1  6
 12 14  1  0
 14 15  2  0
 15 16  1  0
 16 17  2  0
 17 18  1  0
 18 19  2  0
 19 20  1  0
 20 21  1  0
 20 22  1  0
 22 23  2  0
 23 24  1  0
  9 25  1  0
 25 26  2  0
  5 27  2  0
 27  2  1  0
 26  6  1  0
 23 14  1  0
 22 17  1  0
M  END
>  <energy_score>  (166) 
-27.3569

>  <inchikey>  (166) 
None

>  <smiles>  (166) 
None

>  <ref_pdb>  (166) 
A0486a

>  <alias>  (166) 
None

>  <HIPPO Pose ID>  (166) 
497842

>  <name>  (166) 
P497842

>  <HIPPO Compound ID>  (166) 
289748

>  <ref_mols>  (166) 
A0486a,A0717a

>  <distance_score>  (166) 
1.769712

>  <inspiration_score>  (166) 
None

$$$$
P497849
     RDKit          3D

 27 30  0  0  0  0  0  0  0  0999 V2000
   17.0596   19.0389    4.7119 C   0  0  0  0  0  0  0  0  0  0  0  0
   16.2764   17.9285    4.2892 O   0  0  0  0  0  0  0  0  0  0  0  0
   16.2015   17.8105    2.8708 C   0  0  2  0  0  0  0  0  0  0  0  0
   15.0156   17.0472    2.4951 N   0  0  0  0  0  0  0  0  0  0  0  0
   13.7857   17.7870    2.8049 C   0  0  0  0  0  0  0  0  0  0  0  0
   12.5167   16.9961    2.5368 C   0  0  0  0  0  0  0  0  0  0  0  0
   12.4859   15.8989    1.6707 C   0  0  0  0  0  0  0  0  0  0  0  0
   11.3091   15.1738    1.4855 C   0  0  0  0  0  0  0  0  0  0  0  0
   10.1207   15.5290    2.1444 C   0  0  0  0  0  0  0  0  0  0  0  0
    8.9900   14.6093    2.0811 C   0  0  0  0  0  0  0  0  0  0  0  0
    8.2894   13.9889    3.1022 C   0  0  0  0  0  0  0  0  0  0  0  0
    7.5779   12.9482    2.4824 C   0  0  0  0  0  0  0  0  0  0  0  0
    7.7247   12.9600    1.1580 N   0  0  0  0  0  0  0  0  0  0  0  0
    8.5175   14.0210    0.9307 N   0  0  0  0  0  0  0  0  0  0  0  0
    8.7751   14.3972   -0.4405 C   0  0  0  0  0  0  0  0  0  0  0  0
   10.1277   16.6525    2.9708 C   0  0  0  0  0  0  0  0  0  0  0  0
   11.3136   17.3809    3.1593 C   0  0  0  0  0  0  0  0  0  0  0  0
   17.4697   17.1219    2.3559 C   0  0  0  0  0  0  0  0  0  0  0  0
   18.2900   17.8380    1.4219 C   0  0  0  0  0  0  0  0  0  0  0  0
   19.5317   17.3763    0.9644 C   0  0  0  0  0  0  0  0  0  0  0  0
   19.8645   16.1635    1.5437 C   0  0  0  0  0  0  0  0  0  0  0  0
   21.0887   15.5765    1.4387 C   0  0  0  0  0  0  0  0  0  0  0  0
   21.0349   14.5302    2.3119 N   0  0  0  0  0  0  0  0  0  0  0  0
   22.1945   13.8331    2.8131 C   0  0  0  0  0  0  0  0  0  0  0  0
   19.7951   14.2810    2.8029 N   0  0  0  0  0  0  0  0  0  0  0  0
   19.0841   15.3690    2.4470 C   0  0  0  0  0  0  0  0  0  0  0  0
   17.8249   15.8298    2.8545 C   0  0  0  0  0  0  0  0  0  0  0  0
  1  2  1  0
  2  3  1  0
  3  4  1  1
  4  5  1  0
  5  6  1  0
  6  7  2  0
  7  8  1  0
  8  9  2  0
  9 10  1  0
 10 11  2  0
 11 12  1  0
 12 13  2  0
 13 14  1  0
 14 15  1  0
  9 16  1  0
 16 17  2  0
  3 18  1  0
 18 19  1  0
 19 20  2  0
 20 21  1  0
 21 22  2  0
 22 23  1  0
 23 24  1  0
 23 25  1  0
 25 26  2  0
 26 27  1  0
 17  6  1  0
 27 18  2  0
 14 10  1  0
 26 21  1  0
M  END
>  <energy_score>  (167) 
-24.32923

>  <inchikey>  (167) 
None

>  <smiles>  (167) 
None

>  <ref_pdb>  (167) 
A0486a

>  <alias>  (167) 
None

>  <HIPPO Pose ID>  (167) 
497849

>  <name>  (167) 
P497849

>  <HIPPO Compound ID>  (167) 
289752

>  <ref_mols>  (167) 
A0486a,A0717a

>  <distance_score>  (167) 
1.628087

>  <inspiration_score>  (167) 
None

$$$$
P497852
     RDKit          3D

 27 30  0  0  0  0  0  0  0  0999 V2000
   22.0802   16.4005    1.0313 C   0  0  0  0  0  0  0  0  0  0  0  0
   20.9421   15.7150    1.6924 C   0  0  0  0  0  0  0  0  0  0  0  0
   19.6286   16.0614    1.8704 C   0  0  0  0  0  0  0  0  0  0  0  0
   19.0523   17.2642    1.4812 C   0  0  0  0  0  0  0  0  0  0  0  0
   17.7264   17.3824    1.9365 C   0  0  0  0  0  0  0  0  0  0  0  0
   17.0470   16.3782    2.7066 C   0  0  0  0  0  0  0  0  0  0  0  0
   15.6312   16.5981    3.2777 C   0  0  1  0  0  0  0  0  0  0  0  0
   15.7635   16.4823    4.6873 O   0  0  0  0  0  0  0  0  0  0  0  0
   15.0603   17.8916    2.9454 N   0  0  0  0  0  0  0  0  0  0  0  0
   13.7444   18.2172    3.5141 C   0  0  0  0  0  0  0  0  0  0  0  0
   12.5441   17.4098    3.0643 C   0  0  0  0  0  0  0  0  0  0  0  0
   11.3507   17.4949    3.8068 C   0  0  0  0  0  0  0  0  0  0  0  0
   10.2080   16.7584    3.4509 C   0  0  0  0  0  0  0  0  0  0  0  0
   10.2347   15.8912    2.3550 C   0  0  0  0  0  0  0  0  0  0  0  0
    9.1719   14.9004    2.1378 C   0  0  0  0  0  0  0  0  0  0  0  0
    8.4347   14.1744    3.0640 C   0  0  0  0  0  0  0  0  0  0  0  0
    7.8174   13.1457    2.3347 C   0  0  0  0  0  0  0  0  0  0  0  0
    8.0410   13.2603    1.0274 N   0  0  0  0  0  0  0  0  0  0  0  0
    8.7845   14.3778    0.9223 N   0  0  0  0  0  0  0  0  0  0  0  0
    9.0438   14.8895   -0.4041 C   0  0  0  0  0  0  0  0  0  0  0  0
   11.4124   15.8487    1.5872 C   0  0  0  0  0  0  0  0  0  0  0  0
   12.5360   16.6200    1.9147 C   0  0  0  0  0  0  0  0  0  0  0  0
   17.6698   15.1254    3.0057 C   0  0  0  0  0  0  0  0  0  0  0  0
   19.0001   14.9947    2.5924 C   0  0  0  0  0  0  0  0  0  0  0  0
   19.8871   14.0078    2.8012 N   0  0  0  0  0  0  0  0  0  0  0  0
   21.0638   14.5233    2.3674 N   0  0  0  0  0  0  0  0  0  0  0  0
   22.3016   13.8631    2.7146 C   0  0  0  0  0  0  0  0  0  0  0  0
  1  2  1  0
  2  3  2  0
  3  4  1  0
  4  5  2  0
  5  6  1  0
  6  7  1  0
  7  8  1  1
  7  9  1  0
  9 10  1  0
 10 11  1  0
 11 12  2  0
 12 13  1  0
 13 14  2  0
 14 15  1  0
 15 16  2  0
 16 17  1  0
 17 18  2  0
 18 19  1  0
 19 20  1  0
 14 21  1  0
 21 22  2  0
  6 23  2  0
 23 24  1  0
 24 25  2  0
 25 26  1  0
 26 27  1  0
 26  2  1  0
 24  3  1  0
 22 11  1  0
 19 15  1  0
M  END
>  <energy_score>  (168) 
-40.532067

>  <inchikey>  (168) 
None

>  <smiles>  (168) 
None

>  <ref_pdb>  (168) 
A0486a

>  <alias>  (168) 
None

>  <HIPPO Pose ID>  (168) 
497852

>  <name>  (168) 
P497852

>  <HIPPO Compound ID>  (168) 
289753

>  <ref_mols>  (168) 
A0486a,A0717a

>  <distance_score>  (168) 
1.629365

>  <inspiration_score>  (168) 
None

$$$$
P497859
     RDKit          3D

 28 31  0  0  0  0  0  0  0  0999 V2000
   10.3783   13.5991   -0.3852 C   0  0  0  0  0  0  0  0  0  0  0  0
    9.7686   13.9635    0.8746 N   0  0  0  0  0  0  0  0  0  0  0  0
    8.7855   13.1818    1.3514 N   0  0  0  0  0  0  0  0  0  0  0  0
    8.3593   13.8264    2.4349 C   0  0  0  0  0  0  0  0  0  0  0  0
    9.0817   15.0145    2.6596 C   0  0  0  0  0  0  0  0  0  0  0  0
   10.0690   15.0390    1.6872 C   0  0  0  0  0  0  0  0  0  0  0  0
   11.2216   15.9255    1.4769 C   0  0  0  0  0  0  0  0  0  0  0  0
   12.5116   15.3807    1.3433 C   0  0  0  0  0  0  0  0  0  0  0  0
   13.6310   16.1816    1.0455 C   0  0  0  0  0  0  0  0  0  0  0  0
   13.5085   17.5657    0.8741 C   0  0  0  0  0  0  0  0  0  0  0  0
   14.7093   18.4804    0.6086 C   0  0  0  0  0  0  0  0  0  0  0  0
   15.8933   17.7994    0.0803 N   0  0  0  0  0  0  0  0  0  0  0  0
   17.1907   18.2598    0.5676 C   0  0  2  0  0  0  0  0  0  0  0  0
   18.0359   18.4039   -0.5534 O   0  0  0  0  0  0  0  0  0  0  0  0
   17.7734   17.2339    1.5435 C   0  0  0  0  0  0  0  0  0  0  0  0
   16.9181   16.8576    2.5883 C   0  0  0  0  0  0  0  0  0  0  0  0
   17.1048   15.6817    3.2893 C   0  0  0  0  0  0  0  0  0  0  0  0
   18.2359   14.9201    3.0085 C   0  0  0  0  0  0  0  0  0  0  0  0
   18.6753   13.6609    3.4198 C   0  0  0  0  0  0  0  0  0  0  0  0
   19.8837   13.3656    2.9640 N   0  0  0  0  0  0  0  0  0  0  0  0
   20.2747   14.5029    2.3230 N   0  0  0  0  0  0  0  0  0  0  0  0
   21.7021   14.6921    2.0652 C   0  0  0  0  0  0  0  0  0  0  0  0
   22.1919   13.7595    1.2059 F   0  0  0  0  0  0  0  0  0  0  0  0
   21.9644   15.9079    1.5099 F   0  0  0  0  0  0  0  0  0  0  0  0
   19.2337   15.4074    2.1655 C   0  0  0  0  0  0  0  0  0  0  0  0
   19.0240   16.5763    1.3984 C   0  0  0  0  0  0  0  0  0  0  0  0
   12.2221   18.1151    1.0475 C   0  0  0  0  0  0  0  0  0  0  0  0
   11.0965   17.3095    1.3431 C   0  0  0  0  0  0  0  0  0  0  0  0
  1  2  1  0
  2  3  1  0
  3  4  2  0
  4  5  1  0
  5  6  2  0
  6  7  1  0
  7  8  2  0
  8  9  1  0
  9 10  2  0
 10 11  1  0
 11 12  1  0
 12 13  1  0
 13 14  1  6
 13 15  1  0
 15 16  2  0
 16 17  1  0
 17 18  2  0
 18 19  1  0
 19 20  2  0
 20 21  1  0
 21 22  1  0
 22 23  1  0
 22 24  1  0
 21 25  1  0
 25 26  2  0
 10 27  1  0
 27 28  2  0
  6  2  1  0
 28  7  1  0
 26 15  1  0
 25 18  1  0
M  END
>  <energy_score>  (169) 
-13.527946

>  <inchikey>  (169) 
None

>  <smiles>  (169) 
None

>  <ref_pdb>  (169) 
A0486a

>  <alias>  (169) 
None

>  <HIPPO Pose ID>  (169) 
497859

>  <name>  (169) 
P497859

>  <HIPPO Compound ID>  (169) 
289757

>  <ref_mols>  (169) 
A0486a,A0717a

>  <distance_score>  (169) 
1.767089

>  <inspiration_score>  (169) 
None

$$$$
P497860
     RDKit          3D

 28 31  0  0  0  0  0  0  0  0999 V2000
    8.6545   11.9093    1.2685 C   0  0  0  0  0  0  0  0  0  0  0  0
    8.9367   13.2587    1.6945 N   0  0  0  0  0  0  0  0  0  0  0  0
    8.2747   13.9721    2.6426 C   0  0  0  0  0  0  0  0  0  0  0  0
    8.9333   15.1776    2.7305 C   0  0  0  0  0  0  0  0  0  0  0  0
   10.0075   15.1033    1.7993 C   0  0  0  0  0  0  0  0  0  0  0  0
   11.1036   16.0552    1.5359 C   0  0  0  0  0  0  0  0  0  0  0  0
   11.8494   15.9572    0.3444 C   0  0  0  0  0  0  0  0  0  0  0  0
   12.9724   16.7710    0.0895 C   0  0  0  0  0  0  0  0  0  0  0  0
   13.4158   17.7023    1.0341 C   0  0  0  0  0  0  0  0  0  0  0  0
   14.6274   18.6072    0.7905 C   0  0  0  0  0  0  0  0  0  0  0  0
   15.7648   17.9595    0.1094 N   0  0  0  0  0  0  0  0  0  0  0  0
   17.0877   18.3309    0.6315 C   0  0  2  0  0  0  0  0  0  0  0  0
   17.9121   18.4529   -0.5055 O   0  0  0  0  0  0  0  0  0  0  0  0
   17.6631   17.2639    1.5679 C   0  0  0  0  0  0  0  0  0  0  0  0
   16.8174   16.8246    2.5949 C   0  0  0  0  0  0  0  0  0  0  0  0
   17.0497   15.6411    3.2737 C   0  0  0  0  0  0  0  0  0  0  0  0
   18.2055   14.9231    2.9773 C   0  0  0  0  0  0  0  0  0  0  0  0
   18.6961   13.6736    3.3642 C   0  0  0  0  0  0  0  0  0  0  0  0
   19.8870   13.4053    2.8468 N   0  0  0  0  0  0  0  0  0  0  0  0
   20.2296   14.5622    2.2165 N   0  0  0  0  0  0  0  0  0  0  0  0
   21.5787   14.7334    1.6815 C   0  0  0  0  0  0  0  0  0  0  0  0
   22.4870   13.8783    2.2198 F   0  0  0  0  0  0  0  0  0  0  0  0
   22.0438   15.9933    1.9067 F   0  0  0  0  0  0  0  0  0  0  0  0
   19.1700   15.4531    2.1248 C   0  0  0  0  0  0  0  0  0  0  0  0
   18.9263   16.6373    1.3954 C   0  0  0  0  0  0  0  0  0  0  0  0
   12.6515   17.8285    2.2120 C   0  0  0  0  0  0  0  0  0  0  0  0
   11.5147   17.0219    2.4599 C   0  0  0  0  0  0  0  0  0  0  0  0
    9.9714   13.9228    1.1571 N   0  0  0  0  0  0  0  0  0  0  0  0
  1  2  1  0
  2  3  1  0
  3  4  2  0
  4  5  1  0
  5  6  1  0
  6  7  2  0
  7  8  1  0
  8  9  2  0
  9 10  1  0
 10 11  1  0
 11 12  1  0
 12 13  1  6
 12 14  1  0
 14 15  2  0
 15 16  1  0
 16 17  2  0
 17 18  1  0
 18 19  2  0
 19 20  1  0
 20 21  1  0
 21 22  1  0
 21 23  1  0
 20 24  1  0
 24 25  2  0
  9 26  1  0
 26 27  2  0
  5 28  2  0
 28  2  1  0
 27  6  1  0
 25 14  1  0
 24 17  1  0
M  END
>  <energy_score>  (170) 
-18.393939

>  <inchikey>  (170) 
None

>  <smiles>  (170) 
None

>  <ref_pdb>  (170) 
A0486a

>  <alias>  (170) 
None

>  <HIPPO Pose ID>  (170) 
497860

>  <name>  (170) 
P497860

>  <HIPPO Compound ID>  (170) 
289758

>  <ref_mols>  (170) 
A0486a,A0717a

>  <distance_score>  (170) 
1.822419

>  <inspiration_score>  (170) 
None

$$$$
P497863
     RDKit          3D

 28 31  0  0  0  0  0  0  0  0999 V2000
   16.7562   14.0328    2.4479 C   0  0  0  0  0  0  0  0  0  0  0  0
   17.6278   15.2281    2.2226 C   0  0  0  0  0  0  0  0  0  0  0  0
   17.1133   16.5249    1.8655 C   0  0  0  0  0  0  0  0  0  0  0  0
   15.6169   16.7407    1.5685 C   0  0  2  0  0  0  0  0  0  0  0  0
   15.5023   17.1237    0.2045 O   0  0  0  0  0  0  0  0  0  0  0  0
   15.0429   17.7449    2.4523 N   0  0  0  0  0  0  0  0  0  0  0  0
   13.8121   18.3813    1.9760 C   0  0  0  0  0  0  0  0  0  0  0  0
   12.5718   17.5140    2.0130 C   0  0  0  0  0  0  0  0  0  0  0  0
   12.2976   16.6392    0.9582 C   0  0  0  0  0  0  0  0  0  0  0  0
   11.1812   15.8011    0.9997 C   0  0  0  0  0  0  0  0  0  0  0  0
   10.2908   15.8193    2.0862 C   0  0  0  0  0  0  0  0  0  0  0  0
    9.2811   14.7581    2.1969 C   0  0  0  0  0  0  0  0  0  0  0  0
    8.2042   14.6165    3.1123 C   0  0  0  0  0  0  0  0  0  0  0  0
    7.7009   13.3538    2.9006 C   0  0  0  0  0  0  0  0  0  0  0  0
    8.4514   12.8178    1.9021 N   0  0  0  0  0  0  0  0  0  0  0  0
    8.3464   11.4865    1.3560 C   0  0  0  0  0  0  0  0  0  0  0  0
    9.3900   13.6537    1.4383 N   0  0  0  0  0  0  0  0  0  0  0  0
   10.5182   16.7537    3.1051 C   0  0  0  0  0  0  0  0  0  0  0  0
   11.6577   17.5782    3.0769 C   0  0  0  0  0  0  0  0  0  0  0  0
   17.9676   17.6687    1.6725 C   0  0  0  0  0  0  0  0  0  0  0  0
   19.3619   17.6336    1.7578 C   0  0  0  0  0  0  0  0  0  0  0  0
   19.8196   16.3589    2.0513 C   0  0  0  0  0  0  0  0  0  0  0  0
   21.1412   16.0078    2.1245 C   0  0  0  0  0  0  0  0  0  0  0  0
   22.3980   16.7684    1.9012 C   0  0  0  0  0  0  0  0  0  0  0  0
   21.1114   14.6864    2.4943 N   0  0  0  0  0  0  0  0  0  0  0  0
   22.2529   13.8702    2.8349 C   0  0  0  0  0  0  0  0  0  0  0  0
   19.8665   14.1522    2.5668 N   0  0  0  0  0  0  0  0  0  0  0  0
   19.0374   15.1780    2.2958 C   0  0  0  0  0  0  0  0  0  0  0  0
  1  2  1  0
  2  3  2  0
  3  4  1  0
  4  5  1  6
  4  6  1  0
  6  7  1  0
  7  8  1  0
  8  9  2  0
  9 10  1  0
 10 11  2  0
 11 12  1  0
 12 13  1  0
 13 14  2  0
 14 15  1  0
 15 16  1  0
 15 17  1  0
 11 18  1  0
 18 19  2  0
  3 20  1  0
 20 21  2  0
 21 22  1  0
 22 23  2  0
 23 24  1  0
 23 25  1  0
 25 26  1  0
 25 27  1  0
 27 28  2  0
 28  2  1  0
 19  8  1  0
 28 22  1  0
 17 12  2  0
M  END
>  <energy_score>  (171) 
-43.357399

>  <inchikey>  (171) 
None

>  <smiles>  (171) 
None

>  <ref_pdb>  (171) 
A0486a

>  <alias>  (171) 
None

>  <HIPPO Pose ID>  (171) 
497863

>  <name>  (171) 
P497863

>  <HIPPO Compound ID>  (171) 
289760

>  <ref_mols>  (171) 
A0486a,A0717a

>  <distance_score>  (171) 
1.727936

>  <inspiration_score>  (171) 
None

$$$$
P497871
     RDKit          3D

 28 31  0  0  0  0  0  0  0  0999 V2000
    8.0712   11.5381    0.8314 C   0  0  0  0  0  0  0  0  0  0  0  0
    8.2125   12.7507    1.6000 N   0  0  0  0  0  0  0  0  0  0  0  0
    7.5332   13.0872    2.7281 C   0  0  0  0  0  0  0  0  0  0  0  0
    8.0422   14.3019    3.1234 C   0  0  0  0  0  0  0  0  0  0  0  0
    9.0566   14.6160    2.1786 C   0  0  0  0  0  0  0  0  0  0  0  0
   10.0817   15.6644    2.2374 C   0  0  0  0  0  0  0  0  0  0  0  0
   11.2158   15.5384    1.4160 C   0  0  0  0  0  0  0  0  0  0  0  0
   12.3706   16.2857    1.6504 C   0  0  0  0  0  0  0  0  0  0  0  0
   12.4268   17.1857    2.7172 C   0  0  0  0  0  0  0  0  0  0  0  0
   13.7008   17.9109    3.1032 C   0  0  0  0  0  0  0  0  0  0  0  0
   14.9158   17.3115    2.5413 N   0  0  0  0  0  0  0  0  0  0  0  0
   16.1069   17.6328    3.2940 C   0  0  2  0  0  0  0  0  0  0  0  0
   16.2221   19.0318    3.4637 O   0  0  0  0  0  0  0  0  0  0  0  0
   17.3755   17.0751    2.6432 C   0  0  0  0  0  0  0  0  0  0  0  0
   18.1432   17.9022    1.7552 C   0  0  0  0  0  0  0  0  0  0  0  0
   19.3765   17.5267    1.2049 C   0  0  0  0  0  0  0  0  0  0  0  0
   19.7625   16.2737    1.6456 C   0  0  0  0  0  0  0  0  0  0  0  0
   20.9889   15.7333    1.4193 C   0  0  0  0  0  0  0  0  0  0  0  0
   21.0017   14.5798    2.1564 N   0  0  0  0  0  0  0  0  0  0  0  0
   22.1917   13.7615    2.3571 C   0  0  0  0  0  0  0  0  0  0  0  0
   23.3141   14.5271    2.3771 F   0  0  0  0  0  0  0  0  0  0  0  0
   22.3531   12.9150    1.3080 F   0  0  0  0  0  0  0  0  0  0  0  0
   19.7885   14.2672    2.7074 N   0  0  0  0  0  0  0  0  0  0  0  0
   19.0386   15.3655    2.4843 C   0  0  0  0  0  0  0  0  0  0  0  0
   17.7784   15.7422    2.9730 C   0  0  0  0  0  0  0  0  0  0  0  0
   11.2525   17.4044    3.4620 C   0  0  0  0  0  0  0  0  0  0  0  0
   10.0886   16.6552    3.2241 C   0  0  0  0  0  0  0  0  0  0  0  0
    9.1048   13.6751    1.2209 N   0  0  0  0  0  0  0  0  0  0  0  0
  1  2  1  0
  2  3  1  0
  3  4  2  0
  4  5  1  0
  5  6  1  0
  6  7  2  0
  7  8  1  0
  8  9  2  0
  9 10  1  0
 10 11  1  0
 11 12  1  0
 12 13  1  6
 12 14  1  0
 14 15  1  0
 15 16  2  0
 16 17  1  0
 17 18  2  0
 18 19  1  0
 19 20  1  0
 20 21  1  0
 20 22  1  0
 19 23  1  0
 23 24  2  0
 24 25  1  0
  9 26  1  0
 26 27  2  0
  5 28  2  0
 28  2  1  0
 27  6  1  0
 25 14  2  0
 24 17  1  0
M  END
>  <energy_score>  (172) 
-27.655988

>  <inchikey>  (172) 
None

>  <smiles>  (172) 
None

>  <ref_pdb>  (172) 
A0486a

>  <alias>  (172) 
None

>  <HIPPO Pose ID>  (172) 
497871

>  <name>  (172) 
P497871

>  <HIPPO Compound ID>  (172) 
289765

>  <ref_mols>  (172) 
A0486a,A0717a

>  <distance_score>  (172) 
1.683493

>  <inspiration_score>  (172) 
None

$$$$
P497876
     RDKit          3D

 28 31  0  0  0  0  0  0  0  0999 V2000
   22.5623   14.0721    1.6522 C   0  0  0  0  0  0  0  0  0  0  0  0
   21.6395   14.5661    2.7571 C   0  0  0  0  0  0  0  0  0  0  0  0
   20.2329   14.4143    2.4312 N   0  0  0  0  0  0  0  0  0  0  0  0
   19.7490   13.1584    2.3002 N   0  0  0  0  0  0  0  0  0  0  0  0
   18.6555   13.3233    1.5650 C   0  0  0  0  0  0  0  0  0  0  0  0
   18.3352   14.6768    1.3977 C   0  0  0  0  0  0  0  0  0  0  0  0
   17.3312   15.3668    0.7205 C   0  0  0  0  0  0  0  0  0  0  0  0
   17.1655   16.7202    0.9816 C   0  0  0  0  0  0  0  0  0  0  0  0
   17.9303   17.3656    1.9590 C   0  0  0  0  0  0  0  0  0  0  0  0
   17.3855   18.6704    2.5708 C   0  0  1  0  0  0  0  0  0  0  0  0
   15.9047   18.7745    2.5926 N   0  0  0  0  0  0  0  0  0  0  0  0
   15.2441   17.8360    3.5070 C   0  0  0  0  0  0  0  0  0  0  0  0
   13.8833   17.3261    3.0243 C   0  0  0  0  0  0  0  0  0  0  0  0
   13.8121   16.1811    2.2234 C   0  0  0  0  0  0  0  0  0  0  0  0
   12.5781   15.6125    1.8653 C   0  0  0  0  0  0  0  0  0  0  0  0
   11.3525   16.1418    2.3125 C   0  0  0  0  0  0  0  0  0  0  0  0
   10.1199   15.3455    2.1099 C   0  0  0  0  0  0  0  0  0  0  0  0
    8.9002   15.3665    2.8456 C   0  0  0  0  0  0  0  0  0  0  0  0
    8.1941   14.2583    2.4340 C   0  0  0  0  0  0  0  0  0  0  0  0
    8.9634   13.6616    1.4868 N   0  0  0  0  0  0  0  0  0  0  0  0
    8.6793   12.4353    0.7822 C   0  0  0  0  0  0  0  0  0  0  0  0
   10.1128   14.3113    1.2495 N   0  0  0  0  0  0  0  0  0  0  0  0
   11.4163   17.3153    3.0759 C   0  0  0  0  0  0  0  0  0  0  0  0
   12.6639   17.9053    3.4157 C   0  0  0  0  0  0  0  0  0  0  0  0
   17.9077   18.7868    3.8961 O   0  0  0  0  0  0  0  0  0  0  0  0
   17.9938   20.1367    4.3312 C   0  0  0  0  0  0  0  0  0  0  0  0
   19.1335   16.7523    2.4009 C   0  0  0  0  0  0  0  0  0  0  0  0
   19.2909   15.3778    2.1306 C   0  0  0  0  0  0  0  0  0  0  0  0
  1  2  1  0
  2  3  1  0
  3  4  1  0
  4  5  2  0
  5  6  1  0
  6  7  2  0
  7  8  1  0
  8  9  2  0
  9 10  1  0
 10 11  1  1
 11 12  1  0
 12 13  1  0
 13 14  2  0
 14 15  1  0
 15 16  2  0
 16 17  1  0
 17 18  1  0
 18 19  2  0
 19 20  1  0
 20 21  1  0
 20 22  1  0
 16 23  1  0
 23 24  2  0
 10 25  1  0
 25 26  1  0
  9 27  1  0
 27 28  2  0
 28  3  1  0
 28  6  1  0
 24 13  1  0
 22 17  2  0
M  END
>  <energy_score>  (173) 
-10.764997

>  <inchikey>  (173) 
None

>  <smiles>  (173) 
None

>  <ref_pdb>  (173) 
A0486a

>  <alias>  (173) 
None

>  <HIPPO Pose ID>  (173) 
497876

>  <name>  (173) 
P497876

>  <HIPPO Compound ID>  (173) 
289767

>  <ref_mols>  (173) 
A0486a,A0717a

>  <distance_score>  (173) 
1.793667

>  <inspiration_score>  (173) 
None

$$$$
P497878
     RDKit          3D

 29 32  0  0  0  0  0  0  0  0999 V2000
    8.6294   14.4343   -0.3917 C   0  0  0  0  0  0  0  0  0  0  0  0
    8.4666   14.0371    0.9883 N   0  0  0  0  0  0  0  0  0  0  0  0
    7.6917   12.9686    1.2460 N   0  0  0  0  0  0  0  0  0  0  0  0
    7.5998   12.9542    2.5745 C   0  0  0  0  0  0  0  0  0  0  0  0
    8.3214   14.0046    3.1641 C   0  0  0  0  0  0  0  0  0  0  0  0
    8.9875   14.6258    2.1195 C   0  0  0  0  0  0  0  0  0  0  0  0
   10.0979   15.5781    2.1401 C   0  0  0  0  0  0  0  0  0  0  0  0
   10.1674   16.6207    3.0663 C   0  0  0  0  0  0  0  0  0  0  0  0
   11.3320   17.4001    3.1715 C   0  0  0  0  0  0  0  0  0  0  0  0
   12.4437   17.1730    2.3394 C   0  0  0  0  0  0  0  0  0  0  0  0
   13.6707   18.0564    2.4219 C   0  0  0  0  0  0  0  0  0  0  0  0
   14.9205   17.4058    2.8405 N   0  0  0  0  0  0  0  0  0  0  0  0
   15.6245   16.6672    1.8003 C   0  0  1  0  0  0  0  0  0  0  0  0
   15.4447   17.2568    0.5209 O   0  0  0  0  0  0  0  0  0  0  0  0
   17.1410   16.6122    2.0396 C   0  0  0  0  0  0  0  0  0  0  0  0
   17.8697   17.8542    2.0312 C   0  0  0  0  0  0  0  0  0  0  0  0
   19.2602   17.9464    2.1381 C   0  0  0  0  0  0  0  0  0  0  0  0
   19.8330   16.6901    2.2024 C   0  0  0  0  0  0  0  0  0  0  0  0
   21.1750   16.4732    2.1987 C   0  0  0  0  0  0  0  0  0  0  0  0
   21.3148   15.1148    2.1434 N   0  0  0  0  0  0  0  0  0  0  0  0
   22.5713   14.3836    1.9002 C   0  0  0  0  0  0  0  0  0  0  0  0
   22.3571   13.3444    0.7942 C   0  0  0  0  0  0  0  0  0  0  0  0
   23.7149   15.3030    1.3951 C   0  0  0  0  0  0  0  0  0  0  0  0
   23.0513   13.7314    3.1896 C   0  0  0  0  0  0  0  0  0  0  0  0
   20.1254   14.4476    2.2559 N   0  0  0  0  0  0  0  0  0  0  0  0
   19.1879   15.4121    2.2163 C   0  0  0  0  0  0  0  0  0  0  0  0
   17.7894   15.3453    2.1632 C   0  0  0  0  0  0  0  0  0  0  0  0
   12.3496   16.1571    1.3877 C   0  0  0  0  0  0  0  0  0  0  0  0
   11.2090   15.3560    1.3106 C   0  0  0  0  0  0  0  0  0  0  0  0
  1  2  1  0
  2  3  1  0
  3  4  2  0
  4  5  1  0
  5  6  2  0
  6  7  1  0
  7  8  2  0
  8  9  1  0
  9 10  2  0
 10 11  1  0
 11 12  1  0
 12 13  1  0
 13 14  1  6
 13 15  1  0
 15 16  1  0
 16 17  2  0
 17 18  1  0
 18 19  2  0
 19 20  1  0
 20 21  1  0
 21 22  1  0
 21 23  1  0
 21 24  1  0
 20 25  1  0
 25 26  2  0
 26 27  1  0
 10 28  1  0
 28 29  2  0
  6  2  1  0
 29  7  1  0
 27 15  2  0
 26 18  1  0
M  END
>  <energy_score>  (174) 
-52.447668

>  <inchikey>  (174) 
None

>  <smiles>  (174) 
None

>  <ref_pdb>  (174) 
A0486a

>  <alias>  (174) 
None

>  <HIPPO Pose ID>  (174) 
497878

>  <name>  (174) 
P497878

>  <HIPPO Compound ID>  (174) 
289769

>  <ref_mols>  (174) 
A0486a,A0717a

>  <distance_score>  (174) 
1.683828

>  <inspiration_score>  (174) 
None

$$$$
P497882
     RDKit          3D

 32 35  0  0  0  0  0  0  0  0999 V2000
    8.8029   12.4470    0.9466 C   0  0  0  0  0  0  0  0  0  0  0  0
    8.9977   13.6748    1.6792 N   0  0  0  0  0  0  0  0  0  0  0  0
    8.2118   14.1651    2.6727 C   0  0  0  0  0  0  0  0  0  0  0  0
    8.8035   15.3421    3.0726 C   0  0  0  0  0  0  0  0  0  0  0  0
    9.9753   15.4797    2.2762 C   0  0  0  0  0  0  0  0  0  0  0  0
   11.0795   16.4594    2.3725 C   0  0  0  0  0  0  0  0  0  0  0  0
   11.3827   17.1671    3.5474 C   0  0  0  0  0  0  0  0  0  0  0  0
   12.5656   17.9434    3.6565 C   0  0  0  0  0  0  0  0  0  0  0  0
   13.4705   18.0558    2.5885 C   0  0  0  0  0  0  0  0  0  0  0  0
   14.7551   18.8847    2.6734 C   0  0  0  0  0  0  0  0  0  0  0  0
   15.8030   18.2815    3.5146 N   0  0  0  0  0  0  0  0  0  0  0  0
   17.1803   18.5135    3.0348 C   0  0  1  0  0  0  0  0  0  0  0  0
   17.9305   18.7279    4.2122 O   0  0  0  0  0  0  0  0  0  0  0  0
   17.7874   17.3067    2.3050 C   0  0  0  0  0  0  0  0  0  0  0  0
   16.9416   16.5877    1.4553 C   0  0  0  0  0  0  0  0  0  0  0  0
   17.2276   15.2893    1.0722 C   0  0  0  0  0  0  0  0  0  0  0  0
   18.4268   14.7226    1.4964 C   0  0  0  0  0  0  0  0  0  0  0  0
   18.9450   13.4293    1.4532 C   0  0  0  0  0  0  0  0  0  0  0  0
   20.1594   13.3576    1.9717 N   0  0  0  0  0  0  0  0  0  0  0  0
   20.5267   14.6648    2.1869 N   0  0  0  0  0  0  0  0  0  0  0  0
   21.8994   14.9868    2.3513 C   0  0  0  0  0  0  0  0  0  0  0  0
   22.2570   16.1364    2.5593 O   0  0  0  0  0  0  0  0  0  0  0  0
   22.6608   13.8753    2.1488 O   0  0  0  0  0  0  0  0  0  0  0  0
   24.1121   13.8793    2.1016 C   0  0  0  0  0  0  0  0  0  0  0  0
   24.6630   14.9978    1.2410 C   0  0  0  0  0  0  0  0  0  0  0  0
   24.5330   12.5511    1.4553 C   0  0  0  0  0  0  0  0  0  0  0  0
   24.6981   13.9684    3.5004 C   0  0  0  0  0  0  0  0  0  0  0  0
   19.3996   15.5020    2.1236 C   0  0  0  0  0  0  0  0  0  0  0  0
   19.1132   16.8327    2.5108 C   0  0  0  0  0  0  0  0  0  0  0  0
   13.1364   17.3901    1.3996 C   0  0  0  0  0  0  0  0  0  0  0  0
   11.9734   16.6038    1.2989 C   0  0  0  0  0  0  0  0  0  0  0  0
   10.0702   14.4433    1.4215 N   0  0  0  0  0  0  0  0  0  0  0  0
  1  2  1  0
  2  3  1  0
  3  4  2  0
  4  5  1  0
  5  6  1  0
  6  7  2  0
  7  8  1  0
  8  9  2  0
  9 10  1  0
 10 11  1  0
 11 12  1  0
 12 13  1  1
 12 14  1  0
 14 15  2  0
 15 16  1  0
 16 17  2  0
 17 18  1  0
 18 19  2  0
 19 20  1  0
 20 21  1  0
 21 22  2  0
 21 23  1  0
 23 24  1  0
 24 25  1  0
 24 26  1  0
 24 27  1  0
 20 28  1  0
 28 29  2  0
  9 30  1  0
 30 31  2  0
  5 32  2  0
 32  2  1  0
 31  6  1  0
 29 14  1  0
 28 17  1  0
M  END
>  <energy_score>  (175) 
-32.893341

>  <inchikey>  (175) 
None

>  <smiles>  (175) 
None

>  <ref_pdb>  (175) 
A0486a

>  <alias>  (175) 
None

>  <HIPPO Pose ID>  (175) 
497882

>  <name>  (175) 
P497882

>  <HIPPO Compound ID>  (175) 
289772

>  <ref_mols>  (175) 
A0486a,A0717a

>  <distance_score>  (175) 
1.817291

>  <inspiration_score>  (175) 
None

$$$$
P497884
     RDKit          3D

 22 24  0  0  0  0  0  0  0  0999 V2000
    8.5927   17.4018   20.7008 C   0  0  0  0  0  0  0  0  0  0  0  0
    9.5635   16.3208   20.4676 C   0  0  0  0  0  0  0  0  0  0  0  0
   10.3373   15.7219   21.3450 N   0  0  0  0  0  0  0  0  0  0  0  0
   11.1630   14.9388   20.5868 C   0  0  0  0  0  0  0  0  0  0  0  0
   12.3878   14.3359   21.1521 C   0  0  0  0  0  0  0  0  0  0  0  0
   12.3328   14.1895   22.6558 C   0  0  0  0  0  0  0  0  0  0  0  0
   11.3208   13.2806   23.0847 N   0  0  0  0  0  0  0  0  0  0  0  0
   10.4662   13.2717   24.3498 C   0  0  0  0  0  0  0  0  0  0  0  0
   10.3915   14.0455   25.2159 O   0  0  0  0  0  0  0  0  0  0  0  0
    9.6707   12.0407   24.3285 C   0  0  0  0  0  0  0  0  0  0  0  0
   10.0077   11.0205   23.5171 N   0  0  0  0  0  0  0  0  0  0  0  0
    9.1711   10.0323   23.8635 N   0  0  0  0  0  0  0  0  0  0  0  0
    9.3129    8.7637   23.1918 C   0  0  0  0  0  0  0  0  0  0  0  0
    8.2671   10.3951   24.8328 C   0  0  0  0  0  0  0  0  0  0  0  0
    7.2493    9.7034   25.4934 C   0  0  0  0  0  0  0  0  0  0  0  0
    6.4814   10.3975   26.4314 C   0  0  0  0  0  0  0  0  0  0  0  0
    6.7304   11.7367   26.6950 C   0  0  0  0  0  0  0  0  0  0  0  0
    5.9850   12.3699   27.6106 F   0  0  0  0  0  0  0  0  0  0  0  0
    7.7554   12.4241   26.0556 C   0  0  0  0  0  0  0  0  0  0  0  0
    8.5401   11.7306   25.1169 C   0  0  0  0  0  0  0  0  0  0  0  0
   10.7618   14.9994   19.2786 C   0  0  0  0  0  0  0  0  0  0  0  0
    9.7280   15.8804   19.1878 O   0  0  0  0  0  0  0  0  0  0  0  0
  1  2  1  0
  2  3  2  0
  3  4  1  0
  4  5  1  0
  5  6  1  0
  6  7  1  0
  7  8  1  0
  8  9  2  0
  8 10  1  0
 10 11  2  0
 11 12  1  0
 12 13  1  0
 12 14  1  0
 14 15  2  0
 15 16  1  0
 16 17  2  0
 17 18  1  0
 17 19  1  0
 19 20  2  0
  4 21  2  0
 21 22  1  0
 22  2  1  0
 20 10  1  0
 20 14  1  0
M  END
>  <energy_score>  (176) 
-10.521861

>  <inchikey>  (176) 
None

>  <smiles>  (176) 
None

>  <ref_pdb>  (176) 
A2290a

>  <alias>  (176) 
None

>  <HIPPO Pose ID>  (176) 
497884

>  <name>  (176) 
P497884

>  <HIPPO Compound ID>  (176) 
289825

>  <ref_mols>  (176) 
A2290a,A3436a

>  <distance_score>  (176) 
0.533466

>  <inspiration_score>  (176) 
None

$$$$
P497887
     RDKit          3D

 22 24  0  0  0  0  0  0  0  0999 V2000
   11.6966   14.4550   18.6093 C   0  0  0  0  0  0  0  0  0  0  0  0
   10.8338   15.0270   19.6373 C   0  0  0  0  0  0  0  0  0  0  0  0
    9.7565   15.7665   19.2307 O   0  0  0  0  0  0  0  0  0  0  0  0
    9.2965   16.3107   20.3849 C   0  0  0  0  0  0  0  0  0  0  0  0
    9.8905   15.8724   21.4616 N   0  0  0  0  0  0  0  0  0  0  0  0
   10.9664   15.1886   20.9932 C   0  0  0  0  0  0  0  0  0  0  0  0
   12.1433   14.9923   21.8619 C   0  0  0  0  0  0  0  0  0  0  0  0
   12.4684   13.5725   22.2064 C   0  0  0  0  0  0  0  0  0  0  0  0
   11.3850   12.8506   22.7595 N   0  0  0  0  0  0  0  0  0  0  0  0
   10.5988   13.0723   24.0543 C   0  0  0  0  0  0  0  0  0  0  0  0
   10.6633   13.9299   24.8400 O   0  0  0  0  0  0  0  0  0  0  0  0
    9.7039   11.9209   24.1764 C   0  0  0  0  0  0  0  0  0  0  0  0
    9.9426   10.8460   23.4069 N   0  0  0  0  0  0  0  0  0  0  0  0
    9.0864    9.9225   23.8366 N   0  0  0  0  0  0  0  0  0  0  0  0
    9.1635    8.6271   23.2140 C   0  0  0  0  0  0  0  0  0  0  0  0
    8.2419   10.3786   24.8188 C   0  0  0  0  0  0  0  0  0  0  0  0
    7.2082    9.7765   25.5388 C   0  0  0  0  0  0  0  0  0  0  0  0
    6.5128   10.5549   26.4683 C   0  0  0  0  0  0  0  0  0  0  0  0
    6.8471   11.8908   26.6695 C   0  0  0  0  0  0  0  0  0  0  0  0
    5.8874   12.9054   27.9449 Br  0  0  0  0  0  0  0  0  0  0  0  0
    7.8911   12.4884   25.9629 C   0  0  0  0  0  0  0  0  0  0  0  0
    8.5996   11.7110   25.0292 C   0  0  0  0  0  0  0  0  0  0  0  0
  1  2  1  0
  2  3  1  0
  3  4  1  0
  4  5  2  0
  5  6  1  0
  6  7  1  0
  7  8  1  0
  8  9  1  0
  9 10  1  0
 10 11  2  0
 10 12  1  0
 12 13  2  0
 13 14  1  0
 14 15  1  0
 14 16  1  0
 16 17  2  0
 17 18  1  0
 18 19  2  0
 19 20  1  0
 19 21  1  0
 21 22  2  0
  6  2  2  0
 22 12  1  0
 22 16  1  0
M  END
>  <energy_score>  (177) 
-15.168538

>  <inchikey>  (177) 
None

>  <smiles>  (177) 
None

>  <ref_pdb>  (177) 
A2290a

>  <alias>  (177) 
None

>  <HIPPO Pose ID>  (177) 
497887

>  <name>  (177) 
P497887

>  <HIPPO Compound ID>  (177) 
289826

>  <ref_mols>  (177) 
A2290a,A3436a

>  <distance_score>  (177) 
0.510567

>  <inspiration_score>  (177) 
None

$$$$
P497894
     RDKit          3D

 24 26  0  0  0  0  0  0  0  0999 V2000
   12.6543   14.9827   22.0735 C   0  0  0  0  0  0  0  0  0  0  0  0
   11.9054   13.9815   21.2474 C   0  0  2  0  0  0  0  0  0  0  0  0
   11.2944   14.5469   19.9660 C   0  0  0  0  0  0  0  0  0  0  0  0
   10.2404   15.5790   20.0261 C   0  0  0  0  0  0  0  0  0  0  0  0
    9.8778   16.4290   19.0022 C   0  0  0  0  0  0  0  0  0  0  0  0
    9.0140   17.3482   19.4909 O   0  0  0  0  0  0  0  0  0  0  0  0
    8.8556   16.9685   20.7830 C   0  0  0  0  0  0  0  0  0  0  0  0
    9.5250   15.8921   21.1441 N   0  0  0  0  0  0  0  0  0  0  0  0
   11.0474   13.1184   22.0184 N   0  0  0  0  0  0  0  0  0  0  0  0
   10.4363   13.3067   23.4142 C   0  0  0  0  0  0  0  0  0  0  0  0
   10.4649   14.2222   24.1342 O   0  0  0  0  0  0  0  0  0  0  0  0
    9.7017   12.0809   23.7675 C   0  0  0  0  0  0  0  0  0  0  0  0
    9.9838   10.9201   23.1538 N   0  0  0  0  0  0  0  0  0  0  0  0
    9.2165   10.0168   23.7738 N   0  0  0  0  0  0  0  0  0  0  0  0
    9.4027    8.6273   23.4462 C   0  0  0  0  0  0  0  0  0  0  0  0
    8.3658   10.5553   24.7084 C   0  0  0  0  0  0  0  0  0  0  0  0
    7.3785    9.9884   25.5258 C   0  0  0  0  0  0  0  0  0  0  0  0
    6.6635   10.8385   26.3717 C   0  0  0  0  0  0  0  0  0  0  0  0
    6.9483   12.2075   26.3977 C   0  0  0  0  0  0  0  0  0  0  0  0
    6.1987   13.0736   27.3084 N   0  0  0  0  0  0  0  0  0  0  0  0
    6.7489   14.1188   27.6841 O   0  0  0  0  0  0  0  0  0  0  0  0
    5.0841   12.6841   27.6875 O   0  0  0  0  0  0  0  0  0  0  0  0
    7.9516   12.7689   25.5924 C   0  0  0  0  0  0  0  0  0  0  0  0
    8.6642   11.9166   24.7274 C   0  0  0  0  0  0  0  0  0  0  0  0
  2  1  1  1
  2  3  1  0
  3  4  1  0
  4  5  2  0
  5  6  1  0
  6  7  1  0
  7  8  2  0
  2  9  1  0
  9 10  1  0
 10 11  2  0
 10 12  1  0
 12 13  2  0
 13 14  1  0
 14 15  1  0
 14 16  1  0
 16 17  2  0
 17 18  1  0
 18 19  2  0
 19 20  1  0
 20 21  2  0
 20 22  1  0
 19 23  1  0
 23 24  2  0
  8  4  1  0
 24 12  1  0
 24 16  1  0
M  CHG  2  20   1  22  -1
M  END
>  <energy_score>  (178) 
-20.190989

>  <inchikey>  (178) 
None

>  <smiles>  (178) 
None

>  <ref_pdb>  (178) 
A2290a

>  <alias>  (178) 
None

>  <HIPPO Pose ID>  (178) 
497894

>  <name>  (178) 
P497894

>  <HIPPO Compound ID>  (178) 
289832

>  <ref_mols>  (178) 
A2290a,A3436a

>  <distance_score>  (178) 
0.717993

>  <inspiration_score>  (178) 
None

$$$$
P497897
     RDKit          3D

 24 26  0  0  0  0  0  0  0  0999 V2000
    8.5864   17.4086   20.6937 C   0  0  0  0  0  0  0  0  0  0  0  0
    9.5600   16.3313   20.4570 C   0  0  0  0  0  0  0  0  0  0  0  0
   10.3473   15.7464   21.3307 N   0  0  0  0  0  0  0  0  0  0  0  0
   11.1685   14.9601   20.5708 C   0  0  0  0  0  0  0  0  0  0  0  0
   12.4080   14.3785   21.1259 C   0  0  0  0  0  0  0  0  0  0  0  0
   12.3784   14.2782   22.6330 C   0  0  0  0  0  0  0  0  0  0  0  0
   11.4039   13.3416   23.0784 N   0  0  0  0  0  0  0  0  0  0  0  0
   10.5729   13.3068   24.3590 C   0  0  0  0  0  0  0  0  0  0  0  0
   10.4909   14.0776   25.2271 O   0  0  0  0  0  0  0  0  0  0  0  0
    9.8229   12.0504   24.3267 C   0  0  0  0  0  0  0  0  0  0  0  0
   10.2334   11.0596   23.5177 N   0  0  0  0  0  0  0  0  0  0  0  0
    9.4014   10.0257   23.7819 N   0  0  0  0  0  0  0  0  0  0  0  0
    9.5527    8.7768   23.0201 C   0  0  0  0  0  0  0  0  0  0  0  0
    9.9892    9.0111   21.7595 F   0  0  0  0  0  0  0  0  0  0  0  0
    8.3836    8.1179   22.9289 F   0  0  0  0  0  0  0  0  0  0  0  0
   10.4493    7.9244   23.5661 F   0  0  0  0  0  0  0  0  0  0  0  0
    8.4613   10.3478   24.7449 C   0  0  0  0  0  0  0  0  0  0  0  0
    7.4398    9.6225   25.3608 C   0  0  0  0  0  0  0  0  0  0  0  0
    6.6140   10.2772   26.2805 C   0  0  0  0  0  0  0  0  0  0  0  0
    6.8026   11.6208   26.5833 C   0  0  0  0  0  0  0  0  0  0  0  0
    7.8400   12.3371   25.9872 C   0  0  0  0  0  0  0  0  0  0  0  0
    8.6830   11.6846   25.0688 C   0  0  0  0  0  0  0  0  0  0  0  0
   10.7509   15.0037   19.2677 C   0  0  0  0  0  0  0  0  0  0  0  0
    9.7135   15.8809   19.1792 O   0  0  0  0  0  0  0  0  0  0  0  0
  1  2  1  0
  2  3  2  0
  3  4  1  0
  4  5  1  0
  5  6  1  0
  6  7  1  0
  7  8  1  0
  8  9  2  0
  8 10  1  0
 10 11  2  0
 11 12  1  0
 12 13  1  0
 13 14  1  0
 13 15  1  0
 13 16  1  0
 12 17  1  0
 17 18  2  0
 18 19  1  0
 19 20  2  0
 20 21  1  0
 21 22  2  0
  4 23  2  0
 23 24  1  0
 24  2  1  0
 22 10  1  0
 22 17  1  0
M  END
>  <energy_score>  (179) 
-34.305412

>  <inchikey>  (179) 
None

>  <smiles>  (179) 
None

>  <ref_pdb>  (179) 
A2290a

>  <alias>  (179) 
None

>  <HIPPO Pose ID>  (179) 
497897

>  <name>  (179) 
P497897

>  <HIPPO Compound ID>  (179) 
289834

>  <ref_mols>  (179) 
A2290a,A3436a

>  <distance_score>  (179) 
0.541163

>  <inspiration_score>  (179) 
None

$$$$
P497899
     RDKit          3D

 24 26  0  0  0  0  0  0  0  0999 V2000
   13.0627   13.6498   23.3577 C   0  0  0  0  0  0  0  0  0  0  0  0
   11.8635   14.3169   22.7427 C   0  0  1  0  0  0  0  0  0  0  0  0
   12.0397   14.4470   21.2424 C   0  0  0  0  0  0  0  0  0  0  0  0
   10.8790   15.0805   20.5899 C   0  0  0  0  0  0  0  0  0  0  0  0
   10.6083   15.1828   19.2522 C   0  0  0  0  0  0  0  0  0  0  0  0
    9.6169   16.0998   19.0881 O   0  0  0  0  0  0  0  0  0  0  0  0
    9.3214   16.4874   20.3569 C   0  0  0  0  0  0  0  0  0  0  0  0
    9.9955   15.8571   21.2864 N   0  0  0  0  0  0  0  0  0  0  0  0
   10.8345   13.4315   23.1294 N   0  0  0  0  0  0  0  0  0  0  0  0
    9.9586   13.4156   24.3726 C   0  0  0  0  0  0  0  0  0  0  0  0
    9.8830   14.1720   25.2517 O   0  0  0  0  0  0  0  0  0  0  0  0
    9.2531   12.1490   24.3085 C   0  0  0  0  0  0  0  0  0  0  0  0
    9.6929   11.2211   23.4411 N   0  0  0  0  0  0  0  0  0  0  0  0
    9.0720   10.0846   23.8027 N   0  0  0  0  0  0  0  0  0  0  0  0
    9.4011    8.8503   23.0700 C   0  0  0  0  0  0  0  0  0  0  0  0
    9.9212    9.1120   21.8450 F   0  0  0  0  0  0  0  0  0  0  0  0
    8.3155    8.0814   22.8943 F   0  0  0  0  0  0  0  0  0  0  0  0
   10.3293    8.0962   23.6929 F   0  0  0  0  0  0  0  0  0  0  0  0
    8.1565   10.3111   24.8157 C   0  0  0  0  0  0  0  0  0  0  0  0
    7.2570    9.4925   25.4866 C   0  0  0  0  0  0  0  0  0  0  0  0
    6.4381   10.0527   26.4737 C   0  0  0  0  0  0  0  0  0  0  0  0
    6.5275   11.3989   26.8047 C   0  0  0  0  0  0  0  0  0  0  0  0
    7.4410   12.2181   26.1496 C   0  0  0  0  0  0  0  0  0  0  0  0
    8.2432   11.6633   25.1390 C   0  0  0  0  0  0  0  0  0  0  0  0
  2  1  1  1
  2  3  1  0
  3  4  1  0
  4  5  2  0
  5  6  1  0
  6  7  1  0
  7  8  2  0
  2  9  1  0
  9 10  1  0
 10 11  2  0
 10 12  1  0
 12 13  2  0
 13 14  1  0
 14 15  1  0
 15 16  1  0
 15 17  1  0
 15 18  1  0
 14 19  1  0
 19 20  2  0
 20 21  1  0
 21 22  2  0
 22 23  1  0
 23 24  2  0
  8  4  1  0
 24 12  1  0
 24 19  1  0
M  END
>  <energy_score>  (180) 
-1.705638

>  <inchikey>  (180) 
None

>  <smiles>  (180) 
None

>  <ref_pdb>  (180) 
A2290a

>  <alias>  (180) 
None

>  <HIPPO Pose ID>  (180) 
497899

>  <name>  (180) 
P497899

>  <HIPPO Compound ID>  (180) 
289835

>  <ref_mols>  (180) 
A2290a,A3436a

>  <distance_score>  (180) 
0.642356

>  <inspiration_score>  (180) 
None

$$$$
P497900
     RDKit          3D

 24 26  0  0  0  0  0  0  0  0999 V2000
   11.6893   14.5073   18.4042 C   0  0  0  0  0  0  0  0  0  0  0  0
   10.8926   14.9814   19.5245 C   0  0  0  0  0  0  0  0  0  0  0  0
    9.7836   15.7431   19.3193 O   0  0  0  0  0  0  0  0  0  0  0  0
    9.4290   16.1095   20.5810 C   0  0  0  0  0  0  0  0  0  0  0  0
   10.1697   15.5920   21.5352 N   0  0  0  0  0  0  0  0  0  0  0  0
   11.1516   14.9304   20.8626 C   0  0  0  0  0  0  0  0  0  0  0  0
   12.3857   14.3973   21.4718 C   0  0  0  0  0  0  0  0  0  0  0  0
   12.3031   14.2725   22.9622 C   0  0  0  0  0  0  0  0  0  0  0  0
   11.3167   13.3365   23.3511 N   0  0  0  0  0  0  0  0  0  0  0  0
   10.4092   13.3048   24.5729 C   0  0  0  0  0  0  0  0  0  0  0  0
   10.2654   14.0813   25.4263 O   0  0  0  0  0  0  0  0  0  0  0  0
    9.6857   12.0405   24.4880 C   0  0  0  0  0  0  0  0  0  0  0  0
   10.1353   11.0799   23.6615 N   0  0  0  0  0  0  0  0  0  0  0  0
    9.3131   10.0276   23.8727 N   0  0  0  0  0  0  0  0  0  0  0  0
    9.4980    8.8093   23.0672 C   0  0  0  0  0  0  0  0  0  0  0  0
    8.3415    8.1379   22.9290 F   0  0  0  0  0  0  0  0  0  0  0  0
   10.3958    7.9483   23.5958 F   0  0  0  0  0  0  0  0  0  0  0  0
    9.9558    9.0984   21.8254 F   0  0  0  0  0  0  0  0  0  0  0  0
    8.3518   10.3105   24.8281 C   0  0  0  0  0  0  0  0  0  0  0  0
    7.3327    9.5587   25.4085 C   0  0  0  0  0  0  0  0  0  0  0  0
    6.4817   10.1748   26.3322 C   0  0  0  0  0  0  0  0  0  0  0  0
    6.6417   11.5119   26.6739 C   0  0  0  0  0  0  0  0  0  0  0  0
    7.6756   12.2581   26.1135 C   0  0  0  0  0  0  0  0  0  0  0  0
    8.5413   11.6403   25.1935 C   0  0  0  0  0  0  0  0  0  0  0  0
  1  2  1  0
  2  3  1  0
  3  4  1  0
  4  5  2  0
  5  6  1  0
  6  7  1  0
  7  8  1  0
  8  9  1  0
  9 10  1  0
 10 11  2  0
 10 12  1  0
 12 13  2  0
 13 14  1  0
 14 15  1  0
 15 16  1  0
 15 17  1  0
 15 18  1  0
 14 19  1  0
 19 20  2  0
 20 21  1  0
 21 22  2  0
 22 23  1  0
 23 24  2  0
  6  2  2  0
 24 12  1  0
 24 19  1  0
M  END
>  <energy_score>  (181) 
-31.954831

>  <inchikey>  (181) 
None

>  <smiles>  (181) 
None

>  <ref_pdb>  (181) 
A2290a

>  <alias>  (181) 
None

>  <HIPPO Pose ID>  (181) 
497900

>  <name>  (181) 
P497900

>  <HIPPO Compound ID>  (181) 
289836

>  <ref_mols>  (181) 
A2290a,A3436a

>  <distance_score>  (181) 
0.699881

>  <inspiration_score>  (181) 
None

$$$$
P497903
     RDKit          3D

 25 27  0  0  0  0  0  0  0  0999 V2000
    5.1996   14.4801   28.5962 C   0  0  0  0  0  0  0  0  0  0  0  0
    6.0851   13.7256   27.7686 O   0  0  0  0  0  0  0  0  0  0  0  0
    5.6849   12.4504   27.5432 C   0  0  0  0  0  0  0  0  0  0  0  0
    4.7027   11.9116   28.0306 O   0  0  0  0  0  0  0  0  0  0  0  0
    6.6292   11.7600   26.6234 C   0  0  0  0  0  0  0  0  0  0  0  0
    6.4226   10.4017   26.3675 C   0  0  0  0  0  0  0  0  0  0  0  0
    7.2383    9.6982   25.4755 C   0  0  0  0  0  0  0  0  0  0  0  0
    8.2659   10.3881   24.8335 C   0  0  0  0  0  0  0  0  0  0  0  0
    8.5228   11.7264   25.1096 C   0  0  0  0  0  0  0  0  0  0  0  0
    7.6977   12.4298   26.0094 C   0  0  0  0  0  0  0  0  0  0  0  0
    9.6718   12.0349   24.3466 C   0  0  0  0  0  0  0  0  0  0  0  0
   10.4586   13.2713   24.3633 C   0  0  0  0  0  0  0  0  0  0  0  0
   10.3810   14.0479   25.2270 O   0  0  0  0  0  0  0  0  0  0  0  0
   11.3147   13.2785   23.0981 N   0  0  0  0  0  0  0  0  0  0  0  0
   12.3246   14.1887   22.6671 C   0  0  0  0  0  0  0  0  0  0  0  0
   12.3830   14.3317   21.1627 C   0  0  0  0  0  0  0  0  0  0  0  0
   11.1630   14.9402   20.5936 C   0  0  0  0  0  0  0  0  0  0  0  0
   10.7584   14.9926   19.2861 C   0  0  0  0  0  0  0  0  0  0  0  0
    9.7286   15.8781   19.1909 O   0  0  0  0  0  0  0  0  0  0  0  0
    9.5657   16.3252   20.4686 C   0  0  0  0  0  0  0  0  0  0  0  0
    8.5903   17.4027   20.6990 C   0  0  0  0  0  0  0  0  0  0  0  0
   10.3464   15.7370   21.3469 N   0  0  0  0  0  0  0  0  0  0  0  0
   10.0381   11.0070   23.5587 N   0  0  0  0  0  0  0  0  0  0  0  0
    9.1836   10.0246   23.8772 N   0  0  0  0  0  0  0  0  0  0  0  0
    9.3189    8.7645   23.1884 C   0  0  0  0  0  0  0  0  0  0  0  0
  1  2  1  0
  2  3  1  0
  3  4  2  0
  3  5  1  0
  5  6  2  0
  6  7  1  0
  7  8  2  0
  8  9  1  0
  9 10  2  0
  9 11  1  0
 11 12  1  0
 12 13  2  0
 12 14  1  0
 14 15  1  0
 15 16  1  0
 16 17  1  0
 17 18  2  0
 18 19  1  0
 19 20  1  0
 20 21  1  0
 20 22  2  0
 11 23  2  0
 23 24  1  0
 24 25  1  0
 10  5  1  0
 22 17  1  0
 24  8  1  0
M  END
>  <energy_score>  (182) 
-24.240014

>  <inchikey>  (182) 
None

>  <smiles>  (182) 
None

>  <ref_pdb>  (182) 
A2290a

>  <alias>  (182) 
None

>  <HIPPO Pose ID>  (182) 
497903

>  <name>  (182) 
P497903

>  <HIPPO Compound ID>  (182) 
289839

>  <ref_mols>  (182) 
A2290a,A3436a

>  <distance_score>  (182) 
0.539836

>  <inspiration_score>  (182) 
None

$$$$
P497906
     RDKit          3D

 25 27  0  0  0  0  0  0  0  0999 V2000
    8.3177   16.7512   28.1092 C   0  0  0  0  0  0  0  0  0  0  0  0
    8.6994   15.7062   27.2078 O   0  0  0  0  0  0  0  0  0  0  0  0
    7.8291   14.6471   27.2465 C   0  0  0  0  0  0  0  0  0  0  0  0
    6.8766   14.5985   28.0223 O   0  0  0  0  0  0  0  0  0  0  0  0
    8.1682   13.5374   26.3375 C   0  0  0  0  0  0  0  0  0  0  0  0
    9.1933   13.5352   25.4566 N   0  0  0  0  0  0  0  0  0  0  0  0
    9.1441   12.3047   24.8914 N   0  0  0  0  0  0  0  0  0  0  0  0
    9.9944   11.9015   23.7975 C   0  0  0  0  0  0  0  0  0  0  0  0
   11.1481   12.8238   23.5226 C   0  0  0  0  0  0  0  0  0  0  0  0
   12.1662   12.7752   24.0973 O   0  0  0  0  0  0  0  0  0  0  0  0
   10.7144   13.7003   22.3145 N   0  0  0  0  0  0  0  0  0  0  0  0
   11.4121   14.7623   21.6277 C   0  0  1  0  0  0  0  0  0  0  0  0
   12.8905   14.4912   21.6047 C   0  0  0  0  0  0  0  0  0  0  0  0
   10.8894   14.8216   20.1859 C   0  0  0  0  0  0  0  0  0  0  0  0
    9.9446   15.9325   19.9481 C   0  0  0  0  0  0  0  0  0  0  0  0
    9.7689   16.6844   18.8107 C   0  0  0  0  0  0  0  0  0  0  0  0
    8.9335   17.7128   19.1045 O   0  0  0  0  0  0  0  0  0  0  0  0
    8.6593   17.5332   20.4247 C   0  0  0  0  0  0  0  0  0  0  0  0
    9.1677   16.4415   20.9522 N   0  0  0  0  0  0  0  0  0  0  0  0
    8.1641   11.4953   25.3974 C   0  0  0  0  0  0  0  0  0  0  0  0
    7.8130   10.1771   25.1178 C   0  0  0  0  0  0  0  0  0  0  0  0
    6.7081    9.6794   25.8016 C   0  0  0  0  0  0  0  0  0  0  0  0
    6.0111   10.4315   26.7384 C   0  0  0  0  0  0  0  0  0  0  0  0
    6.3919   11.7401   27.0104 C   0  0  0  0  0  0  0  0  0  0  0  0
    7.4871   12.2837   26.3196 C   0  0  0  0  0  0  0  0  0  0  0  0
  1  2  1  0
  2  3  1  0
  3  4  2  0
  3  5  1  0
  5  6  2  0
  6  7  1  0
  7  8  1  0
  8  9  1  0
  9 10  2  0
  9 11  1  0
 11 12  1  0
 12 13  1  6
 12 14  1  0
 14 15  1  0
 15 16  2  0
 16 17  1  0
 17 18  1  0
 18 19  2  0
  7 20  1  0
 20 21  2  0
 21 22  1  0
 22 23  2  0
 23 24  1  0
 24 25  2  0
 25  5  1  0
 19 15  1  0
 25 20  1  0
M  END
>  <energy_score>  (183) 
-8.973323

>  <inchikey>  (183) 
None

>  <smiles>  (183) 
None

>  <ref_pdb>  (183) 
A2290a

>  <alias>  (183) 
None

>  <HIPPO Pose ID>  (183) 
497906

>  <name>  (183) 
P497906

>  <HIPPO Compound ID>  (183) 
289841

>  <ref_mols>  (183) 
A2290a,A3436a

>  <distance_score>  (183) 
1.699559

>  <inspiration_score>  (183) 
None

$$$$
P497907
     RDKit          3D

 25 27  0  0  0  0  0  0  0  0999 V2000
    4.0439   12.6687   28.7910 C   0  0  0  0  0  0  0  0  0  0  0  0
    4.8140   11.9180   27.8522 O   0  0  0  0  0  0  0  0  0  0  0  0
    6.0679   12.4022   27.6645 C   0  0  0  0  0  0  0  0  0  0  0  0
    6.5642   13.3584   28.2387 O   0  0  0  0  0  0  0  0  0  0  0  0
    6.7844   11.5996   26.6444 C   0  0  0  0  0  0  0  0  0  0  0  0
    6.4482   10.2740   26.3802 C   0  0  0  0  0  0  0  0  0  0  0  0
    7.1623    9.5280   25.4355 C   0  0  0  0  0  0  0  0  0  0  0  0
    8.2071   10.1274   24.7380 C   0  0  0  0  0  0  0  0  0  0  0  0
    8.5687   11.4362   25.0166 C   0  0  0  0  0  0  0  0  0  0  0  0
    7.8627   12.1887   25.9759 C   0  0  0  0  0  0  0  0  0  0  0  0
    9.7030   11.6430   24.2143 C   0  0  0  0  0  0  0  0  0  0  0  0
   10.6177   12.7451   24.2861 C   0  0  0  0  0  0  0  0  0  0  0  0
   10.6908   13.3975   25.2506 O   0  0  0  0  0  0  0  0  0  0  0  0
   11.3519   12.8686   22.9406 N   0  0  0  0  0  0  0  0  0  0  0  0
   12.2521   13.8652   22.4659 C   0  0  2  0  0  0  0  0  0  0  0  0
   11.8192   15.0858   23.2024 C   0  0  0  0  0  0  0  0  0  0  0  0
   12.2775   14.1739   20.9794 C   0  0  0  0  0  0  0  0  0  0  0  0
   11.0722   14.8302   20.3960 C   0  0  0  0  0  0  0  0  0  0  0  0
   10.8170   15.0254   19.0668 C   0  0  0  0  0  0  0  0  0  0  0  0
    9.7958   15.9173   18.9409 O   0  0  0  0  0  0  0  0  0  0  0  0
    9.4819   16.2327   20.2198 C   0  0  0  0  0  0  0  0  0  0  0  0
   10.1652   15.5715   21.1175 N   0  0  0  0  0  0  0  0  0  0  0  0
    9.9296   10.6456   23.3598 N   0  0  0  0  0  0  0  0  0  0  0  0
    9.0674    9.7064   23.7480 N   0  0  0  0  0  0  0  0  0  0  0  0
    9.1807    8.4381   23.0848 C   0  0  0  0  0  0  0  0  0  0  0  0
  1  2  1  0
  2  3  1  0
  3  4  2  0
  3  5  1  0
  5  6  2  0
  6  7  1  0
  7  8  2  0
  8  9  1  0
  9 10  2  0
  9 11  1  0
 11 12  1  0
 12 13  2  0
 12 14  1  0
 14 15  1  0
 15 16  1  1
 15 17  1  0
 17 18  1  0
 18 19  2  0
 19 20  1  0
 20 21  1  0
 21 22  2  0
 11 23  2  0
 23 24  1  0
 24 25  1  0
 10  5  1  0
 22 18  1  0
 24  8  1  0
M  END
>  <energy_score>  (184) 
-2.66247

>  <inchikey>  (184) 
None

>  <smiles>  (184) 
None

>  <ref_pdb>  (184) 
A2290a

>  <alias>  (184) 
None

>  <HIPPO Pose ID>  (184) 
497907

>  <name>  (184) 
P497907

>  <HIPPO Compound ID>  (184) 
289842

>  <ref_mols>  (184) 
A2290a,A3436a

>  <distance_score>  (184) 
0.586901

>  <inspiration_score>  (184) 
None

$$$$
P497909
     RDKit          3D

 25 27  0  0  0  0  0  0  0  0999 V2000
    7.1818   16.1749   28.0987 C   0  0  0  0  0  0  0  0  0  0  0  0
    7.3808   14.9693   27.3596 O   0  0  0  0  0  0  0  0  0  0  0  0
    8.5964   14.8772   26.7404 C   0  0  0  0  0  0  0  0  0  0  0  0
    9.4871   15.7169   26.8690 O   0  0  0  0  0  0  0  0  0  0  0  0
    8.7348   13.6573   25.9284 C   0  0  0  0  0  0  0  0  0  0  0  0
    9.7516   13.5226   25.0567 N   0  0  0  0  0  0  0  0  0  0  0  0
    9.5991   12.2946   24.5317 N   0  0  0  0  0  0  0  0  0  0  0  0
   10.4583   11.8175   23.4724 C   0  0  0  0  0  0  0  0  0  0  0  0
   11.6627   12.6972   23.1960 C   0  0  0  0  0  0  0  0  0  0  0  0
   12.6840   12.5764   23.7539 O   0  0  0  0  0  0  0  0  0  0  0  0
   11.2625   13.6294   22.0219 N   0  0  0  0  0  0  0  0  0  0  0  0
   12.0558   14.5304   21.2346 C   0  0  0  0  0  0  0  0  0  0  0  0
   11.4935   14.6307   19.8194 C   0  0  0  0  0  0  0  0  0  0  0  0
   10.3764   15.5815   19.6803 C   0  0  0  0  0  0  0  0  0  0  0  0
   10.1193   16.4239   18.6247 C   0  0  0  0  0  0  0  0  0  0  0  0
    9.2249   17.3466   19.0148 O   0  0  0  0  0  0  0  0  0  0  0  0
    9.0449   17.0438   20.3215 C   0  0  0  0  0  0  0  0  0  0  0  0
    8.3874   18.0746   21.0894 C   0  0  0  0  0  0  0  0  0  0  0  0
    9.5963   15.9266   20.7419 N   0  0  0  0  0  0  0  0  0  0  0  0
    8.5724   11.5772   25.0888 C   0  0  0  0  0  0  0  0  0  0  0  0
    8.1456   10.2603   24.9038 C   0  0  0  0  0  0  0  0  0  0  0  0
    7.0495    9.8425   25.6579 C   0  0  0  0  0  0  0  0  0  0  0  0
    6.4004   10.6964   26.5423 C   0  0  0  0  0  0  0  0  0  0  0  0
    6.8394   12.0103   26.7088 C   0  0  0  0  0  0  0  0  0  0  0  0
    7.9539   12.4598   25.9751 C   0  0  0  0  0  0  0  0  0  0  0  0
  1  2  1  0
  2  3  1  0
  3  4  2  0
  3  5  1  0
  5  6  2  0
  6  7  1  0
  7  8  1  0
  8  9  1  0
  9 10  2  0
  9 11  1  0
 11 12  1  0
 12 13  1  0
 13 14  1  0
 14 15  2  0
 15 16  1  0
 16 17  1  0
 17 18  1  0
 17 19  2  0
  7 20  1  0
 20 21  2  0
 21 22  1  0
 22 23  2  0
 23 24  1  0
 24 25  2  0
 25  5  1  0
 19 14  1  0
 25 20  1  0
M  END
>  <energy_score>  (185) 
-40.851664

>  <inchikey>  (185) 
None

>  <smiles>  (185) 
None

>  <ref_pdb>  (185) 
A2290a

>  <alias>  (185) 
None

>  <HIPPO Pose ID>  (185) 
497909

>  <name>  (185) 
P497909

>  <HIPPO Compound ID>  (185) 
289843

>  <ref_mols>  (185) 
A2290a,A3436a

>  <distance_score>  (185) 
1.55915

>  <inspiration_score>  (185) 
None

$$$$
P497914
     RDKit          3D

 26 28  0  0  0  0  0  0  0  0999 V2000
    8.9967   16.4134   28.2013 C   0  0  0  0  0  0  0  0  0  0  0  0
    9.1574   15.4475   27.1589 O   0  0  0  0  0  0  0  0  0  0  0  0
    8.0798   14.6008   27.0540 C   0  0  0  0  0  0  0  0  0  0  0  0
    7.0509   14.7474   27.7088 O   0  0  0  0  0  0  0  0  0  0  0  0
    8.3094   13.4463   26.1697 C   0  0  0  0  0  0  0  0  0  0  0  0
    9.3455   13.3315   25.3171 N   0  0  0  0  0  0  0  0  0  0  0  0
    9.2337   12.0791   24.8113 N   0  0  0  0  0  0  0  0  0  0  0  0
   10.1354   11.5911   23.7953 C   0  0  0  0  0  0  0  0  0  0  0  0
   11.5055   12.2247   23.8667 C   0  0  0  0  0  0  0  0  0  0  0  0
   12.4401   11.6835   24.2899 O   0  0  0  0  0  0  0  0  0  0  0  0
   11.3707   13.5870   23.2006 N   0  0  0  0  0  0  0  0  0  0  0  0
   12.3537   14.5269   22.8294 C   0  0  0  0  0  0  0  0  0  0  0  0
   12.4467   14.5283   21.3411 C   0  0  0  0  0  0  0  0  0  0  0  0
   11.1872   15.0036   20.7425 C   0  0  0  0  0  0  0  0  0  0  0  0
   10.2294   15.6853   21.4232 N   0  0  0  0  0  0  0  0  0  0  0  0
    9.5424   16.2822   20.4724 C   0  0  0  0  0  0  0  0  0  0  0  0
    8.5834   17.3877   20.6271 C   0  0  0  0  0  0  0  0  0  0  0  0
    9.8389   15.8483   19.2075 O   0  0  0  0  0  0  0  0  0  0  0  0
   10.9028   15.0216   19.4146 C   0  0  0  0  0  0  0  0  0  0  0  0
   11.7010   14.5079   18.3170 C   0  0  0  0  0  0  0  0  0  0  0  0
    8.1848   11.3672   25.3192 C   0  0  0  0  0  0  0  0  0  0  0  0
    7.7529   10.0598   25.1133 C   0  0  0  0  0  0  0  0  0  0  0  0
    6.6054    9.6751   25.8044 C   0  0  0  0  0  0  0  0  0  0  0  0
    5.9412   10.5251   26.6790 C   0  0  0  0  0  0  0  0  0  0  0  0
    6.3979   11.8214   26.8764 C   0  0  0  0  0  0  0  0  0  0  0  0
    7.5372   12.2500   26.1764 C   0  0  0  0  0  0  0  0  0  0  0  0
  1  2  1  0
  2  3  1  0
  3  4  2  0
  3  5  1  0
  5  6  2  0
  6  7  1  0
  7  8  1  0
  8  9  1  0
  9 10  2  0
  9 11  1  0
 11 12  1  0
 12 13  1  0
 13 14  1  0
 14 15  1  0
 15 16  2  0
 16 17  1  0
 16 18  1  0
 18 19  1  0
 19 20  1  0
  7 21  1  0
 21 22  2  0
 22 23  1  0
 23 24  2  0
 24 25  1  0
 25 26  2  0
 26  5  1  0
 19 14  2  0
 26 21  1  0
M  END
>  <energy_score>  (186) 
-21.538638

>  <inchikey>  (186) 
None

>  <smiles>  (186) 
None

>  <ref_pdb>  (186) 
A2290a

>  <alias>  (186) 
None

>  <HIPPO Pose ID>  (186) 
497914

>  <name>  (186) 
P497914

>  <HIPPO Compound ID>  (186) 
289848

>  <ref_mols>  (186) 
A2290a,A3436a

>  <distance_score>  (186) 
1.462321

>  <inspiration_score>  (186) 
None

$$$$
P497915
     RDKit          3D

 27 29  0  0  0  0  0  0  0  0999 V2000
   14.0776   12.2866   25.1599 C   0  0  0  0  0  0  0  0  0  0  0  0
   13.0720   13.2588   24.8092 O   0  0  0  0  0  0  0  0  0  0  0  0
   12.7895   13.2269   23.4835 C   0  0  0  0  0  0  0  0  0  0  0  0
   13.2773   12.3754   22.7652 O   0  0  0  0  0  0  0  0  0  0  0  0
   11.7732   14.2005   22.9492 C   0  0  1  0  0  0  0  0  0  0  0  0
   12.0084   14.3943   21.4542 C   0  0  0  0  0  0  0  0  0  0  0  0
   10.8980   15.0512   20.7405 C   0  0  0  0  0  0  0  0  0  0  0  0
   10.6424   15.0931   19.3924 C   0  0  0  0  0  0  0  0  0  0  0  0
    9.6516   16.0019   19.1775 O   0  0  0  0  0  0  0  0  0  0  0  0
    9.3465   16.4485   20.4225 C   0  0  0  0  0  0  0  0  0  0  0  0
   10.0231   15.8725   21.3863 N   0  0  0  0  0  0  0  0  0  0  0  0
   10.6680   13.3796   23.3066 N   0  0  0  0  0  0  0  0  0  0  0  0
    9.7284   13.4523   24.4962 C   0  0  0  0  0  0  0  0  0  0  0  0
    9.6479   14.2396   25.3460 O   0  0  0  0  0  0  0  0  0  0  0  0
    8.9419   12.2272   24.4549 C   0  0  0  0  0  0  0  0  0  0  0  0
    9.3488   11.2096   23.6695 N   0  0  0  0  0  0  0  0  0  0  0  0
    8.6717   10.1544   24.1326 N   0  0  0  0  0  0  0  0  0  0  0  0
    9.0522    8.8392   23.6772 C   0  0  0  0  0  0  0  0  0  0  0  0
    7.7388   10.4888   25.0858 C   0  0  0  0  0  0  0  0  0  0  0  0
    6.7915    9.7407   25.7805 C   0  0  0  0  0  0  0  0  0  0  0  0
    5.9884   10.3957   26.7145 C   0  0  0  0  0  0  0  0  0  0  0  0
    6.1494   11.7634   26.9461 C   0  0  0  0  0  0  0  0  0  0  0  0
    5.2894   12.4229   27.9262 N   0  0  0  0  0  0  0  0  0  0  0  0
    4.1615   11.9428   28.1146 O   0  0  0  0  0  0  0  0  0  0  0  0
    5.7531   13.4019   28.5274 O   0  0  0  0  0  0  0  0  0  0  0  0
    7.1130   12.5148   26.2688 C   0  0  0  0  0  0  0  0  0  0  0  0
    7.8919   11.8535   25.3061 C   0  0  0  0  0  0  0  0  0  0  0  0
  1  2  1  0
  2  3  1  0
  3  4  2  0
  3  5  1  0
  5  6  1  6
  6  7  1  0
  7  8  2  0
  8  9  1  0
  9 10  1  0
 10 11  2  0
  5 12  1  0
 12 13  1  0
 13 14  2  0
 13 15  1  0
 15 16  2  0
 16 17  1  0
 17 18  1  0
 17 19  1  0
 19 20  2  0
 20 21  1  0
 21 22  2  0
 22 23  1  0
 23 24  2  0
 23 25  1  0
 22 26  1  0
 26 27  2  0
 11  7  1  0
 27 15  1  0
 27 19  1  0
M  CHG  2  23   1  25  -1
M  END
>  <energy_score>  (187) 
-14.732368

>  <inchikey>  (187) 
None

>  <smiles>  (187) 
None

>  <ref_pdb>  (187) 
A2290a

>  <alias>  (187) 
None

>  <HIPPO Pose ID>  (187) 
497915

>  <name>  (187) 
P497915

>  <HIPPO Compound ID>  (187) 
289849

>  <ref_mols>  (187) 
A2290a,A3436a

>  <distance_score>  (187) 
0.855717

>  <inspiration_score>  (187) 
None

$$$$
P497918
     RDKit          3D

 27 30  0  0  0  0  0  0  0  0999 V2000
    8.5858   17.4353   20.6486 C   0  0  0  0  0  0  0  0  0  0  0  0
    9.5384   16.3333   20.4474 C   0  0  0  0  0  0  0  0  0  0  0  0
   10.2401   15.7014   21.3587 N   0  0  0  0  0  0  0  0  0  0  0  0
   11.0976   14.9147   20.6426 C   0  0  0  0  0  0  0  0  0  0  0  0
   12.2713   14.2872   21.2865 C   0  0  0  0  0  0  0  0  0  0  0  0
   12.2910   14.4723   22.7954 C   0  0  0  0  0  0  0  0  0  0  0  0
   11.2254   13.7807   23.4546 N   0  0  0  0  0  0  0  0  0  0  0  0
   10.6784   13.9175   24.8909 C   0  0  0  0  0  0  0  0  0  0  0  0
   10.9592   14.6691   25.7399 O   0  0  0  0  0  0  0  0  0  0  0  0
    9.6831   12.8580   25.0206 C   0  0  0  0  0  0  0  0  0  0  0  0
    9.9371   11.7563   24.3107 N   0  0  0  0  0  0  0  0  0  0  0  0
    8.9496   10.9349   24.5981 N   0  0  0  0  0  0  0  0  0  0  0  0
    8.9984    9.6261   24.0387 C   0  0  0  0  0  0  0  0  0  0  0  0
   10.1371    9.4433   23.0270 C   0  0  1  0  0  0  0  0  0  0  0  0
   11.0105    8.2835   23.3516 C   0  0  0  0  0  0  0  0  0  0  0  0
   10.0441    7.2774   23.2689 N   0  0  0  0  0  0  0  0  0  0  0  0
    9.2211    7.6468   22.2415 C   0  0  0  0  0  0  0  0  0  0  0  0
    8.3959    6.9333   21.7252 O   0  0  0  0  0  0  0  0  0  0  0  0
    9.5359    8.9093   21.8757 O   0  0  0  0  0  0  0  0  0  0  0  0
    8.0449   11.4122   25.4879 C   0  0  0  0  0  0  0  0  0  0  0  0
    6.9165   10.8285   26.0691 C   0  0  0  0  0  0  0  0  0  0  0  0
    6.1819   11.6302   26.9374 C   0  0  0  0  0  0  0  0  0  0  0  0
    6.5683   12.9451   27.2029 C   0  0  0  0  0  0  0  0  0  0  0  0
    7.7151   13.5033   26.6222 C   0  0  0  0  0  0  0  0  0  0  0  0
    8.4769   12.7127   25.7534 C   0  0  0  0  0  0  0  0  0  0  0  0
   10.7709   14.9934   19.3132 C   0  0  0  0  0  0  0  0  0  0  0  0
    9.7639   15.9027   19.1744 O   0  0  0  0  0  0  0  0  0  0  0  0
  1  2  1  0
  2  3  2  0
  3  4  1  0
  4  5  1  0
  5  6  1  0
  6  7  1  0
  7  8  1  0
  8  9  2  0
  8 10  1  0
 10 11  2  0
 11 12  1  0
 12 13  1  0
 14 13  1  1
 14 15  1  0
 15 16  1  0
 16 17  1  0
 17 18  2  0
 17 19  1  0
 12 20  1  0
 20 21  2  0
 21 22  1  0
 22 23  2  0
 23 24  1  0
 24 25  2  0
  4 26  2  0
 26 27  1  0
 27  2  1  0
 25 10  1  0
 19 14  1  0
 25 20  1  0
M  END
>  <energy_score>  (188) 
-27.498361

>  <inchikey>  (188) 
None

>  <smiles>  (188) 
None

>  <ref_pdb>  (188) 
A2290a

>  <alias>  (188) 
None

>  <HIPPO Pose ID>  (188) 
497918

>  <name>  (188) 
P497918

>  <HIPPO Compound ID>  (188) 
289854

>  <ref_mols>  (188) 
A2290a,A3436a

>  <distance_score>  (188) 
1.182859

>  <inspiration_score>  (188) 
None

$$$$
P497919
     RDKit          3D

 27 29  0  0  0  0  0  0  0  0999 V2000
   14.4612   11.9699   24.9513 C   0  0  0  0  0  0  0  0  0  0  0  0
   13.6387   12.5309   23.9051 O   0  0  0  0  0  0  0  0  0  0  0  0
   12.7016   13.4311   24.2705 C   0  0  0  0  0  0  0  0  0  0  0  0
   12.4456   13.6798   25.4511 O   0  0  0  0  0  0  0  0  0  0  0  0
   11.8754   14.0616   23.1448 C   0  0  1  0  0  0  0  0  0  0  0  0
   12.2916   14.1067   21.6851 C   0  0  0  0  0  0  0  0  0  0  0  0
   11.2430   14.7876   20.8556 C   0  0  0  0  0  0  0  0  0  0  0  0
   11.0036   14.7767   19.5012 C   0  0  0  0  0  0  0  0  0  0  0  0
    9.9561   15.6159   19.2423 O   0  0  0  0  0  0  0  0  0  0  0  0
    9.6221   16.1120   20.4573 C   0  0  0  0  0  0  0  0  0  0  0  0
   10.3323   15.6316   21.4486 N   0  0  0  0  0  0  0  0  0  0  0  0
   10.7068   13.2855   23.3754 N   0  0  0  0  0  0  0  0  0  0  0  0
    9.5294   13.5241   24.3075 C   0  0  0  0  0  0  0  0  0  0  0  0
    9.2781   14.4315   24.9868 O   0  0  0  0  0  0  0  0  0  0  0  0
    8.7654   12.2921   24.2744 C   0  0  0  0  0  0  0  0  0  0  0  0
    9.1643   11.2852   23.4729 N   0  0  0  0  0  0  0  0  0  0  0  0
    8.5990   10.1948   24.0314 N   0  0  0  0  0  0  0  0  0  0  0  0
    9.1469    8.8683   23.7414 C   0  0  0  0  0  0  0  0  0  0  0  0
    8.7067    7.9978   24.6713 F   0  0  0  0  0  0  0  0  0  0  0  0
    8.7919    8.3681   22.5478 F   0  0  0  0  0  0  0  0  0  0  0  0
   10.5027    8.8829   23.7721 F   0  0  0  0  0  0  0  0  0  0  0  0
    7.6931   10.5212   25.0264 C   0  0  0  0  0  0  0  0  0  0  0  0
    6.8288    9.7637   25.8161 C   0  0  0  0  0  0  0  0  0  0  0  0
    6.0989   10.4101   26.8157 C   0  0  0  0  0  0  0  0  0  0  0  0
    6.2283   11.7770   27.0277 C   0  0  0  0  0  0  0  0  0  0  0  0
    7.0822   12.5338   26.2300 C   0  0  0  0  0  0  0  0  0  0  0  0
    7.7956   11.8941   25.2034 C   0  0  0  0  0  0  0  0  0  0  0  0
  1  2  1  0
  2  3  1  0
  3  4  2  0
  3  5  1  0
  5  6  1  6
  6  7  1  0
  7  8  2  0
  8  9  1  0
  9 10  1  0
 10 11  2  0
  5 12  1  0
 12 13  1  0
 13 14  2  0
 13 15  1  0
 15 16  2  0
 16 17  1  0
 17 18  1  0
 18 19  1  0
 18 20  1  0
 18 21  1  0
 17 22  1  0
 22 23  2  0
 23 24  1  0
 24 25  2  0
 25 26  1  0
 26 27  2  0
 11  7  1  0
 27 15  1  0
 27 22  1  0
M  END
>  <energy_score>  (189) 
-10.975621

>  <inchikey>  (189) 
None

>  <smiles>  (189) 
None

>  <ref_pdb>  (189) 
A2290a

>  <alias>  (189) 
None

>  <HIPPO Pose ID>  (189) 
497919

>  <name>  (189) 
P497919

>  <HIPPO Compound ID>  (189) 
289855

>  <ref_mols>  (189) 
A2290a,A3436a

>  <distance_score>  (189) 
0.955289

>  <inspiration_score>  (189) 
None

$$$$
P497922
     RDKit          3D

 28 30  0  0  0  0  0  0  0  0999 V2000
    9.1968    8.9314   23.6274 C   0  0  0  0  0  0  0  0  0  0  0  0
    8.6000   10.2171   23.9049 N   0  0  0  0  0  0  0  0  0  0  0  0
    8.9109   11.2503   23.1066 N   0  0  0  0  0  0  0  0  0  0  0  0
    8.2213   12.2952   23.6156 C   0  0  0  0  0  0  0  0  0  0  0  0
    8.5142   13.6717   23.1807 C   0  0  0  0  0  0  0  0  0  0  0  0
    7.8935   14.5918   23.5218 O   0  0  0  0  0  0  0  0  0  0  0  0
    9.7854   13.5915   22.3395 N   0  0  0  0  0  0  0  0  0  0  0  0
   10.6228   14.6300   21.8151 C   0  0  2  0  0  0  0  0  0  0  0  0
   10.7157   14.7958   20.3269 C   0  0  0  0  0  0  0  0  0  0  0  0
    9.8915   15.9643   19.8925 C   0  0  0  0  0  0  0  0  0  0  0  0
    9.8790   16.6532   18.7047 C   0  0  0  0  0  0  0  0  0  0  0  0
    9.0470   17.7222   18.8209 O   0  0  0  0  0  0  0  0  0  0  0  0
    8.6272   17.6658   20.1118 C   0  0  0  0  0  0  0  0  0  0  0  0
    9.0768   16.6308   20.7816 N   0  0  0  0  0  0  0  0  0  0  0  0
   11.8809   14.2014   22.5281 C   0  0  0  0  0  0  0  0  0  0  0  0
   12.7727   13.5169   22.0616 O   0  0  0  0  0  0  0  0  0  0  0  0
   11.8111   14.6323   23.8316 O   0  0  0  0  0  0  0  0  0  0  0  0
   12.0252   13.7036   24.9265 C   0  0  0  0  0  0  0  0  0  0  0  0
   11.9260   14.5374   26.2284 C   0  0  0  0  0  0  0  0  0  0  0  0
   13.2815   12.8541   24.7205 C   0  0  0  0  0  0  0  0  0  0  0  0
   10.8396   12.7892   24.9695 C   0  0  0  0  0  0  0  0  0  0  0  0
    7.5668   11.9347   24.8191 C   0  0  0  0  0  0  0  0  0  0  0  0
    6.8664   12.6310   25.8199 C   0  0  0  0  0  0  0  0  0  0  0  0
    6.2932   11.8969   26.8496 C   0  0  0  0  0  0  0  0  0  0  0  0
    5.5994   12.5312   27.8043 F   0  0  0  0  0  0  0  0  0  0  0  0
    6.4023   10.5155   26.9012 C   0  0  0  0  0  0  0  0  0  0  0  0
    7.1424    9.8261   25.9400 C   0  0  0  0  0  0  0  0  0  0  0  0
    7.7615   10.5626   24.9343 C   0  0  0  0  0  0  0  0  0  0  0  0
  1  2  1  0
  2  3  1  0
  3  4  2  0
  4  5  1  0
  5  6  2  0
  5  7  1  0
  7  8  1  0
  8  9  1  6
  9 10  1  0
 10 11  2  0
 11 12  1  0
 12 13  1  0
 13 14  2  0
  8 15  1  0
 15 16  2  0
 15 17  1  0
 17 18  1  0
 18 19  1  0
 18 20  1  0
 18 21  1  0
  4 22  1  0
 22 23  2  0
 23 24  1  0
 24 25  1  0
 24 26  2  0
 26 27  1  0
 27 28  2  0
 28  2  1  0
 14 10  1  0
 28 22  1  0
M  END
>  <energy_score>  (190) 
-2.56079

>  <inchikey>  (190) 
None

>  <smiles>  (190) 
None

>  <ref_pdb>  (190) 
A2290a

>  <alias>  (190) 
None

>  <HIPPO Pose ID>  (190) 
497922

>  <name>  (190) 
P497922

>  <HIPPO Compound ID>  (190) 
289860

>  <ref_mols>  (190) 
A2290a,A3436a

>  <distance_score>  (190) 
1.402286

>  <inspiration_score>  (190) 
None

$$$$
P497926
     RDKit          3D

 28 31  0  0  0  0  0  0  0  0999 V2000
    7.6835   19.2117   19.5787 C   0  0  0  0  0  0  0  0  0  0  0  0
    8.3418   17.9318   19.7639 C   0  0  0  0  0  0  0  0  0  0  0  0
    8.3257   17.2620   20.9686 C   0  0  0  0  0  0  0  0  0  0  0  0
    8.8426   16.0050   21.0206 C   0  0  0  0  0  0  0  0  0  0  0  0
    9.6426   15.6075   19.9683 C   0  0  0  0  0  0  0  0  0  0  0  0
   10.5966   14.6285   20.2811 C   0  0  0  0  0  0  0  0  0  0  0  0
   10.8338   14.2160   21.4977 N   0  0  0  0  0  0  0  0  0  0  0  0
   12.1547   13.9831   21.4479 C   0  0  0  0  0  0  0  0  0  0  0  0
   12.8749   13.7025   22.6729 C   0  0  0  0  0  0  0  0  0  0  0  0
   12.1217   13.9940   23.9391 C   0  0  0  0  0  0  0  0  0  0  0  0
   11.0235   13.1511   24.1626 N   0  0  0  0  0  0  0  0  0  0  0  0
    9.7724   13.3614   24.9904 C   0  0  0  0  0  0  0  0  0  0  0  0
    9.4707   14.2365   25.6905 O   0  0  0  0  0  0  0  0  0  0  0  0
    8.9982   12.1399   24.8177 C   0  0  0  0  0  0  0  0  0  0  0  0
    9.4528   11.1536   24.0173 N   0  0  0  0  0  0  0  0  0  0  0  0
    8.6499   10.1219   24.2912 N   0  0  0  0  0  0  0  0  0  0  0  0
    8.9881    8.8321   23.7421 C   0  0  0  0  0  0  0  0  0  0  0  0
    7.6696   10.4282   25.2039 C   0  0  0  0  0  0  0  0  0  0  0  0
    6.6513    9.6849   25.7904 C   0  0  0  0  0  0  0  0  0  0  0  0
    5.8267   10.3117   26.7269 C   0  0  0  0  0  0  0  0  0  0  0  0
    6.0053   11.6511   27.0506 C   0  0  0  0  0  0  0  0  0  0  0  0
    4.8592   12.4618   28.3175 Br  0  0  0  0  0  0  0  0  0  0  0  0
    7.0187   12.3993   26.4635 C   0  0  0  0  0  0  0  0  0  0  0  0
    7.8529   11.7657   25.5290 C   0  0  0  0  0  0  0  0  0  0  0  0
   12.6089   14.0906   20.1619 C   0  0  0  0  0  0  0  0  0  0  0  0
   11.5901   14.4771   19.3785 O   0  0  0  0  0  0  0  0  0  0  0  0
    9.7561   16.3319   18.8002 C   0  0  0  0  0  0  0  0  0  0  0  0
    9.0011   17.4406   18.6535 C   0  0  0  0  0  0  0  0  0  0  0  0
  1  2  1  0
  2  3  2  0
  3  4  1  0
  4  5  2  0
  5  6  1  0
  6  7  2  0
  7  8  1  0
  8  9  1  0
  9 10  1  0
 10 11  1  0
 11 12  1  0
 12 13  2  0
 12 14  1  0
 14 15  2  0
 15 16  1  0
 16 17  1  0
 16 18  1  0
 18 19  2  0
 19 20  1  0
 20 21  2  0
 21 22  1  0
 21 23  1  0
 23 24  2  0
  8 25  2  0
 25 26  1  0
  5 27  1  0
 27 28  2  0
 28  2  1  0
 26  6  1  0
 24 14  1  0
 24 18  1  0
M  END
>  <energy_score>  (191) 
-7.132841

>  <inchikey>  (191) 
None

>  <smiles>  (191) 
None

>  <ref_pdb>  (191) 
A2290a

>  <alias>  (191) 
None

>  <HIPPO Pose ID>  (191) 
497926

>  <name>  (191) 
P497926

>  <HIPPO Compound ID>  (191) 
289866

>  <ref_mols>  (191) 
A2290a,A3436a

>  <distance_score>  (191) 
1.692655

>  <inspiration_score>  (191) 
None

$$$$
P497927
     RDKit          3D

 28 30  0  0  0  0  0  0  0  0999 V2000
    6.8020   16.1083   27.8311 C   0  0  0  0  0  0  0  0  0  0  0  0
    7.2070   14.9073   27.1719 O   0  0  0  0  0  0  0  0  0  0  0  0
    8.5141   14.8943   26.7773 C   0  0  0  0  0  0  0  0  0  0  0  0
    9.3123   15.7977   27.0214 O   0  0  0  0  0  0  0  0  0  0  0  0
    8.8795   13.6823   26.0294 C   0  0  0  0  0  0  0  0  0  0  0  0
   10.0865   13.5927   25.4400 N   0  0  0  0  0  0  0  0  0  0  0  0
   10.0855   12.3967   24.8233 N   0  0  0  0  0  0  0  0  0  0  0  0
   11.1798   12.0923   23.9153 C   0  0  0  0  0  0  0  0  0  0  0  0
   11.3134   13.2069   22.9135 C   0  0  0  0  0  0  0  0  0  0  0  0
   12.2540   13.8869   22.8058 O   0  0  0  0  0  0  0  0  0  0  0  0
    9.9425   13.2726   22.2016 N   0  0  0  0  0  0  0  0  0  0  0  0
    9.4119   14.2456   21.2797 C   0  0  2  0  0  0  0  0  0  0  0  0
   10.3390   15.4020   21.0275 C   0  0  0  0  0  0  0  0  0  0  0  0
    9.6730   16.4411   20.2287 C   0  0  0  0  0  0  0  0  0  0  0  0
    9.7417   16.7114   18.8855 C   0  0  0  0  0  0  0  0  0  0  0  0
    8.9306   17.7694   18.6180 O   0  0  0  0  0  0  0  0  0  0  0  0
    8.4311   18.1082   19.8388 C   0  0  0  0  0  0  0  0  0  0  0  0
    8.8503   17.3533   20.8274 N   0  0  0  0  0  0  0  0  0  0  0  0
    7.9746   14.3367   21.8146 C   0  0  0  0  0  0  0  0  0  0  0  0
    7.2410   13.3433   21.7624 O   0  0  0  0  0  0  0  0  0  0  0  0
    7.6053   15.4744   22.4091 O   0  0  0  0  0  0  0  0  0  0  0  0
    6.3239   15.4386   23.0382 C   0  0  0  0  0  0  0  0  0  0  0  0
    8.9837   11.6296   25.1044 C   0  0  0  0  0  0  0  0  0  0  0  0
    8.6410   10.3157   24.7764 C   0  0  0  0  0  0  0  0  0  0  0  0
    7.4685    9.8095   25.3383 C   0  0  0  0  0  0  0  0  0  0  0  0
    6.6336   10.5951   26.1251 C   0  0  0  0  0  0  0  0  0  0  0  0
    6.9570   11.9270   26.3869 C   0  0  0  0  0  0  0  0  0  0  0  0
    8.1665   12.4500   25.8894 C   0  0  0  0  0  0  0  0  0  0  0  0
  1  2  1  0
  2  3  1  0
  3  4  2  0
  3  5  1  0
  5  6  2  0
  6  7  1  0
  7  8  1  0
  8  9  1  0
  9 10  2  0
  9 11  1  0
 11 12  1  0
 12 13  1  1
 13 14  1  0
 14 15  2  0
 15 16  1  0
 16 17  1  0
 17 18  2  0
 12 19  1  0
 19 20  2  0
 19 21  1  0
 21 22  1  0
  7 23  1  0
 23 24  2  0
 24 25  1  0
 25 26  2  0
 26 27  1  0
 27 28  2  0
 28  5  1  0
 18 14  1  0
 28 23  1  0
M  END
>  <energy_score>  (192) 
-1.56021

>  <inchikey>  (192) 
None

>  <smiles>  (192) 
None

>  <ref_pdb>  (192) 
A2290a

>  <alias>  (192) 
None

>  <HIPPO Pose ID>  (192) 
497927

>  <name>  (192) 
P497927

>  <HIPPO Compound ID>  (192) 
289869

>  <ref_mols>  (192) 
A2290a,A3436a

>  <distance_score>  (192) 
1.836773

>  <inspiration_score>  (192) 
None

$$$$
P497929
     RDKit          3D

 29 32  0  0  0  0  0  0  0  0999 V2000
    8.9884    8.9675   23.8221 C   0  0  0  0  0  0  0  0  0  0  0  0
    8.6160   10.2464   24.3817 N   0  0  0  0  0  0  0  0  0  0  0  0
    9.3443   11.3178   24.0579 N   0  0  0  0  0  0  0  0  0  0  0  0
    8.9054   12.2890   24.8947 C   0  0  0  0  0  0  0  0  0  0  0  0
    9.6348   13.5615   24.9690 C   0  0  0  0  0  0  0  0  0  0  0  0
    9.4734   14.3999   25.7551 O   0  0  0  0  0  0  0  0  0  0  0  0
   10.6627   13.4338   23.8661 N   0  0  0  0  0  0  0  0  0  0  0  0
   11.6565   14.3407   23.4227 C   0  0  0  0  0  0  0  0  0  0  0  0
   12.0896   14.0990   21.9929 C   0  0  0  0  0  0  0  0  0  0  0  0
   12.4567   12.6564   21.9223 C   0  0  0  0  0  0  0  0  0  0  0  0
   13.2733   14.9902   21.7073 C   0  0  0  0  0  0  0  0  0  0  0  0
   11.1251   14.4693   20.9514 C   0  0  0  0  0  0  0  0  0  0  0  0
   11.3384   14.3631   19.5963 C   0  0  0  0  0  0  0  0  0  0  0  0
   10.4894   15.1837   18.9872 O   0  0  0  0  0  0  0  0  0  0  0  0
    9.8747   15.8071   20.0121 C   0  0  0  0  0  0  0  0  0  0  0  0
    9.2087   16.9924   19.6305 C   0  0  0  0  0  0  0  0  0  0  0  0
    9.0252   17.2693   18.2860 C   0  0  0  0  0  0  0  0  0  0  0  0
    8.1423   18.2419   17.9473 C   0  0  0  0  0  0  0  0  0  0  0  0
    7.5844   19.0185   18.9376 C   0  0  0  0  0  0  0  0  0  0  0  0
    7.9675   18.8978   20.2405 C   0  0  0  0  0  0  0  0  0  0  0  0
    8.7087   17.8230   20.6094 C   0  0  0  0  0  0  0  0  0  0  0  0
   10.1186   15.3365   21.2097 N   0  0  0  0  0  0  0  0  0  0  0  0
    7.8112   11.8617   25.6542 C   0  0  0  0  0  0  0  0  0  0  0  0
    6.9852   12.4597   26.6161 C   0  0  0  0  0  0  0  0  0  0  0  0
    5.9956   11.6786   27.2036 C   0  0  0  0  0  0  0  0  0  0  0  0
    4.8548   12.4443   28.5036 Br  0  0  0  0  0  0  0  0  0  0  0  0
    5.8316   10.3420   26.8550 C   0  0  0  0  0  0  0  0  0  0  0  0
    6.6501    9.7459   25.8946 C   0  0  0  0  0  0  0  0  0  0  0  0
    7.6441   10.5230   25.3097 C   0  0  0  0  0  0  0  0  0  0  0  0
  1  2  1  0
  2  3  1  0
  3  4  2  0
  4  5  1  0
  5  6  2  0
  5  7  1  0
  7  8  1  0
  8  9  1  0
  9 10  1  0
  9 11  1  0
  9 12  1  0
 12 13  2  0
 13 14  1  0
 14 15  1  0
 15 16  1  0
 16 17  2  0
 17 18  1  0
 18 19  2  0
 19 20  1  0
 20 21  2  0
 15 22  2  0
  4 23  1  0
 23 24  2  0
 24 25  1  0
 25 26  1  0
 25 27  2  0
 27 28  1  0
 28 29  2  0
 29  2  1  0
 22 12  1  0
 29 23  1  0
 21 16  1  0
M  END
>  <energy_score>  (193) 
-2.32094

>  <inchikey>  (193) 
None

>  <smiles>  (193) 
None

>  <ref_pdb>  (193) 
A2290a

>  <alias>  (193) 
None

>  <HIPPO Pose ID>  (193) 
497929

>  <name>  (193) 
P497929

>  <HIPPO Compound ID>  (193) 
289871

>  <ref_mols>  (193) 
A2290a,A3436a

>  <distance_score>  (193) 
1.275325

>  <inspiration_score>  (193) 
None

$$$$
P497931
     RDKit          3D

 29 32  0  0  0  0  0  0  0  0999 V2000
    8.9947    8.9850   23.8177 C   0  0  0  0  0  0  0  0  0  0  0  0
    8.6203   10.2631   24.3769 N   0  0  0  0  0  0  0  0  0  0  0  0
    9.3397   11.3380   24.0432 N   0  0  0  0  0  0  0  0  0  0  0  0
    8.9320   12.2956   24.9100 C   0  0  0  0  0  0  0  0  0  0  0  0
    9.6821   13.5539   24.9998 C   0  0  0  0  0  0  0  0  0  0  0  0
    9.6415   14.3061   25.8827 O   0  0  0  0  0  0  0  0  0  0  0  0
   10.5433   13.5450   23.7562 N   0  0  0  0  0  0  0  0  0  0  0  0
   11.6043   14.3966   23.3639 C   0  0  0  0  0  0  0  0  0  0  0  0
   12.0884   14.1054   21.9627 C   0  0  0  0  0  0  0  0  0  0  0  0
   12.4434   12.6573   21.9546 C   0  0  0  0  0  0  0  0  0  0  0  0
   13.2831   14.9846   21.6952 C   0  0  0  0  0  0  0  0  0  0  0  0
   11.1483   14.4603   20.8937 C   0  0  0  0  0  0  0  0  0  0  0  0
   11.3865   14.3673   19.5427 C   0  0  0  0  0  0  0  0  0  0  0  0
   10.5390   15.1887   18.9276 O   0  0  0  0  0  0  0  0  0  0  0  0
    9.8905   15.7849   19.9474 C   0  0  0  0  0  0  0  0  0  0  0  0
    9.2190   16.9728   19.5854 C   0  0  0  0  0  0  0  0  0  0  0  0
    8.7338   17.7905   20.5847 C   0  0  0  0  0  0  0  0  0  0  0  0
    7.9911   18.8746   20.2468 C   0  0  0  0  0  0  0  0  0  0  0  0
    7.5913   19.0182   18.9511 C   0  0  0  0  0  0  0  0  0  0  0  0
    8.1305   18.2504   17.9423 C   0  0  0  0  0  0  0  0  0  0  0  0
    9.0124   17.2659   18.2505 C   0  0  0  0  0  0  0  0  0  0  0  0
   10.1154   15.2988   21.1410 N   0  0  0  0  0  0  0  0  0  0  0  0
    7.8459   11.8664   25.6808 C   0  0  0  0  0  0  0  0  0  0  0  0
    7.0409   12.4560   26.6637 C   0  0  0  0  0  0  0  0  0  0  0  0
    6.0524   11.6751   27.2444 C   0  0  0  0  0  0  0  0  0  0  0  0
    5.2687   12.2074   28.1919 F   0  0  0  0  0  0  0  0  0  0  0  0
    5.8620   10.3504   26.8779 C   0  0  0  0  0  0  0  0  0  0  0  0
    6.6607    9.7577   25.8997 C   0  0  0  0  0  0  0  0  0  0  0  0
    7.6577   10.5347   25.3162 C   0  0  0  0  0  0  0  0  0  0  0  0
  1  2  1  0
  2  3  1  0
  3  4  2  0
  4  5  1  0
  5  6  2  0
  5  7  1  0
  7  8  1  0
  8  9  1  0
  9 10  1  0
  9 11  1  0
  9 12  1  0
 12 13  2  0
 13 14  1  0
 14 15  1  0
 15 16  1  0
 16 17  2  0
 17 18  1  0
 18 19  2  0
 19 20  1  0
 20 21  2  0
 15 22  2  0
  4 23  1  0
 23 24  2  0
 24 25  1  0
 25 26  1  0
 25 27  2  0
 27 28  1  0
 28 29  2  0
 29  2  1  0
 22 12  1  0
 29 23  1  0
 21 16  1  0
M  END
>  <energy_score>  (194) 
-25.953507

>  <inchikey>  (194) 
None

>  <smiles>  (194) 
None

>  <ref_pdb>  (194) 
A2290a

>  <alias>  (194) 
None

>  <HIPPO Pose ID>  (194) 
497931

>  <name>  (194) 
P497931

>  <HIPPO Compound ID>  (194) 
289874

>  <ref_mols>  (194) 
A2290a,A3436a

>  <distance_score>  (194) 
1.274591

>  <inspiration_score>  (194) 
None

$$$$
P497933
     RDKit          3D

 30 33  0  0  0  0  0  0  0  0999 V2000
    9.1951    8.8257   23.2932 C   0  0  0  0  0  0  0  0  0  0  0  0
    9.0000   10.0641   24.0064 N   0  0  0  0  0  0  0  0  0  0  0  0
    9.8227   11.0794   23.7202 N   0  0  0  0  0  0  0  0  0  0  0  0
    9.4234   12.0707   24.5402 C   0  0  0  0  0  0  0  0  0  0  0  0
   10.1861   13.3133   24.6211 C   0  0  0  0  0  0  0  0  0  0  0  0
   10.0053   14.1214   25.4361 O   0  0  0  0  0  0  0  0  0  0  0  0
   11.1940   13.2675   23.4836 N   0  0  0  0  0  0  0  0  0  0  0  0
   12.2515   14.1478   23.1556 C   0  0  0  0  0  0  0  0  0  0  0  0
   12.6577   14.0760   21.7156 C   0  0  0  0  0  0  0  0  0  0  0  0
   11.6622   14.5533   20.7689 C   0  0  0  0  0  0  0  0  0  0  0  0
   11.7073   14.4078   19.4103 C   0  0  0  0  0  0  0  0  0  0  0  0
   10.6803   15.0877   18.8961 O   0  0  0  0  0  0  0  0  0  0  0  0
   10.1273   15.7019   19.9661 C   0  0  0  0  0  0  0  0  0  0  0  0
    9.3362   16.8356   19.6261 C   0  0  0  0  0  0  0  0  0  0  0  0
    9.1092   17.1601   18.2977 C   0  0  0  0  0  0  0  0  0  0  0  0
    8.2314   18.1560   17.9959 C   0  0  0  0  0  0  0  0  0  0  0  0
    7.7064   18.9109   19.0136 C   0  0  0  0  0  0  0  0  0  0  0  0
    6.7882   19.8182   18.7269 F   0  0  0  0  0  0  0  0  0  0  0  0
    8.0872   18.7427   20.3073 C   0  0  0  0  0  0  0  0  0  0  0  0
    8.8324   17.6448   20.6238 C   0  0  0  0  0  0  0  0  0  0  0  0
   10.6032   15.3320   21.1328 N   0  0  0  0  0  0  0  0  0  0  0  0
    8.2814   11.7170   25.2800 C   0  0  0  0  0  0  0  0  0  0  0  0
    7.4523   12.3785   26.2034 C   0  0  0  0  0  0  0  0  0  0  0  0
    6.4061   11.6515   26.7778 C   0  0  0  0  0  0  0  0  0  0  0  0
    5.5184   12.3075   27.7367 N   0  0  0  0  0  0  0  0  0  0  0  0
    5.9809   13.2557   28.3862 O   0  0  0  0  0  0  0  0  0  0  0  0
    4.3738   11.8485   27.8667 O   0  0  0  0  0  0  0  0  0  0  0  0
    6.2063   10.3031   26.4785 C   0  0  0  0  0  0  0  0  0  0  0  0
    7.0396    9.6533   25.5651 C   0  0  0  0  0  0  0  0  0  0  0  0
    8.0599   10.3819   24.9579 C   0  0  0  0  0  0  0  0  0  0  0  0
  1  2  1  0
  2  3  1  0
  3  4  2  0
  4  5  1  0
  5  6  2  0
  5  7  1  0
  7  8  1  0
  8  9  1  0
  9 10  1  0
 10 11  2  0
 11 12  1  0
 12 13  1  0
 13 14  1  0
 14 15  2  0
 15 16  1  0
 16 17  2  0
 17 18  1  0
 17 19  1  0
 19 20  2  0
 13 21  2  0
  4 22  1  0
 22 23  2  0
 23 24  1  0
 24 25  1  0
 25 26  2  0
 25 27  1  0
 24 28  2  0
 28 29  1  0
 29 30  2  0
 30  2  1  0
 21 10  1  0
 30 22  1  0
 20 14  1  0
M  CHG  2  25   1  27  -1
M  END
>  <energy_score>  (195) 
-10.927329

>  <inchikey>  (195) 
None

>  <smiles>  (195) 
None

>  <ref_pdb>  (195) 
A2290a

>  <alias>  (195) 
None

>  <HIPPO Pose ID>  (195) 
497933

>  <name>  (195) 
P497933

>  <HIPPO Compound ID>  (195) 
289883

>  <ref_mols>  (195) 
A2290a,A3436a

>  <distance_score>  (195) 
0.987896

>  <inspiration_score>  (195) 
None

$$$$
P497934
     RDKit          3D

 30 32  0  0  0  0  0  0  0  0999 V2000
    9.1645    8.9850   23.7182 C   0  0  0  0  0  0  0  0  0  0  0  0
    8.6420   10.2842   24.0748 N   0  0  0  0  0  0  0  0  0  0  0  0
    9.0298   11.3424   23.3554 N   0  0  0  0  0  0  0  0  0  0  0  0
    8.3347   12.3811   23.8722 C   0  0  0  0  0  0  0  0  0  0  0  0
    8.5235   13.7298   23.3171 C   0  0  0  0  0  0  0  0  0  0  0  0
    8.0188   14.6907   23.7261 O   0  0  0  0  0  0  0  0  0  0  0  0
    9.5602   13.5507   22.2194 N   0  0  0  0  0  0  0  0  0  0  0  0
   10.2833   14.5311   21.4385 C   0  0  2  0  0  0  0  0  0  0  0  0
    9.7274   14.8742   20.1035 C   0  0  0  0  0  0  0  0  0  0  0  0
    9.4817   16.3020   19.8828 C   0  0  0  0  0  0  0  0  0  0  0  0
    9.5690   16.9998   18.7039 C   0  0  0  0  0  0  0  0  0  0  0  0
    8.8947   18.1671   18.8632 O   0  0  0  0  0  0  0  0  0  0  0  0
    8.5014   18.1400   20.1676 C   0  0  0  0  0  0  0  0  0  0  0  0
    8.8629   17.0653   20.8317 N   0  0  0  0  0  0  0  0  0  0  0  0
   11.5697   13.7632   21.1917 C   0  0  0  0  0  0  0  0  0  0  0  0
   12.3528   13.9824   20.2710 O   0  0  0  0  0  0  0  0  0  0  0  0
   11.8071   12.8163   22.1943 O   0  0  0  0  0  0  0  0  0  0  0  0
   12.3783   13.3679   23.3816 C   0  0  0  0  0  0  0  0  0  0  0  0
   13.0438   12.2910   24.2160 C   0  0  0  0  0  0  0  0  0  0  0  0
   13.3324   14.3958   22.8697 C   0  0  0  0  0  0  0  0  0  0  0  0
   11.4144   13.9534   24.4148 C   0  0  0  0  0  0  0  0  0  0  0  0
    7.6197   11.9973   25.0195 C   0  0  0  0  0  0  0  0  0  0  0  0
    6.8355   12.6717   25.9685 C   0  0  0  0  0  0  0  0  0  0  0  0
    6.1413   11.8942   26.8986 C   0  0  0  0  0  0  0  0  0  0  0  0
    5.2725   12.5564   27.8659 N   0  0  0  0  0  0  0  0  0  0  0  0
    5.6399   13.6557   28.3022 O   0  0  0  0  0  0  0  0  0  0  0  0
    4.2426   11.9591   28.2119 O   0  0  0  0  0  0  0  0  0  0  0  0
    6.2273   10.5004   26.9070 C   0  0  0  0  0  0  0  0  0  0  0  0
    7.0474    9.8436   25.9897 C   0  0  0  0  0  0  0  0  0  0  0  0
    7.7613   10.6125   25.0750 C   0  0  0  0  0  0  0  0  0  0  0  0
  1  2  1  0
  2  3  1  0
  3  4  2  0
  4  5  1  0
  5  6  2  0
  5  7  1  0
  7  8  1  0
  8  9  1  6
  9 10  1  0
 10 11  2  0
 11 12  1  0
 12 13  1  0
 13 14  2  0
  8 15  1  0
 15 16  2  0
 15 17  1  0
 17 18  1  0
 18 19  1  0
 18 20  1  0
 18 21  1  0
  4 22  1  0
 22 23  2  0
 23 24  1  0
 24 25  1  0
 25 26  2  0
 25 27  1  0
 24 28  2  0
 28 29  1  0
 29 30  2  0
 30  2  1  0
 14 10  1  0
 30 22  1  0
M  CHG  2  25   1  27  -1
M  END
>  <energy_score>  (196) 
-21.844889

>  <inchikey>  (196) 
None

>  <smiles>  (196) 
None

>  <ref_pdb>  (196) 
A2290a

>  <alias>  (196) 
None

>  <HIPPO Pose ID>  (196) 
497934

>  <name>  (196) 
P497934

>  <HIPPO Compound ID>  (196) 
289885

>  <ref_mols>  (196) 
A2290a,A3436a

>  <distance_score>  (196) 
1.622746

>  <inspiration_score>  (196) 
None

$$$$
P497935
     RDKit          3D

 30 33  0  0  0  0  0  0  0  0999 V2000
    3.5376   12.2883   28.9178 C   0  0  0  0  0  0  0  0  0  0  0  0
    4.4082   11.6779   27.9645 O   0  0  0  0  0  0  0  0  0  0  0  0
    5.6247   12.2739   27.8783 C   0  0  0  0  0  0  0  0  0  0  0  0
    6.0075   13.2293   28.5337 O   0  0  0  0  0  0  0  0  0  0  0  0
    6.4549   11.6003   26.8507 C   0  0  0  0  0  0  0  0  0  0  0  0
    6.2590   10.2605   26.5135 C   0  0  0  0  0  0  0  0  0  0  0  0
    7.0683    9.6324   25.5621 C   0  0  0  0  0  0  0  0  0  0  0  0
    8.0745   10.3716   24.9461 C   0  0  0  0  0  0  0  0  0  0  0  0
    8.2991   11.7007   25.2875 C   0  0  0  0  0  0  0  0  0  0  0  0
    7.4892   12.3300   26.2511 C   0  0  0  0  0  0  0  0  0  0  0  0
    9.4285   12.0704   24.5327 C   0  0  0  0  0  0  0  0  0  0  0  0
   10.2120   13.3021   24.6276 C   0  0  0  0  0  0  0  0  0  0  0  0
   10.0590   14.0926   25.4663 O   0  0  0  0  0  0  0  0  0  0  0  0
   11.2496   13.2300   23.5149 N   0  0  0  0  0  0  0  0  0  0  0  0
   12.2567   14.1494   23.1344 C   0  0  0  0  0  0  0  0  0  0  0  0
   12.6298   14.0714   21.6854 C   0  0  0  0  0  0  0  0  0  0  0  0
   11.6247   14.5586   20.7533 C   0  0  0  0  0  0  0  0  0  0  0  0
   11.6605   14.4189   19.3936 C   0  0  0  0  0  0  0  0  0  0  0  0
   10.6418   15.1160   18.8875 O   0  0  0  0  0  0  0  0  0  0  0  0
   10.1004   15.7331   19.9613 C   0  0  0  0  0  0  0  0  0  0  0  0
    9.3093   16.8681   19.6226 C   0  0  0  0  0  0  0  0  0  0  0  0
    9.0691   17.1913   18.2961 C   0  0  0  0  0  0  0  0  0  0  0  0
    8.1907   18.1927   17.9980 C   0  0  0  0  0  0  0  0  0  0  0  0
    7.6592   18.9564   19.0116 C   0  0  0  0  0  0  0  0  0  0  0  0
    8.0632   18.7737   20.3023 C   0  0  0  0  0  0  0  0  0  0  0  0
    8.8119   17.6775   20.6193 C   0  0  0  0  0  0  0  0  0  0  0  0
   10.5803   15.3545   21.1254 N   0  0  0  0  0  0  0  0  0  0  0  0
    9.8224   11.0867   23.6997 N   0  0  0  0  0  0  0  0  0  0  0  0
    9.0060   10.0662   23.9830 N   0  0  0  0  0  0  0  0  0  0  0  0
    9.2108    8.8284   23.2702 C   0  0  0  0  0  0  0  0  0  0  0  0
  1  2  1  0
  2  3  1  0
  3  4  2  0
  3  5  1  0
  5  6  2  0
  6  7  1  0
  7  8  2  0
  8  9  1  0
  9 10  2  0
  9 11  1  0
 11 12  1  0
 12 13  2  0
 12 14  1  0
 14 15  1  0
 15 16  1  0
 16 17  1  0
 17 18  2  0
 18 19  1  0
 19 20  1  0
 20 21  1  0
 21 22  2  0
 22 23  1  0
 23 24  2  0
 24 25  1  0
 25 26  2  0
 20 27  2  0
 11 28  2  0
 28 29  1  0
 29 30  1  0
 10  5  1  0
 27 17  1  0
 29  8  1  0
 26 21  1  0
M  END
>  <energy_score>  (197) 
-26.88325

>  <inchikey>  (197) 
None

>  <smiles>  (197) 
None

>  <ref_pdb>  (197) 
A2290a

>  <alias>  (197) 
None

>  <HIPPO Pose ID>  (197) 
497935

>  <name>  (197) 
P497935

>  <HIPPO Compound ID>  (197) 
289892

>  <ref_mols>  (197) 
A2290a,A3436a

>  <distance_score>  (197) 
0.974508

>  <inspiration_score>  (197) 
None

$$$$
P497936
     RDKit          3D

 30 33  0  0  0  0  0  0  0  0999 V2000
   14.3771   11.9901   24.9248 C   0  0  0  0  0  0  0  0  0  0  0  0
   13.4850   12.5609   23.9456 O   0  0  0  0  0  0  0  0  0  0  0  0
   12.5639   13.4395   24.4004 C   0  0  0  0  0  0  0  0  0  0  0  0
   12.4067   13.6878   25.5963 O   0  0  0  0  0  0  0  0  0  0  0  0
   11.6594   14.0876   23.3526 C   0  0  1  0  0  0  0  0  0  0  0  0
   12.0131   13.9554   21.8730 C   0  0  0  0  0  0  0  0  0  0  0  0
   11.0664   14.7049   20.9885 C   0  0  0  0  0  0  0  0  0  0  0  0
   10.9688   14.7668   19.6169 C   0  0  0  0  0  0  0  0  0  0  0  0
    9.9866   15.6601   19.2952 O   0  0  0  0  0  0  0  0  0  0  0  0
    9.5520   16.1148   20.4944 C   0  0  0  0  0  0  0  0  0  0  0  0
   10.1223   15.5429   21.5271 N   0  0  0  0  0  0  0  0  0  0  0  0
   10.4053   13.4989   23.7424 N   0  0  0  0  0  0  0  0  0  0  0  0
    9.4464   13.8571   24.8937 C   0  0  0  0  0  0  0  0  0  0  0  0
    9.4813   14.7343   25.6619 O   0  0  0  0  0  0  0  0  0  0  0  0
    8.4587   12.7881   24.9413 C   0  0  0  0  0  0  0  0  0  0  0  0
    8.5481   11.8035   24.0366 N   0  0  0  0  0  0  0  0  0  0  0  0
    7.9690   10.7782   24.6512 N   0  0  0  0  0  0  0  0  0  0  0  0
    8.3986    9.4487   24.3151 C   0  0  0  0  0  0  0  0  0  0  0  0
    9.2488    9.4615   23.0693 C   0  0  2  0  0  0  0  0  0  0  0  0
    9.1492    8.1507   22.3727 C   0  0  0  0  0  0  0  0  0  0  0  0
   10.0089    7.4172   23.1777 N   0  0  0  0  0  0  0  0  0  0  0  0
   10.9860    8.2485   23.5727 C   0  0  0  0  0  0  0  0  0  0  0  0
   12.0319    7.8722   24.0244 O   0  0  0  0  0  0  0  0  0  0  0  0
   10.6106    9.5392   23.4531 O   0  0  0  0  0  0  0  0  0  0  0  0
    7.2214   11.1197   25.7326 C   0  0  0  0  0  0  0  0  0  0  0  0
    6.3964   10.3700   26.5683 C   0  0  0  0  0  0  0  0  0  0  0  0
    5.8583   11.0381   27.6645 C   0  0  0  0  0  0  0  0  0  0  0  0
    6.1611   12.3771   27.9180 C   0  0  0  0  0  0  0  0  0  0  0  0
    7.0123   13.1008   27.0801 C   0  0  0  0  0  0  0  0  0  0  0  0
    7.5285   12.4606   25.9504 C   0  0  0  0  0  0  0  0  0  0  0  0
  1  2  1  0
  2  3  1  0
  3  4  2  0
  3  5  1  0
  5  6  1  6
  6  7  1  0
  7  8  2  0
  8  9  1  0
  9 10  1  0
 10 11  2  0
  5 12  1  0
 12 13  1  0
 13 14  2  0
 13 15  1  0
 15 16  2  0
 16 17  1  0
 17 18  1  0
 19 18  1  1
 19 20  1  0
 20 21  1  0
 21 22  1  0
 22 23  2  0
 22 24  1  0
 17 25  1  0
 25 26  2  0
 26 27  1  0
 27 28  2  0
 28 29  1  0
 29 30  2  0
 11  7  1  0
 30 15  1  0
 24 19  1  0
 30 25  1  0
M  END
>  <energy_score>  (198) 
-35.463734

>  <inchikey>  (198) 
None

>  <smiles>  (198) 
None

>  <ref_pdb>  (198) 
A2290a

>  <alias>  (198) 
None

>  <HIPPO Pose ID>  (198) 
497936

>  <name>  (198) 
P497936

>  <HIPPO Compound ID>  (198) 
289894

>  <ref_mols>  (198) 
A2290a,A3436a

>  <distance_score>  (198) 
1.533607

>  <inspiration_score>  (198) 
None

$$$$
P497937
     RDKit          3D

 20 22  0  0  0  0  0  0  0  0999 V2000
   11.5557   13.0263   25.0874 N   0  0  0  0  0  0  0  0  0  0  0  0
   10.6004   12.7741   24.4735 C   0  0  0  0  0  0  0  0  0  0  0  0
    9.4007   12.4844   23.6460 C   0  0  2  0  0  0  0  0  0  0  0  0
    8.3086   13.5499   23.8622 C   0  0  0  0  0  0  0  0  0  0  0  0
    8.1126   14.5677   22.7411 C   0  0  0  0  0  0  0  0  0  0  0  0
    9.2398   15.3064   22.2351 N   0  0  0  0  0  0  0  0  0  0  0  0
   10.3340   15.7375   23.0786 C   0  0  0  0  0  0  0  0  0  0  0  0
   11.5807   15.3151   22.3230 C   0  0  0  0  0  0  0  0  0  0  0  0
   11.1551   15.4082   20.8755 C   0  0  0  0  0  0  0  0  0  0  0  0
    9.7169   14.9381   20.9096 C   0  0  0  0  0  0  0  0  0  0  0  0
    8.9366   11.1086   23.8509 N   0  0  0  0  0  0  0  0  0  0  0  0
    8.1756   10.7980   24.9102 C   0  0  0  0  0  0  0  0  0  0  0  0
    7.7063   11.6663   25.7625 N   0  0  0  0  0  0  0  0  0  0  0  0
    6.6724   11.0972   26.4631 C   0  0  0  0  0  0  0  0  0  0  0  0
    5.8037   11.9771   27.2793 C   0  0  0  0  0  0  0  0  0  0  0  0
    5.6362   13.3742   26.7433 C   0  0  0  0  0  0  0  0  0  0  0  0
    5.2012   14.4752   27.6699 C   0  0  0  0  0  0  0  0  0  0  0  0
    6.6009   14.4735   27.1171 C   0  0  0  0  0  0  0  0  0  0  0  0
    6.4883    9.7795   26.3897 N   0  0  0  0  0  0  0  0  0  0  0  0
    7.6118    9.2389   25.2757 S   0  0  0  0  0  0  0  0  0  0  0  0
  1  2  3  0
  3  2  1  1
  3  4  1  0
  4  5  1  0
  5  6  1  0
  6  7  1  0
  7  8  1  0
  8  9  1  0
  9 10  1  0
  3 11  1  0
 11 12  1  0
 12 13  2  0
 13 14  1  0
 14 15  1  0
 15 16  1  0
 16 17  1  0
 17 18  1  0
 14 19  2  0
 19 20  1  0
 10  6  1  0
 20 12  1  0
 18 16  1  0
M  END
>  <energy_score>  (199) 
-44.587799

>  <inchikey>  (199) 
None

>  <smiles>  (199) 
None

>  <ref_pdb>  (199) 
A4311a

>  <alias>  (199) 
None

>  <HIPPO Pose ID>  (199) 
497937

>  <name>  (199) 
P497937

>  <HIPPO Compound ID>  (199) 
289924

>  <ref_mols>  (199) 
A4311a,A1140a

>  <distance_score>  (199) 
1.233429

>  <inspiration_score>  (199) 
None

$$$$
P497940
     RDKit          3D

 22 25  0  0  0  0  0  0  0  0999 V2000
    9.6927   12.8345   25.7568 O   0  0  0  0  0  0  0  0  0  0  0  0
    9.2849   11.9130   25.0731 C   0  0  0  0  0  0  0  0  0  0  0  0
    9.8884   11.5154   23.7763 C   0  0  0  0  0  0  0  0  0  0  0  0
    9.7554    9.9996   23.8417 C   0  0  0  0  0  0  0  0  0  0  0  0
    8.4439    9.8388   24.5200 C   0  0  0  0  0  0  0  0  0  0  0  0
    8.2553   10.9921   25.3696 N   0  0  0  0  0  0  0  0  0  0  0  0
    6.8683   11.4503   25.4581 C   0  0  1  0  0  0  0  0  0  0  0  0
    6.2009   11.4419   26.8341 C   0  0  0  0  0  0  0  0  0  0  0  0
    6.1029   12.7878   27.5479 C   0  0  0  0  0  0  0  0  0  0  0  0
    5.8446   13.9742   26.6042 C   0  0  0  0  0  0  0  0  0  0  0  0
    6.8936   13.9231   25.5105 C   0  0  2  0  0  0  0  0  0  0  0  0
    6.9918   15.1168   24.6665 N   0  0  0  0  0  0  0  0  0  0  0  0
    8.2905   15.3430   24.3013 C   0  0  0  0  0  0  0  0  0  0  0  0
    8.8235   15.0879   23.1273 N   0  0  0  0  0  0  0  0  0  0  0  0
   10.2038   15.3834   23.2014 C   0  0  0  0  0  0  0  0  0  0  0  0
   11.1128   15.2976   22.0124 C   0  0  0  0  0  0  0  0  0  0  0  0
   10.5104   15.8924   20.7859 C   0  0  0  0  0  0  0  0  0  0  0  0
   10.7331   15.3082   19.4156 C   0  0  0  0  0  0  0  0  0  0  0  0
    9.4321   15.0993   20.1374 C   0  0  0  0  0  0  0  0  0  0  0  0
   10.7192   15.7636   24.3648 N   0  0  0  0  0  0  0  0  0  0  0  0
    9.4774   15.8856   25.4338 S   0  0  0  0  0  0  0  0  0  0  0  0
    6.6296   12.7087   24.6479 C   0  0  0  0  0  0  0  0  0  0  0  0
  1  2  2  0
  2  3  1  0
  3  4  1  0
  4  5  1  0
  5  6  1  0
  7  6  1  1
  7  8  1  0
  8  9  1  0
  9 10  1  0
 10 11  1  0
 11 12  1  6
 12 13  1  0
 13 14  2  0
 14 15  1  0
 15 16  1  0
 16 17  1  0
 17 18  1  0
 18 19  1  0
 15 20  2  0
 20 21  1  0
 11 22  1  0
  6  2  1  0
 22  7  1  0
 21 13  1  0
 19 17  1  0
M  END
>  <energy_score>  (200) 
-32.974618

>  <inchikey>  (200) 
None

>  <smiles>  (200) 
None

>  <ref_pdb>  (200) 
A4311a

>  <alias>  (200) 
None

>  <HIPPO Pose ID>  (200) 
497940

>  <name>  (200) 
P497940

>  <HIPPO Compound ID>  (200) 
289925

>  <ref_mols>  (200) 
A4311a,A1140a

>  <distance_score>  (200) 
1.839909

>  <inspiration_score>  (200) 
None

$$$$
P497942
     RDKit          3D

 23 25  0  0  0  0  0  0  0  0999 V2000
   11.6442   15.5674   25.4947 C   0  0  0  0  0  0  0  0  0  0  0  0
   10.5385   15.6750   24.4621 C   0  0  2  0  0  0  0  0  0  0  0  0
    9.7002   14.5225   24.5640 O   0  0  0  0  0  0  0  0  0  0  0  0
   10.1062   13.3052   24.1317 C   0  0  0  0  0  0  0  0  0  0  0  0
   11.2237   12.9593   23.8063 O   0  0  0  0  0  0  0  0  0  0  0  0
    8.9083   12.4411   24.2350 C   0  0  0  0  0  0  0  0  0  0  0  0
    9.0489   11.0431   24.2007 C   0  0  0  0  0  0  0  0  0  0  0  0
    8.0909   10.2304   24.8114 C   0  0  0  0  0  0  0  0  0  0  0  0
    7.0526   10.8522   25.4863 C   0  0  0  0  0  0  0  0  0  0  0  0
    6.8920   12.2433   25.3935 C   0  0  0  0  0  0  0  0  0  0  0  0
    7.7242   13.0341   24.6686 C   0  0  0  0  0  0  0  0  0  0  0  0
    5.8629   12.7870   26.2057 N   0  0  0  0  0  0  0  0  0  0  0  0
    5.8111   11.6791   27.4887 S   0  0  0  0  0  0  0  0  0  0  0  0
    4.5021   11.6807   28.0920 O   0  0  0  0  0  0  0  0  0  0  0  0
    7.0334   11.9399   28.2284 O   0  0  0  0  0  0  0  0  0  0  0  0
    6.0936   10.2359   26.4564 C   0  0  0  0  0  0  0  0  0  0  0  0
   10.8354   15.8773   23.0097 C   0  0  0  0  0  0  0  0  0  0  0  0
   12.0925   15.7092   22.4577 C   0  0  0  0  0  0  0  0  0  0  0  0
   12.1966   15.5715   21.0873 C   0  0  0  0  0  0  0  0  0  0  0  0
   11.0566   15.6142   20.3131 C   0  0  0  0  0  0  0  0  0  0  0  0
   11.2217   15.0826   18.5346 Br  0  0  0  0  0  0  0  0  0  0  0  0
    9.8399   15.9093   20.7908 N   0  0  0  0  0  0  0  0  0  0  0  0
    9.7604   16.0452   22.1254 C   0  0  0  0  0  0  0  0  0  0  0  0
  2  1  1  1
  2  3  1  0
  3  4  1  0
  4  5  2  0
  4  6  1  0
  6  7  2  0
  7  8  1  0
  8  9  2  0
  9 10  1  0
 10 11  2  0
 10 12  1  0
 12 13  1  0
 13 14  2  0
 13 15  2  0
 13 16  1  0
  2 17  1  0
 17 18  2  0
 18 19  1  0
 19 20  2  0
 20 21  1  0
 20 22  1  0
 22 23  2  0
 11  6  1  0
 23 17  1  0
 16  9  1  0
M  END
>  <energy_score>  (201) 
-0.662775

>  <inchikey>  (201) 
None

>  <smiles>  (201) 
None

>  <ref_pdb>  (201) 
A4274b

>  <alias>  (201) 
None

>  <HIPPO Pose ID>  (201) 
497942

>  <name>  (201) 
P497942

>  <HIPPO Compound ID>  (201) 
290101

>  <ref_mols>  (201) 
A4274b,A2513a

>  <distance_score>  (201) 
1.921819

>  <inspiration_score>  (201) 
None

$$$$
P497943
     RDKit          3D

 23 25  0  0  0  0  0  0  0  0999 V2000
   11.6205   15.5938   24.7730 C   0  0  0  0  0  0  0  0  0  0  0  0
   10.5544   15.6731   23.6899 C   0  0  2  0  0  0  0  0  0  0  0  0
    9.6980   14.5318   23.7682 O   0  0  0  0  0  0  0  0  0  0  0  0
   10.1917   13.2778   23.7131 C   0  0  0  0  0  0  0  0  0  0  0  0
   11.3412   12.9233   23.5444 O   0  0  0  0  0  0  0  0  0  0  0  0
    9.0479   12.3926   24.0062 C   0  0  0  0  0  0  0  0  0  0  0  0
    9.1996   10.9946   24.0020 C   0  0  0  0  0  0  0  0  0  0  0  0
    8.2694   10.1776   24.6521 C   0  0  0  0  0  0  0  0  0  0  0  0
    7.2282   10.7913   25.3250 C   0  0  0  0  0  0  0  0  0  0  0  0
    7.0672   12.1785   25.2306 C   0  0  0  0  0  0  0  0  0  0  0  0
    7.8974   12.9814   24.5209 C   0  0  0  0  0  0  0  0  0  0  0  0
    5.9651   12.7121   25.9378 N   0  0  0  0  0  0  0  0  0  0  0  0
    5.8257   11.6127   27.2291 S   0  0  0  0  0  0  0  0  0  0  0  0
    6.9659   11.8735   28.0876 O   0  0  0  0  0  0  0  0  0  0  0  0
    4.4575   11.5759   27.6833 O   0  0  0  0  0  0  0  0  0  0  0  0
    6.2360   10.1668   26.2522 C   0  0  0  0  0  0  0  0  0  0  0  0
   10.8768   15.8280   22.2411 C   0  0  0  0  0  0  0  0  0  0  0  0
   12.0499   15.3652   21.6750 C   0  0  0  0  0  0  0  0  0  0  0  0
   12.1121   15.1878   20.3023 C   0  0  0  0  0  0  0  0  0  0  0  0
   11.0306   15.5342   19.5298 C   0  0  0  0  0  0  0  0  0  0  0  0
   11.0921   15.2738   18.2232 F   0  0  0  0  0  0  0  0  0  0  0  0
    9.9160   16.0912   20.0209 N   0  0  0  0  0  0  0  0  0  0  0  0
    9.8625   16.2209   21.3624 C   0  0  0  0  0  0  0  0  0  0  0  0
  2  1  1  1
  2  3  1  0
  3  4  1  0
  4  5  2  0
  4  6  1  0
  6  7  2  0
  7  8  1  0
  8  9  2  0
  9 10  1  0
 10 11  2  0
 10 12  1  0
 12 13  1  0
 13 14  2  0
 13 15  2  0
 13 16  1  0
  2 17  1  0
 17 18  2  0
 18 19  1  0
 19 20  2  0
 20 21  1  0
 20 22  1  0
 22 23  2  0
 11  6  1  0
 23 17  1  0
 16  9  1  0
M  END
>  <energy_score>  (202) 
-11.505932

>  <inchikey>  (202) 
None

>  <smiles>  (202) 
None

>  <ref_pdb>  (202) 
A4274b

>  <alias>  (202) 
None

>  <HIPPO Pose ID>  (202) 
497943

>  <name>  (202) 
P497943

>  <HIPPO Compound ID>  (202) 
290102

>  <ref_mols>  (202) 
A4274b,A2513a

>  <distance_score>  (202) 
1.827066

>  <inspiration_score>  (202) 
None

$$$$
P497945
     RDKit          3D

 24 26  0  0  0  0  0  0  0  0999 V2000
    9.6844   16.3651   26.2813 C   0  0  0  0  0  0  0  0  0  0  0  0
   11.1324   16.0661   25.9100 C   0  0  0  0  0  0  0  0  0  0  0  0
   11.3288   15.1055   24.7341 C   0  0  1  0  0  0  0  0  0  0  0  0
   10.3700   14.0578   24.8832 O   0  0  0  0  0  0  0  0  0  0  0  0
   10.5527   12.9433   24.1325 C   0  0  0  0  0  0  0  0  0  0  0  0
   11.5997   12.5854   23.6398 O   0  0  0  0  0  0  0  0  0  0  0  0
    9.2518   12.2339   24.1384 C   0  0  0  0  0  0  0  0  0  0  0  0
    9.2285   10.8299   24.1117 C   0  0  0  0  0  0  0  0  0  0  0  0
    8.1753   10.1416   24.7149 C   0  0  0  0  0  0  0  0  0  0  0  0
    7.1941   10.8862   25.3483 C   0  0  0  0  0  0  0  0  0  0  0  0
    7.1747   12.2829   25.2062 C   0  0  0  0  0  0  0  0  0  0  0  0
    8.1260   12.9648   24.5103 C   0  0  0  0  0  0  0  0  0  0  0  0
    6.1688   12.9457   25.9552 N   0  0  0  0  0  0  0  0  0  0  0  0
    5.9535   11.8988   27.2722 S   0  0  0  0  0  0  0  0  0  0  0  0
    7.1470   12.0946   28.0747 O   0  0  0  0  0  0  0  0  0  0  0  0
    4.6180   12.0260   27.7997 O   0  0  0  0  0  0  0  0  0  0  0  0
    6.1781   10.3854   26.3283 C   0  0  0  0  0  0  0  0  0  0  0  0
   11.1914   15.6429   23.3267 C   0  0  0  0  0  0  0  0  0  0  0  0
   12.3174   15.6531   22.5165 C   0  0  0  0  0  0  0  0  0  0  0  0
   12.1770   15.6505   21.1409 C   0  0  0  0  0  0  0  0  0  0  0  0
   10.9130   15.7121   20.6010 C   0  0  0  0  0  0  0  0  0  0  0  0
   10.7548   15.4367   18.7575 Br  0  0  0  0  0  0  0  0  0  0  0  0
    9.8032   15.8678   21.3421 N   0  0  0  0  0  0  0  0  0  0  0  0
    9.9678   15.8369   22.6843 C   0  0  0  0  0  0  0  0  0  0  0  0
  1  2  1  0
  3  2  1  1
  3  4  1  0
  4  5  1  0
  5  6  2  0
  5  7  1  0
  7  8  2  0
  8  9  1  0
  9 10  2  0
 10 11  1  0
 11 12  2  0
 11 13  1  0
 13 14  1  0
 14 15  2  0
 14 16  2  0
 14 17  1  0
  3 18  1  0
 18 19  2  0
 19 20  1  0
 20 21  2  0
 21 22  1  0
 21 23  1  0
 23 24  2  0
 12  7  1  0
 24 18  1  0
 17 10  1  0
M  END
>  <energy_score>  (203) 
-8.003698

>  <inchikey>  (203) 
None

>  <smiles>  (203) 
None

>  <ref_pdb>  (203) 
A4274b

>  <alias>  (203) 
None

>  <HIPPO Pose ID>  (203) 
497945

>  <name>  (203) 
P497945

>  <HIPPO Compound ID>  (203) 
290117

>  <ref_mols>  (203) 
A4274b,A2513a

>  <distance_score>  (203) 
1.975525

>  <inspiration_score>  (203) 
None

$$$$
P497946
     RDKit          3D

 26 28  0  0  0  0  0  0  0  0999 V2000
    7.7924   12.9817   22.4760 O   0  0  0  0  0  0  0  0  0  0  0  0
    7.9135   13.3321   23.6336 C   0  0  0  0  0  0  0  0  0  0  0  0
    8.5357   14.4419   24.0911 O   0  0  0  0  0  0  0  0  0  0  0  0
    9.9683   14.4664   23.8673 C   0  0  2  0  0  0  0  0  0  0  0  0
   10.3705   14.9856   22.5177 C   0  0  0  0  0  0  0  0  0  0  0  0
   11.7170   15.1654   22.2067 C   0  0  0  0  0  0  0  0  0  0  0  0
   12.0709   15.3922   20.8940 C   0  0  0  0  0  0  0  0  0  0  0  0
   11.0704   15.4665   19.9547 C   0  0  0  0  0  0  0  0  0  0  0  0
   11.4496   15.3885   18.3151 Cl  0  0  0  0  0  0  0  0  0  0  0  0
    9.7641   15.4789   20.2316 N   0  0  0  0  0  0  0  0  0  0  0  0
    9.4407   15.2513   21.5133 C   0  0  0  0  0  0  0  0  0  0  0  0
   10.6458   13.1320   24.2760 C   0  0  0  0  0  0  0  0  0  0  0  0
   11.9950   13.2381   24.3436 F   0  0  0  0  0  0  0  0  0  0  0  0
   10.2424   12.8382   25.5325 F   0  0  0  0  0  0  0  0  0  0  0  0
   10.3506   12.0574   23.5273 F   0  0  0  0  0  0  0  0  0  0  0  0
    7.4732   12.5199   24.7618 C   0  0  0  0  0  0  0  0  0  0  0  0
    7.6911   11.1308   24.7113 C   0  0  0  0  0  0  0  0  0  0  0  0
    7.1440   10.3139   25.6920 C   0  0  0  0  0  0  0  0  0  0  0  0
    6.4403   10.9081   26.7307 C   0  0  0  0  0  0  0  0  0  0  0  0
    6.3547   12.3010   26.8086 C   0  0  0  0  0  0  0  0  0  0  0  0
    6.8331   13.1305   25.8289 C   0  0  0  0  0  0  0  0  0  0  0  0
    5.6624   12.8108   27.9280 N   0  0  0  0  0  0  0  0  0  0  0  0
    5.3511   11.4956   28.9751 S   0  0  0  0  0  0  0  0  0  0  0  0
    3.9461   11.5487   29.3084 O   0  0  0  0  0  0  0  0  0  0  0  0
    6.3924   11.4724   29.9810 O   0  0  0  0  0  0  0  0  0  0  0  0
    5.6643   10.1824   27.7864 C   0  0  0  0  0  0  0  0  0  0  0  0
  1  2  2  0
  2  3  1  0
  4  3  1  6
  4  5  1  0
  5  6  2  0
  6  7  1  0
  7  8  2  0
  8  9  1  0
  8 10  1  0
 10 11  2  0
  4 12  1  0
 12 13  1  0
 12 14  1  0
 12 15  1  0
  2 16  1  0
 16 17  2  0
 17 18  1  0
 18 19  2  0
 19 20  1  0
 20 21  2  0
 20 22  1  0
 22 23  1  0
 23 24  2  0
 23 25  2  0
 23 26  1  0
 11  5  1  0
 21 16  1  0
 26 19  1  0
M  END
>  <energy_score>  (204) 
-11.658282

>  <inchikey>  (204) 
None

>  <smiles>  (204) 
None

>  <ref_pdb>  (204) 
A4274b

>  <alias>  (204) 
None

>  <HIPPO Pose ID>  (204) 
497946

>  <name>  (204) 
P497946

>  <HIPPO Compound ID>  (204) 
290146

>  <ref_mols>  (204) 
A4274b,A2513a

>  <distance_score>  (204) 
1.943518

>  <inspiration_score>  (204) 
None

$$$$
P497947
     RDKit          3D

 26 28  0  0  0  0  0  0  0  0999 V2000
    7.8392   13.0180   22.5392 O   0  0  0  0  0  0  0  0  0  0  0  0
    7.9165   13.3365   23.7096 C   0  0  0  0  0  0  0  0  0  0  0  0
    8.5168   14.4327   24.2291 O   0  0  0  0  0  0  0  0  0  0  0  0
    9.9513   14.4849   24.0256 C   0  0  2  0  0  0  0  0  0  0  0  0
   10.3507   15.0855   22.7126 C   0  0  0  0  0  0  0  0  0  0  0  0
   11.6961   15.2460   22.3903 C   0  0  0  0  0  0  0  0  0  0  0  0
   12.0334   15.4668   21.0744 C   0  0  0  0  0  0  0  0  0  0  0  0
   11.0169   15.5490   20.1488 C   0  0  0  0  0  0  0  0  0  0  0  0
   11.4553   15.2702   18.3709 Br  0  0  0  0  0  0  0  0  0  0  0  0
    9.7184   15.6250   20.4566 N   0  0  0  0  0  0  0  0  0  0  0  0
    9.4092   15.4062   21.7385 C   0  0  0  0  0  0  0  0  0  0  0  0
   10.6309   13.1250   24.3343 C   0  0  0  0  0  0  0  0  0  0  0  0
   10.3756   12.1172   23.4863 F   0  0  0  0  0  0  0  0  0  0  0  0
   11.9755   13.2399   24.4583 F   0  0  0  0  0  0  0  0  0  0  0  0
   10.1879   12.7148   25.5416 F   0  0  0  0  0  0  0  0  0  0  0  0
    7.4394   12.4988   24.8021 C   0  0  0  0  0  0  0  0  0  0  0  0
    7.6746   11.1140   24.7322 C   0  0  0  0  0  0  0  0  0  0  0  0
    7.1237   10.2773   25.6937 C   0  0  0  0  0  0  0  0  0  0  0  0
    6.3991   10.8473   26.7323 C   0  0  0  0  0  0  0  0  0  0  0  0
    6.2922   12.2372   26.8273 C   0  0  0  0  0  0  0  0  0  0  0  0
    6.7732   13.0857   25.8666 C   0  0  0  0  0  0  0  0  0  0  0  0
    5.5801   12.7235   27.9443 N   0  0  0  0  0  0  0  0  0  0  0  0
    5.2721   11.3911   28.9698 S   0  0  0  0  0  0  0  0  0  0  0  0
    6.2979   11.3708   29.9915 O   0  0  0  0  0  0  0  0  0  0  0  0
    3.8614   11.4203   29.2814 O   0  0  0  0  0  0  0  0  0  0  0  0
    5.6224   10.0974   27.7705 C   0  0  0  0  0  0  0  0  0  0  0  0
  1  2  2  0
  2  3  1  0
  4  3  1  6
  4  5  1  0
  5  6  2  0
  6  7  1  0
  7  8  2  0
  8  9  1  0
  8 10  1  0
 10 11  2  0
  4 12  1  0
 12 13  1  0
 12 14  1  0
 12 15  1  0
  2 16  1  0
 16 17  2  0
 17 18  1  0
 18 19  2  0
 19 20  1  0
 20 21  2  0
 20 22  1  0
 22 23  1  0
 23 24  2  0
 23 25  2  0
 23 26  1  0
 11  5  1  0
 21 16  1  0
 26 19  1  0
M  END
>  <energy_score>  (205) 
-3.960814

>  <inchikey>  (205) 
None

>  <smiles>  (205) 
None

>  <ref_pdb>  (205) 
A4274b

>  <alias>  (205) 
None

>  <HIPPO Pose ID>  (205) 
497947

>  <name>  (205) 
P497947

>  <HIPPO Compound ID>  (205) 
290149

>  <ref_mols>  (205) 
A4274b,A2513a

>  <distance_score>  (205) 
1.954717

>  <inspiration_score>  (205) 
None

$$$$
P497948
     RDKit          3D

 26 28  0  0  0  0  0  0  0  0999 V2000
    9.6472   12.5399   22.6653 O   0  0  0  0  0  0  0  0  0  0  0  0
    9.4978   12.9135   23.8114 C   0  0  0  0  0  0  0  0  0  0  0  0
   10.2507   13.8059   24.5089 O   0  0  0  0  0  0  0  0  0  0  0  0
   11.6156   13.9799   23.9851 C   0  0  2  0  0  0  0  0  0  0  0  0
   11.5378   14.5990   22.6142 C   0  0  0  0  0  0  0  0  0  0  0  0
   11.8616   13.9644   21.4245 C   0  0  0  0  0  0  0  0  0  0  0  0
   11.6864   14.4639   20.1726 N   0  0  0  0  0  0  0  0  0  0  0  0
   11.0115   15.6145   20.0860 C   0  0  0  0  0  0  0  0  0  0  0  0
   10.5848   16.2871   21.2107 C   0  0  0  0  0  0  0  0  0  0  0  0
    9.4387   17.7408   21.0970 Br  0  0  0  0  0  0  0  0  0  0  0  0
   10.9089   15.8248   22.4769 C   0  0  0  0  0  0  0  0  0  0  0  0
   12.3971   12.6817   24.2800 C   0  0  0  0  0  0  0  0  0  0  0  0
   11.5801   11.6151   24.2570 F   0  0  0  0  0  0  0  0  0  0  0  0
   12.9739   12.7319   25.4919 F   0  0  0  0  0  0  0  0  0  0  0  0
   13.4320   12.3874   23.5051 F   0  0  0  0  0  0  0  0  0  0  0  0
    8.4734   12.3200   24.6523 C   0  0  0  0  0  0  0  0  0  0  0  0
    8.3586   10.9173   24.6085 C   0  0  0  0  0  0  0  0  0  0  0  0
    7.4459   10.2708   25.4297 C   0  0  0  0  0  0  0  0  0  0  0  0
    6.6682   11.0378   26.2836 C   0  0  0  0  0  0  0  0  0  0  0  0
    6.8038   12.4301   26.2957 C   0  0  0  0  0  0  0  0  0  0  0  0
    7.6803   13.1016   25.4764 C   0  0  0  0  0  0  0  0  0  0  0  0
    5.9173   13.1172   27.1549 N   0  0  0  0  0  0  0  0  0  0  0  0
    5.2255   11.9444   28.1968 S   0  0  0  0  0  0  0  0  0  0  0  0
    6.0134   11.9166   29.4113 O   0  0  0  0  0  0  0  0  0  0  0  0
    3.7981   12.1685   28.1955 O   0  0  0  0  0  0  0  0  0  0  0  0
    5.6320   10.4935   27.2140 C   0  0  0  0  0  0  0  0  0  0  0  0
  1  2  2  0
  2  3  1  0
  4  3  1  6
  4  5  1  0
  5  6  2  0
  6  7  1  0
  7  8  2  0
  8  9  1  0
  9 10  1  0
  9 11  2  0
  4 12  1  0
 12 13  1  0
 12 14  1  0
 12 15  1  0
  2 16  1  0
 16 17  2  0
 17 18  1  0
 18 19  2  0
 19 20  1  0
 20 21  2  0
 20 22  1  0
 22 23  1  0
 23 24  2  0
 23 25  2  0
 23 26  1  0
 11  5  1  0
 21 16  1  0
 26 19  1  0
M  END
>  <energy_score>  (206) 
-19.890939

>  <inchikey>  (206) 
None

>  <smiles>  (206) 
None

>  <ref_pdb>  (206) 
A4274b

>  <alias>  (206) 
None

>  <HIPPO Pose ID>  (206) 
497948

>  <name>  (206) 
P497948

>  <HIPPO Compound ID>  (206) 
290151

>  <ref_mols>  (206) 
A4274b,A2513a

>  <distance_score>  (206) 
1.879254

>  <inspiration_score>  (206) 
None

$$$$
P497949
     RDKit          3D

 24 27  0  0  0  0  0  0  0  0999 V2000
   23.9297   11.3108   -2.4748 C   0  0  0  0  0  0  0  0  0  0  0  0
   23.5036   12.5024   -1.8246 O   0  0  0  0  0  0  0  0  0  0  0  0
   23.9619   12.7232   -0.5556 C   0  0  0  0  0  0  0  0  0  0  0  0
   24.8596   11.9002    0.1225 C   0  0  0  0  0  0  0  0  0  0  0  0
   25.1860   12.1748    1.4455 C   0  0  0  0  0  0  0  0  0  0  0  0
   24.5917   13.2523    2.0987 C   0  0  0  0  0  0  0  0  0  0  0  0
   23.7277   14.1270    1.4114 C   0  0  0  0  0  0  0  0  0  0  0  0
   23.4457   13.8794    0.0594 C   0  0  0  0  0  0  0  0  0  0  0  0
   22.5856   14.8221   -0.7642 C   0  0  0  0  0  0  0  0  0  0  0  0
   22.3168   16.2244   -0.2010 C   0  0  0  0  0  0  0  0  0  0  0  0
   23.0056   16.5158    1.1103 C   0  0  0  0  0  0  0  0  0  0  0  0
   23.0773   15.3273    2.0769 C   0  0  2  0  0  0  0  0  0  0  0  0
   23.9308   15.8255    3.1202 O   0  0  0  0  0  0  0  0  0  0  0  0
   21.6992   14.9920    2.7210 C   0  0  0  0  0  0  0  0  0  0  0  0
   20.5826   14.5411    1.8985 N   0  0  0  0  0  0  0  0  0  0  0  0
   19.4784   13.5014    2.1896 C   0  0  0  0  0  0  0  0  0  0  0  0
   19.2445   12.9004    3.1597 O   0  0  0  0  0  0  0  0  0  0  0  0
   18.5851   13.3790    0.9571 C   0  0  1  0  0  0  0  0  0  0  0  0
   17.6400   12.1488    0.9520 C   0  0  0  0  0  0  0  0  0  0  0  0
   16.2596   12.7858    0.9053 C   0  0  1  0  0  0  0  0  0  0  0  0
   15.9218   13.4576    2.2324 C   0  0  0  0  0  0  0  0  0  0  0  0
   16.7863   14.7149    2.1896 C   0  0  0  0  0  0  0  0  0  0  0  0
   17.5707   14.5180    0.8920 C   0  0  2  0  0  0  0  0  0  0  0  0
   16.5330   13.9252    0.0639 O   0  0  0  0  0  0  0  0  0  0  0  0
  1  2  1  0
  2  3  1  0
  3  4  2  0
  4  5  1  0
  5  6  2  0
  6  7  1  0
  7  8  2  0
  8  9  1  0
  9 10  1  0
 10 11  1  0
 11 12  1  0
 12 13  1  1
 12 14  1  0
 14 15  1  0
 15 16  1  0
 16 17  2  0
 18 16  1  1
 18 19  1  0
 20 19  1  1
 20 21  1  0
 21 22  1  0
 23 22  1  1
 23 24  1  0
  8  3  1  0
 23 18  1  0
 12  7  1  0
 24 20  1  0
M  END
>  <energy_score>  (207) 
-15.338723

>  <inchikey>  (207) 
None

>  <smiles>  (207) 
None

>  <ref_pdb>  (207) 
A0239a

>  <alias>  (207) 
None

>  <HIPPO Pose ID>  (207) 
497949

>  <name>  (207) 
P497949

>  <HIPPO Compound ID>  (207) 
290288

>  <ref_mols>  (207) 
A0239a,A0608a

>  <distance_score>  (207) 
1.89674

>  <inspiration_score>  (207) 
None

$$$$
P497956
     RDKit          3D

 24 27  0  0  0  0  0  0  0  0999 V2000
   14.5018    9.7310   -1.3507 C   0  0  0  0  0  0  0  0  0  0  0  0
   14.7608   10.8267   -0.4817 O   0  0  0  0  0  0  0  0  0  0  0  0
   16.0745   11.1320   -0.2231 C   0  0  0  0  0  0  0  0  0  0  0  0
   17.1588   10.4083   -0.7110 C   0  0  0  0  0  0  0  0  0  0  0  0
   18.4502   10.7876   -0.3734 C   0  0  0  0  0  0  0  0  0  0  0  0
   18.6655   11.8835    0.4632 C   0  0  0  0  0  0  0  0  0  0  0  0
   17.6094   12.6493    0.9721 C   0  0  0  0  0  0  0  0  0  0  0  0
   16.2950   12.2663    0.5970 C   0  0  0  0  0  0  0  0  0  0  0  0
   15.0826   13.0309    1.0768 C   0  0  0  0  0  0  0  0  0  0  0  0
   15.4022   14.4202    1.5929 C   0  0  0  0  0  0  0  0  0  0  0  0
   16.5832   14.3540    2.5405 C   0  0  0  0  0  0  0  0  0  0  0  0
   17.8745   13.9046    1.8155 C   0  0  2  0  0  0  0  0  0  0  0  0
   18.2264   14.9857    0.9440 O   0  0  0  0  0  0  0  0  0  0  0  0
   18.9400   13.7729    2.9496 C   0  0  0  0  0  0  0  0  0  0  0  0
   20.3376   14.0938    2.7212 N   0  0  0  0  0  0  0  0  0  0  0  0
   21.1406   14.2117    1.4005 C   0  0  0  0  0  0  0  0  0  0  0  0
   20.7850   14.1448    0.2912 O   0  0  0  0  0  0  0  0  0  0  0  0
   22.5902   14.5236    1.8084 C   0  0  1  0  0  0  0  0  0  0  0  0
   23.5715   14.4442    0.6214 C   0  0  0  0  0  0  0  0  0  0  0  0
   23.9815   15.9175    0.4526 C   0  0  1  0  0  0  0  0  0  0  0  0
   22.7589   16.7087    0.8815 C   0  0  0  0  0  0  0  0  0  0  0  0
   22.7019   16.0057    2.2294 C   0  0  2  0  0  0  0  0  0  0  0  0
   24.1240   16.2769    2.7172 C   0  0  0  0  0  0  0  0  0  0  0  0
   24.9190   16.2065    1.5134 O   0  0  0  0  0  0  0  0  0  0  0  0
  1  2  1  0
  2  3  1  0
  3  4  2  0
  4  5  1  0
  5  6  2  0
  6  7  1  0
  7  8  2  0
  8  9  1  0
  9 10  1  0
 10 11  1  0
 11 12  1  0
 12 13  1  6
 12 14  1  0
 14 15  1  0
 15 16  1  0
 16 17  2  0
 18 16  1  6
 18 19  1  0
 20 19  1  1
 20 21  1  0
 21 22  1  0
 22 23  1  1
 23 24  1  0
  8  3  1  0
 22 18  1  0
 12  7  1  0
 24 20  1  0
M  END
>  <energy_score>  (208) 
-29.897738

>  <inchikey>  (208) 
None

>  <smiles>  (208) 
None

>  <ref_pdb>  (208) 
A0239a

>  <alias>  (208) 
None

>  <HIPPO Pose ID>  (208) 
497956

>  <name>  (208) 
P497956

>  <HIPPO Compound ID>  (208) 
290291

>  <ref_mols>  (208) 
A0239a,A0608a

>  <distance_score>  (208) 
1.550559

>  <inspiration_score>  (208) 
None

$$$$
P497960
     RDKit          3D

 24 27  0  0  0  0  0  0  0  0999 V2000
   13.9062   17.5433    4.2380 C   0  0  0  0  0  0  0  0  0  0  0  0
   15.1855   16.9695    4.0043 O   0  0  0  0  0  0  0  0  0  0  0  0
   15.2197   15.8046    3.2907 C   0  0  0  0  0  0  0  0  0  0  0  0
   14.1228   15.0496    2.9000 C   0  0  0  0  0  0  0  0  0  0  0  0
   14.3090   13.8706    2.1757 C   0  0  0  0  0  0  0  0  0  0  0  0
   15.5961   13.4277    1.8316 C   0  0  0  0  0  0  0  0  0  0  0  0
   16.7210   14.1642    2.2433 C   0  0  0  0  0  0  0  0  0  0  0  0
   16.4994   15.3697    2.9434 C   0  0  0  0  0  0  0  0  0  0  0  0
   18.1443   13.7553    1.8520 C   0  0  1  0  0  0  0  0  0  0  0  0
   18.5106   14.7031    0.8411 O   0  0  0  0  0  0  0  0  0  0  0  0
   19.1066   13.8635    3.0773 C   0  0  0  0  0  0  0  0  0  0  0  0
   20.5139   14.1134    2.8396 N   0  0  0  0  0  0  0  0  0  0  0  0
   21.3659   13.9286    1.5600 C   0  0  0  0  0  0  0  0  0  0  0  0
   21.0505   13.6199    0.4806 O   0  0  0  0  0  0  0  0  0  0  0  0
   22.7956   14.3488    1.9427 C   0  0  1  0  0  0  0  0  0  0  0  0
   23.7950   14.1772    0.7804 C   0  0  0  0  0  0  0  0  0  0  0  0
   24.1339   15.6389    0.4354 C   0  0  1  0  0  0  0  0  0  0  0  0
   22.8701   16.4151    0.7606 C   0  0  0  0  0  0  0  0  0  0  0  0
   22.8371   15.8785    2.1832 C   0  0  2  0  0  0  0  0  0  0  0  0
   24.2393   16.2742    2.6402 C   0  0  0  0  0  0  0  0  0  0  0  0
   25.0461   16.1047    1.4551 O   0  0  0  0  0  0  0  0  0  0  0  0
   18.1956   12.3270    1.2616 C   0  0  0  0  0  0  0  0  0  0  0  0
   17.0528   12.0745    0.2869 C   0  0  0  0  0  0  0  0  0  0  0  0
   15.7240   12.1630    1.0215 C   0  0  0  0  0  0  0  0  0  0  0  0
  1  2  1  0
  2  3  1  0
  3  4  2  0
  4  5  1  0
  5  6  2  0
  6  7  1  0
  7  8  2  0
  7  9  1  0
  9 10  1  6
  9 11  1  0
 11 12  1  0
 12 13  1  0
 13 14  2  0
 15 13  1  6
 15 16  1  0
 17 16  1  1
 17 18  1  0
 18 19  1  0
 19 20  1  1
 20 21  1  0
  9 22  1  0
 22 23  1  0
 23 24  1  0
  8  3  1  0
 19 15  1  0
 24  6  1  0
 21 17  1  0
M  END
>  <energy_score>  (209) 
-18.756726

>  <inchikey>  (209) 
None

>  <smiles>  (209) 
None

>  <ref_pdb>  (209) 
A0239a

>  <alias>  (209) 
None

>  <HIPPO Pose ID>  (209) 
497960

>  <name>  (209) 
P497960

>  <HIPPO Compound ID>  (209) 
290292

>  <ref_mols>  (209) 
A0239a,A0608a

>  <distance_score>  (209) 
1.473425

>  <inspiration_score>  (209) 
None

$$$$
P497963
     RDKit          3D

 25 27  0  0  0  0  0  0  0  0999 V2000
   23.9921   10.7571   -2.3612 C   0  0  0  0  0  0  0  0  0  0  0  0
   24.6905   10.8923   -1.1292 O   0  0  0  0  0  0  0  0  0  0  0  0
   24.5642   12.0703   -0.4699 C   0  0  0  0  0  0  0  0  0  0  0  0
   24.8892   12.0375    0.8816 C   0  0  0  0  0  0  0  0  0  0  0  0
   24.6414   13.1348    1.6862 C   0  0  0  0  0  0  0  0  0  0  0  0
   24.0750   14.2896    1.1290 C   0  0  0  0  0  0  0  0  0  0  0  0
   23.9332   14.3819   -0.2655 C   0  0  0  0  0  0  0  0  0  0  0  0
   24.1538   13.2538   -1.0552 C   0  0  0  0  0  0  0  0  0  0  0  0
   23.4207   15.6380   -0.9345 C   0  0  0  0  0  0  0  0  0  0  0  0
   23.4816   16.8770   -0.0411 C   0  0  0  0  0  0  0  0  0  0  0  0
   22.8454   16.5652    1.3014 C   0  0  0  0  0  0  0  0  0  0  0  0
   23.6143   15.4327    2.0155 C   0  0  2  0  0  0  0  0  0  0  0  0
   24.8049   16.0706    2.5204 O   0  0  0  0  0  0  0  0  0  0  0  0
   22.7941   14.9378    3.2320 C   0  0  0  0  0  0  0  0  0  0  0  0
   21.3744   14.6483    3.0916 N   0  0  0  0  0  0  0  0  0  0  0  0
   20.5693   14.1282    1.8744 C   0  0  0  0  0  0  0  0  0  0  0  0
   20.9060   13.9254    0.7773 O   0  0  0  0  0  0  0  0  0  0  0  0
   19.1175   14.0105    2.3632 C   0  0  0  0  0  0  0  0  0  0  0  0
   18.1536   13.6166    1.2241 C   0  0  1  0  0  0  0  0  0  0  0  0
   18.2267   12.1077    0.9712 C   0  0  0  0  0  0  0  0  0  0  0  0
   16.7271   14.1441    1.5073 C   0  0  1  0  0  0  0  0  0  0  0  0
   15.8448   14.2738    0.2700 C   0  0  0  0  0  0  0  0  0  0  0  0
   15.0526   12.9957    0.2329 C   0  0  0  0  0  0  0  0  0  0  0  0
   15.0224   12.5603    1.6773 C   0  0  0  0  0  0  0  0  0  0  0  0
   16.0190   13.2888    2.4117 O   0  0  0  0  0  0  0  0  0  0  0  0
  1  2  1  0
  2  3  1  0
  3  4  2  0
  4  5  1  0
  5  6  2  0
  6  7  1  0
  7  8  2  0
  7  9  1  0
  9 10  1  0
 10 11  1  0
 11 12  1  0
 12 13  1  1
 12 14  1  0
 14 15  1  0
 15 16  1  0
 16 17  2  0
 16 18  1  0
 18 19  1  0
 19 20  1  1
 19 21  1  0
 21 22  1  6
 22 23  1  0
 23 24  1  0
 24 25  1  0
  8  3  1  0
 25 21  1  0
 12  6  1  0
M  END
>  <energy_score>  (210) 
-33.480355

>  <inchikey>  (210) 
None

>  <smiles>  (210) 
None

>  <ref_pdb>  (210) 
A0239a

>  <alias>  (210) 
None

>  <HIPPO Pose ID>  (210) 
497963

>  <name>  (210) 
P497963

>  <HIPPO Compound ID>  (210) 
290303

>  <ref_mols>  (210) 
A0239a,A0608a

>  <distance_score>  (210) 
1.913811

>  <inspiration_score>  (210) 
None

$$$$
P497965
     RDKit          3D

 25 28  0  0  0  0  0  0  0  0999 V2000
   13.9500   17.2822    4.4038 C   0  0  0  0  0  0  0  0  0  0  0  0
   15.2476   16.7212    4.2487 O   0  0  0  0  0  0  0  0  0  0  0  0
   15.3404   15.6045    3.4659 C   0  0  0  0  0  0  0  0  0  0  0  0
   14.2811   14.8112    3.0500 C   0  0  0  0  0  0  0  0  0  0  0  0
   14.5188   13.6830    2.2646 C   0  0  0  0  0  0  0  0  0  0  0  0
   15.8208   13.3409    1.8681 C   0  0  0  0  0  0  0  0  0  0  0  0
   16.9097   14.1335    2.2795 C   0  0  0  0  0  0  0  0  0  0  0  0
   16.6362   15.2673    3.0739 C   0  0  0  0  0  0  0  0  0  0  0  0
   18.3216   13.8943    1.7360 C   0  0  1  0  0  0  0  0  0  0  0  0
   18.4209   14.8980    0.7177 O   0  0  0  0  0  0  0  0  0  0  0  0
   19.4188   14.1139    2.8254 C   0  0  0  0  0  0  0  0  0  0  0  0
   20.8142   14.2231    2.4259 N   0  0  0  0  0  0  0  0  0  0  0  0
   21.4465   14.5843    1.0489 C   0  0  0  0  0  0  0  0  0  0  0  0
   20.9425   14.7726    0.0097 O   0  0  0  0  0  0  0  0  0  0  0  0
   22.9707   14.7878    1.2577 C   0  0  1  0  0  0  0  0  0  0  0  0
   23.7104   13.1990    1.5975 Cl  0  0  0  0  0  0  0  0  0  0  0  0
   23.6660   15.4474    0.0434 C   0  0  0  0  0  0  0  0  0  0  0  0
   24.1417   16.7780    0.6311 C   0  0  1  0  0  0  0  0  0  0  0  0
   22.9680   17.6970    0.9726 C   0  0  0  0  0  0  0  0  0  0  0  0
   22.4404   17.0748    2.2630 C   0  0  0  0  0  0  0  0  0  0  0  0
   23.2933   15.8083    2.3722 C   0  0  2  0  0  0  0  0  0  0  0  0
   24.5693   16.3515    1.9400 O   0  0  0  0  0  0  0  0  0  0  0  0
   18.4727   12.4951    1.1070 C   0  0  0  0  0  0  0  0  0  0  0  0
   17.2947   12.1491    0.2033 C   0  0  0  0  0  0  0  0  0  0  0  0
   16.0046   12.1161    1.0089 C   0  0  0  0  0  0  0  0  0  0  0  0
  1  2  1  0
  2  3  1  0
  3  4  2  0
  4  5  1  0
  5  6  2  0
  6  7  1  0
  7  8  2  0
  7  9  1  0
  9 10  1  6
  9 11  1  0
 11 12  1  0
 12 13  1  0
 13 14  2  0
 13 15  1  0
 15 16  1  1
 15 17  1  0
 18 17  1  6
 18 19  1  0
 19 20  1  0
 21 20  1  6
 21 22  1  0
  9 23  1  0
 23 24  1  0
 24 25  1  0
  8  3  1  0
 21 15  1  0
 25  6  1  0
 22 18  1  0
M  END
>  <energy_score>  (211) 
-31.950254

>  <inchikey>  (211) 
None

>  <smiles>  (211) 
None

>  <ref_pdb>  (211) 
A0239a

>  <alias>  (211) 
None

>  <HIPPO Pose ID>  (211) 
497965

>  <name>  (211) 
P497965

>  <HIPPO Compound ID>  (211) 
290304

>  <ref_mols>  (211) 
A0239a,A0608a

>  <distance_score>  (211) 
1.382142

>  <inspiration_score>  (211) 
None

$$$$
P497968
     RDKit          3D

 25 27  0  0  0  0  0  0  0  0999 V2000
   21.8824   12.2446   -1.2431 C   0  0  0  0  0  0  0  0  0  0  0  0
   23.2063   12.6658   -1.5848 O   0  0  0  0  0  0  0  0  0  0  0  0
   23.8890   12.9439   -0.4352 C   0  0  0  0  0  0  0  0  0  0  0  0
   24.7351   11.9765    0.0940 C   0  0  0  0  0  0  0  0  0  0  0  0
   25.2767   12.1775    1.3553 C   0  0  0  0  0  0  0  0  0  0  0  0
   24.9283   13.3192    2.0795 C   0  0  0  0  0  0  0  0  0  0  0  0
   24.1270   14.3289    1.5032 C   0  0  0  0  0  0  0  0  0  0  0  0
   23.6695   14.1726    0.1934 C   0  0  0  0  0  0  0  0  0  0  0  0
   22.9148   15.2568   -0.5477 C   0  0  0  0  0  0  0  0  0  0  0  0
   22.9004   16.6623    0.0603 C   0  0  0  0  0  0  0  0  0  0  0  0
   23.6695   16.7961    1.3542 C   0  0  0  0  0  0  0  0  0  0  0  0
   23.6653   15.5563    2.2588 C   0  0  2  0  0  0  0  0  0  0  0  0
   24.6101   15.8952    3.2767 O   0  0  0  0  0  0  0  0  0  0  0  0
   22.2956   15.3243    2.9581 C   0  0  0  0  0  0  0  0  0  0  0  0
   21.1048   15.1137    2.1537 N   0  0  0  0  0  0  0  0  0  0  0  0
   19.9703   14.0661    2.2904 C   0  0  0  0  0  0  0  0  0  0  0  0
   19.7792   13.2625    3.1136 O   0  0  0  0  0  0  0  0  0  0  0  0
   19.0658   14.2675    1.0773 C   0  0  0  0  0  0  0  0  0  0  0  0
   17.9429   13.2233    0.9011 C   0  0  1  0  0  0  0  0  0  0  0  0
   18.4606   11.7919    0.8125 C   0  0  0  0  0  0  0  0  0  0  0  0
   16.8086   13.3831    1.9314 C   0  0  2  0  0  0  0  0  0  0  0  0
   15.6826   12.3674    1.8049 C   0  0  0  0  0  0  0  0  0  0  0  0
   14.8713   12.8954    0.6525 C   0  0  0  0  0  0  0  0  0  0  0  0
   14.9895   14.3903    0.8603 C   0  0  0  0  0  0  0  0  0  0  0  0
   16.1480   14.6397    1.6790 O   0  0  0  0  0  0  0  0  0  0  0  0
  1  2  1  0
  2  3  1  0
  3  4  2  0
  4  5  1  0
  5  6  2  0
  6  7  1  0
  7  8  2  0
  8  9  1  0
  9 10  1  0
 10 11  1  0
 11 12  1  0
 12 13  1  1
 12 14  1  0
 14 15  1  0
 15 16  1  0
 16 17  2  0
 16 18  1  0
 18 19  1  0
 19 20  1  1
 19 21  1  0
 21 22  1  6
 22 23  1  0
 23 24  1  0
 24 25  1  0
  8  3  1  0
 25 21  1  0
 12  7  1  0
M  END
>  <energy_score>  (212) 
-30.324853

>  <inchikey>  (212) 
None

>  <smiles>  (212) 
None

>  <ref_pdb>  (212) 
A0239a

>  <alias>  (212) 
None

>  <HIPPO Pose ID>  (212) 
497968

>  <name>  (212) 
P497968

>  <HIPPO Compound ID>  (212) 
290305

>  <ref_mols>  (212) 
A0239a,A0608a

>  <distance_score>  (212) 
1.910764

>  <inspiration_score>  (212) 
None

$$$$
P497970
     RDKit          3D

 25 27  0  0  0  0  0  0  0  0999 V2000
   23.3770   11.2031   -2.4365 C   0  0  0  0  0  0  0  0  0  0  0  0
   23.0129   12.2548   -1.5511 O   0  0  0  0  0  0  0  0  0  0  0  0
   23.8668   12.5294   -0.5192 C   0  0  0  0  0  0  0  0  0  0  0  0
   24.9608   11.7421   -0.1580 C   0  0  0  0  0  0  0  0  0  0  0  0
   25.7295   12.0807    0.9523 C   0  0  0  0  0  0  0  0  0  0  0  0
   25.4052   13.2050    1.7070 C   0  0  0  0  0  0  0  0  0  0  0  0
   24.3274   14.0306    1.3383 C   0  0  0  0  0  0  0  0  0  0  0  0
   23.5639   13.6931    0.2065 C   0  0  0  0  0  0  0  0  0  0  0  0
   22.3798   14.5479   -0.1870 C   0  0  0  0  0  0  0  0  0  0  0  0
   22.5441   16.0466    0.0737 C   0  0  0  0  0  0  0  0  0  0  0  0
   23.4995   16.4127    1.1960 C   0  0  0  0  0  0  0  0  0  0  0  0
   23.9354   15.2672    2.1256 C   0  0  2  0  0  0  0  0  0  0  0  0
   25.1038   15.8102    2.7637 O   0  0  0  0  0  0  0  0  0  0  0  0
   22.8784   14.9440    3.2105 C   0  0  0  0  0  0  0  0  0  0  0  0
   21.4794   14.9626    2.8388 N   0  0  0  0  0  0  0  0  0  0  0  0
   20.3011   14.0972    3.3294 C   0  0  0  0  0  0  0  0  0  0  0  0
   20.2849   13.1828    4.0523 O   0  0  0  0  0  0  0  0  0  0  0  0
   18.9766   14.5115    2.6851 C   0  0  1  0  0  0  0  0  0  0  0  0
   18.8645   15.9351    2.1879 C   0  0  0  0  0  0  0  0  0  0  0  0
   18.6445   13.4505    1.6364 C   0  0  0  0  0  0  0  0  0  0  0  0
   17.2623   13.5440    1.0210 C   0  0  2  0  0  0  0  0  0  0  0  0
   16.1040   13.4967    2.0048 C   0  0  0  0  0  0  0  0  0  0  0  0
   15.0489   12.7842    1.1975 C   0  0  0  0  0  0  0  0  0  0  0  0
   15.8766   11.7512    0.4686 C   0  0  0  0  0  0  0  0  0  0  0  0
   17.1148   12.3985    0.1589 O   0  0  0  0  0  0  0  0  0  0  0  0
  1  2  1  0
  2  3  1  0
  3  4  2  0
  4  5  1  0
  5  6  2  0
  6  7  1  0
  7  8  2  0
  8  9  1  0
  9 10  1  0
 10 11  1  0
 11 12  1  0
 12 13  1  1
 12 14  1  0
 14 15  1  0
 15 16  1  0
 16 17  2  0
 16 18  1  0
 18 19  1  6
 18 20  1  0
 21 20  1  1
 21 22  1  0
 22 23  1  0
 23 24  1  0
 24 25  1  0
  8  3  1  0
 25 21  1  0
 12  7  1  0
M  END
>  <energy_score>  (213) 
-16.65896

>  <inchikey>  (213) 
None

>  <smiles>  (213) 
None

>  <ref_pdb>  (213) 
A0239a

>  <alias>  (213) 
None

>  <HIPPO Pose ID>  (213) 
497970

>  <name>  (213) 
P497970

>  <HIPPO Compound ID>  (213) 
290306

>  <ref_mols>  (213) 
A0239a,A0608a

>  <distance_score>  (213) 
1.615824

>  <inspiration_score>  (213) 
None

$$$$
P497972
     RDKit          3D

 25 28  0  0  0  0  0  0  0  0999 V2000
   23.7084   11.1327   -2.4990 C   0  0  0  0  0  0  0  0  0  0  0  0
   23.1806   12.1962   -1.7155 O   0  0  0  0  0  0  0  0  0  0  0  0
   23.8477   12.5243   -0.5698 C   0  0  0  0  0  0  0  0  0  0  0  0
   24.9637   11.8497   -0.0716 C   0  0  0  0  0  0  0  0  0  0  0  0
   25.5216   12.2267    1.1474 C   0  0  0  0  0  0  0  0  0  0  0  0
   24.9680   13.2817    1.8691 C   0  0  0  0  0  0  0  0  0  0  0  0
   23.8773   14.0066    1.3540 C   0  0  0  0  0  0  0  0  0  0  0  0
   23.3172   13.6210    0.1258 C   0  0  0  0  0  0  0  0  0  0  0  0
   22.0820   14.3374   -0.3747 C   0  0  0  0  0  0  0  0  0  0  0  0
   22.0903   15.8487   -0.1269 C   0  0  0  0  0  0  0  0  0  0  0  0
   22.8110   16.2920    1.1326 C   0  0  0  0  0  0  0  0  0  0  0  0
   23.2237   15.1671    2.0914 C   0  0  2  0  0  0  0  0  0  0  0  0
   24.2006   15.8092    2.9310 O   0  0  0  0  0  0  0  0  0  0  0  0
   22.0644   14.6590    2.9954 C   0  0  0  0  0  0  0  0  0  0  0  0
   20.6658   14.8550    2.6124 N   0  0  0  0  0  0  0  0  0  0  0  0
   19.4437   13.9065    2.7407 C   0  0  0  0  0  0  0  0  0  0  0  0
   19.3819   12.7986    3.0996 O   0  0  0  0  0  0  0  0  0  0  0  0
   18.1680   14.6597    2.3136 C   0  0  2  0  0  0  0  0  0  0  0  0
   16.8667   13.9495    2.8059 C   0  0  0  0  0  0  0  0  0  0  0  0
   16.1695   13.0578    1.7757 C   0  0  2  0  0  0  0  0  0  0  0  0
   16.9723   11.8685    1.2810 C   0  0  0  0  0  0  0  0  0  0  0  0
   17.8347   12.4427    0.1768 C   0  0  0  0  0  0  0  0  0  0  0  0
   17.3276   13.8726    0.0281 C   0  0  2  0  0  0  0  0  0  0  0  0
   18.1517   14.8997    0.8019 C   0  0  0  0  0  0  0  0  0  0  0  0
   16.0118   13.8625    0.6039 O   0  0  0  0  0  0  0  0  0  0  0  0
  1  2  1  0
  2  3  1  0
  3  4  2  0
  4  5  1  0
  5  6  2  0
  6  7  1  0
  7  8  2  0
  8  9  1  0
  9 10  1  0
 10 11  1  0
 11 12  1  0
 12 13  1  1
 12 14  1  0
 14 15  1  0
 15 16  1  0
 16 17  2  0
 18 16  1  6
 18 19  1  0
 20 19  1  1
 20 21  1  0
 21 22  1  0
 23 22  1  1
 23 24  1  0
 23 25  1  0
  8  3  1  0
 24 18  1  0
 12  7  1  0
 25 20  1  0
M  END
>  <energy_score>  (214) 
-27.362721

>  <inchikey>  (214) 
None

>  <smiles>  (214) 
None

>  <ref_pdb>  (214) 
A0239a

>  <alias>  (214) 
None

>  <HIPPO Pose ID>  (214) 
497972

>  <name>  (214) 
P497972

>  <HIPPO Compound ID>  (214) 
290308

>  <ref_mols>  (214) 
A0239a,A0608a

>  <distance_score>  (214) 
1.966433

>  <inspiration_score>  (214) 
None

$$$$
P497973
     RDKit          3D

 25 28  0  0  0  0  0  0  0  0999 V2000
   25.5926   11.8274   -2.6816 C   0  0  0  0  0  0  0  0  0  0  0  0
   25.1441   13.0034   -2.0186 O   0  0  0  0  0  0  0  0  0  0  0  0
   25.2257   13.0116   -0.6574 C   0  0  0  0  0  0  0  0  0  0  0  0
   25.7889   12.0106    0.1305 C   0  0  0  0  0  0  0  0  0  0  0  0
   25.6507   12.0618    1.5150 C   0  0  0  0  0  0  0  0  0  0  0  0
   24.8296   13.0266    2.0963 C   0  0  0  0  0  0  0  0  0  0  0  0
   24.2290   14.0046    1.2908 C   0  0  0  0  0  0  0  0  0  0  0  0
   24.5976   14.1024   -0.0591 C   0  0  0  0  0  0  0  0  0  0  0  0
   24.1415   15.2968   -0.8777 C   0  0  0  0  0  0  0  0  0  0  0  0
   23.8032   16.4960    0.0154 C   0  0  0  0  0  0  0  0  0  0  0  0
   22.8264   16.1569    1.1354 C   0  0  0  0  0  0  0  0  0  0  0  0
   22.8955   14.6948    1.6078 C   0  0  2  0  0  0  0  0  0  0  0  0
   22.6154   14.7199    2.9953 O   0  0  0  0  0  0  0  0  0  0  0  0
   21.8660   13.7968    0.8348 C   0  0  0  0  0  0  0  0  0  0  0  0
   20.4521   13.9242    1.0295 N   0  0  0  0  0  0  0  0  0  0  0  0
   19.2911   12.9864    0.6125 C   0  0  0  0  0  0  0  0  0  0  0  0
   19.3133   11.9315    0.1158 O   0  0  0  0  0  0  0  0  0  0  0  0
   17.9743   13.6821    0.9172 C   0  0  2  0  0  0  0  0  0  0  0  0
   17.8855   14.2457    2.3411 C   0  0  0  0  0  0  0  0  0  0  0  0
   16.6606   13.5442    2.8992 C   0  0  1  0  0  0  0  0  0  0  0  0
   15.3532   14.0130    2.2741 C   0  0  0  0  0  0  0  0  0  0  0  0
   15.5245   13.3405    0.9428 C   0  0  0  0  0  0  0  0  0  0  0  0
   14.6976   13.3823    0.0447 O   0  0  0  0  0  0  0  0  0  0  0  0
   16.8543   12.6337    0.9095 C   0  0  2  0  0  0  0  0  0  0  0  0
   16.8030   12.2379    2.3159 O   0  0  0  0  0  0  0  0  0  0  0  0
  1  2  1  0
  2  3  1  0
  3  4  2  0
  4  5  1  0
  5  6  2  0
  6  7  1  0
  7  8  2  0
  8  9  1  0
  9 10  1  0
 10 11  1  0
 11 12  1  0
 12 13  1  1
 12 14  1  0
 14 15  1  0
 15 16  1  0
 16 17  2  0
 18 16  1  1
 18 19  1  0
 20 19  1  6
 20 21  1  0
 21 22  1  0
 22 23  2  0
 24 22  1  1
 24 25  1  0
  8  3  1  0
 24 18  1  0
 12  7  1  0
 25 20  1  0
M  END
>  <energy_score>  (215) 
-3.412752

>  <inchikey>  (215) 
None

>  <smiles>  (215) 
None

>  <ref_pdb>  (215) 
A0239a

>  <alias>  (215) 
None

>  <HIPPO Pose ID>  (215) 
497973

>  <name>  (215) 
P497973

>  <HIPPO Compound ID>  (215) 
290311

>  <ref_mols>  (215) 
A0239a,A0608a

>  <distance_score>  (215) 
1.873206

>  <inspiration_score>  (215) 
None

$$$$
P497975
     RDKit          3D

 25 27  0  0  0  0  0  0  0  0999 V2000
   24.0626   11.1210   -2.4977 C   0  0  0  0  0  0  0  0  0  0  0  0
   23.7492   12.3754   -1.9049 O   0  0  0  0  0  0  0  0  0  0  0  0
   24.2197   12.6073   -0.6435 C   0  0  0  0  0  0  0  0  0  0  0  0
   25.0175   11.7339    0.0901 C   0  0  0  0  0  0  0  0  0  0  0  0
   25.3612   12.0444    1.4017 C   0  0  0  0  0  0  0  0  0  0  0  0
   24.8591   13.1987    1.9974 C   0  0  0  0  0  0  0  0  0  0  0  0
   24.0657   14.1037    1.2646 C   0  0  0  0  0  0  0  0  0  0  0  0
   23.8331   13.8397   -0.0944 C   0  0  0  0  0  0  0  0  0  0  0  0
   23.1887   14.8740   -0.9970 C   0  0  0  0  0  0  0  0  0  0  0  0
   23.3310   16.2921   -0.4454 C   0  0  0  0  0  0  0  0  0  0  0  0
   22.7285   16.3043    0.9389 C   0  0  0  0  0  0  0  0  0  0  0  0
   23.5128   15.3752    1.9035 C   0  0  2  0  0  0  0  0  0  0  0  0
   24.6359   16.1777    2.3175 O   0  0  0  0  0  0  0  0  0  0  0  0
   22.6375   15.0700    3.1567 C   0  0  0  0  0  0  0  0  0  0  0  0
   21.2170   15.3293    2.9746 N   0  0  0  0  0  0  0  0  0  0  0  0
   20.0241   14.3545    2.8814 C   0  0  0  0  0  0  0  0  0  0  0  0
   19.9825   13.1980    3.0125 O   0  0  0  0  0  0  0  0  0  0  0  0
   18.7931   15.1622    2.4966 C   0  0  0  0  0  0  0  0  0  0  0  0
   17.9696   14.3785    1.4726 C   0  0  0  0  0  0  0  0  0  0  0  0
   17.1710   13.2155    2.0818 C   0  0  2  0  0  0  0  0  0  0  0  0
   17.3977   11.9012    1.3518 C   0  0  0  0  0  0  0  0  0  0  0  0
   16.5410   12.0473    0.1171 C   0  0  0  0  0  0  0  0  0  0  0  0
   15.4233   12.9846    0.5625 C   0  0  1  0  0  0  0  0  0  0  0  0
   14.0635   12.3178    0.6102 C   0  0  0  0  0  0  0  0  0  0  0  0
   15.7645   13.4712    1.8785 O   0  0  0  0  0  0  0  0  0  0  0  0
  1  2  1  0
  2  3  1  0
  3  4  2  0
  4  5  1  0
  5  6  2  0
  6  7  1  0
  7  8  2  0
  8  9  1  0
  9 10  1  0
 10 11  1  0
 11 12  1  0
 12 13  1  1
 12 14  1  0
 14 15  1  0
 15 16  1  0
 16 17  2  0
 16 18  1  0
 18 19  1  0
 20 19  1  6
 20 21  1  0
 21 22  1  0
 22 23  1  0
 23 24  1  1
 23 25  1  0
  8  3  1  0
 25 20  1  0
 12  7  1  0
M  END
>  <energy_score>  (216) 
-28.631216

>  <inchikey>  (216) 
None

>  <smiles>  (216) 
None

>  <ref_pdb>  (216) 
A0239a

>  <alias>  (216) 
None

>  <HIPPO Pose ID>  (216) 
497975

>  <name>  (216) 
P497975

>  <HIPPO Compound ID>  (216) 
290312

>  <ref_mols>  (216) 
A0239a,A0608a

>  <distance_score>  (216) 
1.618711

>  <inspiration_score>  (216) 
None

$$$$
P497978
     RDKit          3D

 25 28  0  0  0  0  0  0  0  0999 V2000
   13.8137   17.4099    4.2649 C   0  0  0  0  0  0  0  0  0  0  0  0
   15.1073   16.8674    4.0348 O   0  0  0  0  0  0  0  0  0  0  0  0
   15.1739   15.7160    3.3016 C   0  0  0  0  0  0  0  0  0  0  0  0
   14.0970   14.9544    2.8717 C   0  0  0  0  0  0  0  0  0  0  0  0
   14.3151   13.7869    2.1388 C   0  0  0  0  0  0  0  0  0  0  0  0
   15.6152   13.3681    1.8151 C   0  0  0  0  0  0  0  0  0  0  0  0
   16.7212   14.1194    2.2522 C   0  0  0  0  0  0  0  0  0  0  0  0
   16.4670   15.3060    2.9737 C   0  0  0  0  0  0  0  0  0  0  0  0
   18.1539   13.7490    1.8539 C   0  0  1  0  0  0  0  0  0  0  0  0
   18.4775   14.7075    0.8381 O   0  0  0  0  0  0  0  0  0  0  0  0
   19.1228   13.9046    3.0658 C   0  0  0  0  0  0  0  0  0  0  0  0
   20.5510   13.9744    2.8291 N   0  0  0  0  0  0  0  0  0  0  0  0
   21.3532   13.9617    1.5032 C   0  0  0  0  0  0  0  0  0  0  0  0
   20.9926   13.8156    0.4031 O   0  0  0  0  0  0  0  0  0  0  0  0
   22.8042   14.3007    1.8827 C   0  0  1  0  0  0  0  0  0  0  0  0
   23.7701   14.1907    0.6863 C   0  0  0  0  0  0  0  0  0  0  0  0
   24.1368   15.6705    0.4373 C   0  0  1  0  0  0  0  0  0  0  0  0
   24.6874   15.9694   -0.9357 C   0  0  0  0  0  0  0  0  0  0  0  0
   22.8988   16.4521    0.8531 C   0  0  0  0  0  0  0  0  0  0  0  0
   22.8889   15.8085    2.2324 C   0  0  2  0  0  0  0  0  0  0  0  0
   24.3111   16.1380    2.6801 C   0  0  0  0  0  0  0  0  0  0  0  0
   25.0852   16.0402    1.4650 O   0  0  0  0  0  0  0  0  0  0  0  0
   18.2429   12.3219    1.2703 C   0  0  0  0  0  0  0  0  0  0  0  0
   17.1155   12.0426    0.2848 C   0  0  0  0  0  0  0  0  0  0  0  0
   15.7760   12.1095    1.0012 C   0  0  0  0  0  0  0  0  0  0  0  0
  1  2  1  0
  2  3  1  0
  3  4  2  0
  4  5  1  0
  5  6  2  0
  6  7  1  0
  7  8  2  0
  7  9  1  0
  9 10  1  6
  9 11  1  0
 11 12  1  0
 12 13  1  0
 13 14  2  0
 15 13  1  6
 15 16  1  0
 16 17  1  0
 17 18  1  6
 17 19  1  0
 19 20  1  0
 20 21  1  6
 21 22  1  0
  9 23  1  0
 23 24  1  0
 24 25  1  0
  8  3  1  0
 20 15  1  0
 25  6  1  0
 22 17  1  0
M  END
>  <energy_score>  (217) 
-23.763616

>  <inchikey>  (217) 
None

>  <smiles>  (217) 
None

>  <ref_pdb>  (217) 
A0239a

>  <alias>  (217) 
None

>  <HIPPO Pose ID>  (217) 
497978

>  <name>  (217) 
P497978

>  <HIPPO Compound ID>  (217) 
290313

>  <ref_mols>  (217) 
A0239a,A0608a

>  <distance_score>  (217) 
1.478359

>  <inspiration_score>  (217) 
None

$$$$
P497981
     RDKit          3D

 25 28  0  0  0  0  0  0  0  0999 V2000
   23.9448   11.3512   -2.4968 C   0  0  0  0  0  0  0  0  0  0  0  0
   23.6147   12.5879   -1.8749 O   0  0  0  0  0  0  0  0  0  0  0  0
   24.0633   12.7845   -0.6000 C   0  0  0  0  0  0  0  0  0  0  0  0
   24.8683   11.8983    0.1124 C   0  0  0  0  0  0  0  0  0  0  0  0
   25.1770   12.1591    1.4434 C   0  0  0  0  0  0  0  0  0  0  0  0
   24.6310   13.2727    2.0778 C   0  0  0  0  0  0  0  0  0  0  0  0
   23.8482   14.1989    1.3618 C   0  0  0  0  0  0  0  0  0  0  0  0
   23.6392   13.9840   -0.0075 C   0  0  0  0  0  0  0  0  0  0  0  0
   22.9662   15.0510   -0.8436 C   0  0  0  0  0  0  0  0  0  0  0  0
   23.2721   16.4426   -0.2917 C   0  0  0  0  0  0  0  0  0  0  0  0
   22.7555   16.5711    1.1249 C   0  0  0  0  0  0  0  0  0  0  0  0
   23.1892   15.3966    2.0422 C   0  0  2  0  0  0  0  0  0  0  0  0
   24.1369   15.9830    2.9418 O   0  0  0  0  0  0  0  0  0  0  0  0
   21.9401   14.9326    2.8400 C   0  0  0  0  0  0  0  0  0  0  0  0
   20.7970   14.4827    2.0519 N   0  0  0  0  0  0  0  0  0  0  0  0
   19.6121   13.5757    2.4354 C   0  0  0  0  0  0  0  0  0  0  0  0
   19.3217   13.1083    3.4600 O   0  0  0  0  0  0  0  0  0  0  0  0
   18.7791   13.3421    1.1759 C   0  0  1  0  0  0  0  0  0  0  0  0
   17.8446   12.1073    1.2223 C   0  0  0  0  0  0  0  0  0  0  0  0
   16.4759   12.7138    0.9227 C   0  0  2  0  0  0  0  0  0  0  0  0
   15.4596   11.7067    0.4658 C   0  0  0  0  0  0  0  0  0  0  0  0
   16.8195   13.8293   -0.0462 C   0  0  0  0  0  0  0  0  0  0  0  0
   17.7773   14.4821    0.9406 C   0  0  1  0  0  0  0  0  0  0  0  0
   16.8340   14.6255    2.1401 C   0  0  0  0  0  0  0  0  0  0  0  0
   16.0383   13.4189    2.1072 O   0  0  0  0  0  0  0  0  0  0  0  0
  1  2  1  0
  2  3  1  0
  3  4  2  0
  4  5  1  0
  5  6  2  0
  6  7  1  0
  7  8  2  0
  8  9  1  0
  9 10  1  0
 10 11  1  0
 11 12  1  0
 12 13  1  1
 12 14  1  0
 14 15  1  0
 15 16  1  0
 16 17  2  0
 18 16  1  1
 18 19  1  0
 19 20  1  0
 20 21  1  6
 20 22  1  0
 22 23  1  0
 23 24  1  1
 24 25  1  0
  8  3  1  0
 23 18  1  0
 12  7  1  0
 25 20  1  0
M  END
>  <energy_score>  (218) 
-33.210045

>  <inchikey>  (218) 
None

>  <smiles>  (218) 
None

>  <ref_pdb>  (218) 
A0239a

>  <alias>  (218) 
None

>  <HIPPO Pose ID>  (218) 
497981

>  <name>  (218) 
P497981

>  <HIPPO Compound ID>  (218) 
290314

>  <ref_mols>  (218) 
A0239a,A0608a

>  <distance_score>  (218) 
1.96554

>  <inspiration_score>  (218) 
None

$$$$
P497982
     RDKit          3D

 25 28  0  0  0  0  0  0  0  0999 V2000
   23.7427   11.1178   -2.5260 C   0  0  0  0  0  0  0  0  0  0  0  0
   23.2791   12.2420   -1.7880 O   0  0  0  0  0  0  0  0  0  0  0  0
   23.9152   12.5304   -0.6138 C   0  0  0  0  0  0  0  0  0  0  0  0
   24.9754   11.7985   -0.0776 C   0  0  0  0  0  0  0  0  0  0  0  0
   25.4928   12.1335    1.1701 C   0  0  0  0  0  0  0  0  0  0  0  0
   24.9499   13.1992    1.8828 C   0  0  0  0  0  0  0  0  0  0  0  0
   23.9196   13.9838    1.3294 C   0  0  0  0  0  0  0  0  0  0  0  0
   23.4097   13.6496    0.0669 C   0  0  0  0  0  0  0  0  0  0  0  0
   22.2482   14.4313   -0.5039 C   0  0  0  0  0  0  0  0  0  0  0  0
   22.2335   15.9252   -0.1715 C   0  0  0  0  0  0  0  0  0  0  0  0
   22.9406   16.3145    1.1118 C   0  0  0  0  0  0  0  0  0  0  0  0
   23.3012   15.1620    2.0598 C   0  0  2  0  0  0  0  0  0  0  0  0
   24.2950   15.7602    2.9143 O   0  0  0  0  0  0  0  0  0  0  0  0
   22.1151   14.7237    2.9576 C   0  0  0  0  0  0  0  0  0  0  0  0
   20.7455   14.6973    2.4544 N   0  0  0  0  0  0  0  0  0  0  0  0
   19.5118   13.8832    2.9314 C   0  0  0  0  0  0  0  0  0  0  0  0
   19.4233   13.0544    3.7483 O   0  0  0  0  0  0  0  0  0  0  0  0
   18.2329   14.3431    2.1483 C   0  0  2  0  0  0  0  0  0  0  0  0
   18.1169   15.8732    2.1322 C   0  0  0  0  0  0  0  0  0  0  0  0
   16.9186   13.7219    2.7402 C   0  0  0  0  0  0  0  0  0  0  0  0
   16.4506   12.7812    1.6342 C   0  0  1  0  0  0  0  0  0  0  0  0
   15.8704   13.5959    0.4880 C   0  0  0  0  0  0  0  0  0  0  0  0
   17.1329   14.1805   -0.1452 C   0  0  0  0  0  0  0  0  0  0  0  0
   18.2383   13.6614    0.7708 C   0  0  2  0  0  0  0  0  0  0  0  0
   17.7031   12.3463    1.0752 O   0  0  0  0  0  0  0  0  0  0  0  0
  1  2  1  0
  2  3  1  0
  3  4  2  0
  4  5  1  0
  5  6  2  0
  6  7  1  0
  7  8  2  0
  8  9  1  0
  9 10  1  0
 10 11  1  0
 11 12  1  0
 12 13  1  1
 12 14  1  0
 14 15  1  0
 15 16  1  0
 16 17  2  0
 16 18  1  0
 18 19  1  6
 18 20  1  0
 21 20  1  1
 21 22  1  0
 22 23  1  0
 24 23  1  6
 24 25  1  0
  8  3  1  0
 24 18  1  0
 12  7  1  0
 25 21  1  0
M  END
>  <energy_score>  (219) 
-12.091218

>  <inchikey>  (219) 
None

>  <smiles>  (219) 
None

>  <ref_pdb>  (219) 
A0239a

>  <alias>  (219) 
None

>  <HIPPO Pose ID>  (219) 
497982

>  <name>  (219) 
P497982

>  <HIPPO Compound ID>  (219) 
290315

>  <ref_mols>  (219) 
A0239a,A0608a

>  <distance_score>  (219) 
1.981763

>  <inspiration_score>  (219) 
None

$$$$
P497986
     RDKit          3D

 25 28  0  0  0  0  0  0  0  0999 V2000
   16.5197    9.4006   -2.5004 C   0  0  0  0  0  0  0  0  0  0  0  0
   17.8025    9.6994   -1.9532 O   0  0  0  0  0  0  0  0  0  0  0  0
   17.8152   10.6667   -0.9887 C   0  0  0  0  0  0  0  0  0  0  0  0
   19.0401   11.2775   -0.7653 C   0  0  0  0  0  0  0  0  0  0  0  0
   19.1635   12.3067    0.1761 C   0  0  0  0  0  0  0  0  0  0  0  0
   18.0666   12.7667    0.9193 C   0  0  0  0  0  0  0  0  0  0  0  0
   16.8230   12.1394    0.6774 C   0  0  0  0  0  0  0  0  0  0  0  0
   16.7192   11.0758   -0.2405 C   0  0  0  0  0  0  0  0  0  0  0  0
   15.5579   12.5523    1.3822 C   0  0  0  0  0  0  0  0  0  0  0  0
   15.6258   13.9602    1.9408 C   0  0  0  0  0  0  0  0  0  0  0  0
   16.9115   14.1219    2.7342 C   0  0  0  0  0  0  0  0  0  0  0  0
   18.1728   13.9859    1.8377 C   0  0  2  0  0  0  0  0  0  0  0  0
   18.1673   15.1637    1.0178 O   0  0  0  0  0  0  0  0  0  0  0  0
   19.3682   14.0625    2.8403 C   0  0  0  0  0  0  0  0  0  0  0  0
   20.7358   14.2209    2.3837 N   0  0  0  0  0  0  0  0  0  0  0  0
   21.2964   14.8471    1.0792 C   0  0  0  0  0  0  0  0  0  0  0  0
   20.7405   15.2607    0.1393 O   0  0  0  0  0  0  0  0  0  0  0  0
   22.8390   14.9309    1.2220 C   0  0  1  0  0  0  0  0  0  0  0  0
   23.4843   13.5365    1.3238 C   0  0  0  0  0  0  0  0  0  0  0  0
   23.4837   15.7123    0.0394 C   0  0  0  0  0  0  0  0  0  0  0  0
   24.0698   16.9382    0.7397 C   0  0  1  0  0  0  0  0  0  0  0  0
   22.9671   17.8747    1.2301 C   0  0  0  0  0  0  0  0  0  0  0  0
   22.4524   17.1401    2.4645 C   0  0  0  0  0  0  0  0  0  0  0  0
   23.2438   15.8320    2.4108 C   0  0  2  0  0  0  0  0  0  0  0  0
   24.5281   16.3449    1.9741 O   0  0  0  0  0  0  0  0  0  0  0  0
  1  2  1  0
  2  3  1  0
  3  4  2  0
  4  5  1  0
  5  6  2  0
  6  7  1  0
  7  8  2  0
  7  9  1  0
  9 10  1  0
 10 11  1  0
 11 12  1  0
 12 13  1  6
 12 14  1  0
 14 15  1  0
 15 16  1  0
 16 17  2  0
 16 18  1  0
 18 19  1  1
 18 20  1  0
 21 20  1  6
 21 22  1  0
 22 23  1  0
 24 23  1  6
 24 25  1  0
  8  3  1  0
 24 18  1  0
 12  6  1  0
 25 21  1  0
M  END
>  <energy_score>  (220) 
-26.123856

>  <inchikey>  (220) 
None

>  <smiles>  (220) 
None

>  <ref_pdb>  (220) 
A0239a

>  <alias>  (220) 
None

>  <HIPPO Pose ID>  (220) 
497986

>  <name>  (220) 
P497986

>  <HIPPO Compound ID>  (220) 
290316

>  <ref_mols>  (220) 
A0239a,A0608a

>  <distance_score>  (220) 
1.372729

>  <inspiration_score>  (220) 
None

$$$$
P497989
     RDKit          3D

 25 28  0  0  0  0  0  0  0  0999 V2000
   16.8070    9.5064   -2.8348 C   0  0  0  0  0  0  0  0  0  0  0  0
   18.0332    9.7897   -2.1628 O   0  0  0  0  0  0  0  0  0  0  0  0
   17.9405   10.7246   -1.1711 C   0  0  0  0  0  0  0  0  0  0  0  0
   19.0969   11.4468   -0.9124 C   0  0  0  0  0  0  0  0  0  0  0  0
   19.0965   12.4650    0.0455 C   0  0  0  0  0  0  0  0  0  0  0  0
   17.9401   12.7851    0.7782 C   0  0  0  0  0  0  0  0  0  0  0  0
   16.7738   12.0365    0.5137 C   0  0  0  0  0  0  0  0  0  0  0  0
   16.7959   10.9920   -0.4289 C   0  0  0  0  0  0  0  0  0  0  0  0
   15.4760   12.2982    1.2301 C   0  0  0  0  0  0  0  0  0  0  0  0
   15.3737   13.7204    1.7539 C   0  0  0  0  0  0  0  0  0  0  0  0
   16.6166   14.0509    2.5621 C   0  0  0  0  0  0  0  0  0  0  0  0
   17.8970   14.0061    1.6988 C   0  0  2  0  0  0  0  0  0  0  0  0
   17.8691   15.1783    0.8556 O   0  0  0  0  0  0  0  0  0  0  0  0
   19.0703   14.1853    2.6900 C   0  0  0  0  0  0  0  0  0  0  0  0
   20.3423   14.4846    2.0893 N   0  0  0  0  0  0  0  0  0  0  0  0
   21.7731   14.3047    2.6335 C   0  0  0  0  0  0  0  0  0  0  0  0
   22.1479   13.8163    3.6190 O   0  0  0  0  0  0  0  0  0  0  0  0
   22.7183   14.8792    1.5817 C   0  0  2  0  0  0  0  0  0  0  0  0
   24.1912   14.4740    1.8122 C   0  0  0  0  0  0  0  0  0  0  0  0
   24.8412   15.8394    2.1061 C   0  0  2  0  0  0  0  0  0  0  0  0
   26.1953   15.7716    2.7683 C   0  0  0  0  0  0  0  0  0  0  0  0
   23.7595   16.6059    2.8530 C   0  0  0  0  0  0  0  0  0  0  0  0
   22.7577   16.4129    1.7293 C   0  0  1  0  0  0  0  0  0  0  0  0
   23.5668   16.9827    0.5711 C   0  0  0  0  0  0  0  0  0  0  0  0
   24.9123   16.5454    0.8405 O   0  0  0  0  0  0  0  0  0  0  0  0
  1  2  1  0
  2  3  1  0
  3  4  2  0
  4  5  1  0
  5  6  2  0
  6  7  1  0
  7  8  2  0
  7  9  1  0
  9 10  1  0
 10 11  1  0
 11 12  1  0
 12 13  1  6
 12 14  1  0
 14 15  1  0
 15 16  1  0
 16 17  2  0
 18 16  1  1
 18 19  1  0
 19 20  1  0
 20 21  1  1
 20 22  1  0
 22 23  1  0
 23 24  1  6
 24 25  1  0
  8  3  1  0
 23 18  1  0
 12  6  1  0
 25 20  1  0
M  END
>  <energy_score>  (221) 
-33.025837

>  <inchikey>  (221) 
None

>  <smiles>  (221) 
None

>  <ref_pdb>  (221) 
A0239a

>  <alias>  (221) 
None

>  <HIPPO Pose ID>  (221) 
497989

>  <name>  (221) 
P497989

>  <HIPPO Compound ID>  (221) 
290317

>  <ref_mols>  (221) 
A0239a,A0608a

>  <distance_score>  (221) 
1.776537

>  <inspiration_score>  (221) 
None

$$$$
P497995
     RDKit          3D

 25 29  0  0  0  0  0  0  0  0999 V2000
   23.0331   11.2744   -2.1464 C   0  0  0  0  0  0  0  0  0  0  0  0
   23.7289   12.5123   -1.9985 O   0  0  0  0  0  0  0  0  0  0  0  0
   24.1207   12.7192   -0.7065 C   0  0  0  0  0  0  0  0  0  0  0  0
   24.9752   11.8352   -0.0511 C   0  0  0  0  0  0  0  0  0  0  0  0
   25.3015   12.0615    1.2792 C   0  0  0  0  0  0  0  0  0  0  0  0
   24.7261   13.1370    1.9542 C   0  0  0  0  0  0  0  0  0  0  0  0
   23.8831   14.0507    1.2828 C   0  0  0  0  0  0  0  0  0  0  0  0
   23.6634   13.8829   -0.0852 C   0  0  0  0  0  0  0  0  0  0  0  0
   22.9187   14.9316   -0.8728 C   0  0  0  0  0  0  0  0  0  0  0  0
   23.1126   16.3210   -0.2628 C   0  0  0  0  0  0  0  0  0  0  0  0
   22.5588   16.3152    1.1447 C   0  0  0  0  0  0  0  0  0  0  0  0
   23.1897   15.1945    2.0111 C   0  0  2  0  0  0  0  0  0  0  0  0
   24.1995   15.8857    2.7718 O   0  0  0  0  0  0  0  0  0  0  0  0
   22.1213   14.6291    2.9845 C   0  0  0  0  0  0  0  0  0  0  0  0
   20.7367   14.5298    2.5239 N   0  0  0  0  0  0  0  0  0  0  0  0
   20.1131   13.6867    1.3775 C   0  0  0  0  0  0  0  0  0  0  0  0
   20.5965   12.8870    0.6783 O   0  0  0  0  0  0  0  0  0  0  0  0
   18.6104   14.0274    1.2715 C   0  0  2  0  0  0  0  0  0  0  0  0
   17.8643   14.1647    2.6150 C   0  0  0  0  0  0  0  0  0  0  0  0
   16.8123   13.0717    2.5230 C   0  0  2  0  0  0  0  0  0  0  0  0
   17.5765   12.0561    1.8460 O   0  0  0  0  0  0  0  0  0  0  0  0
   17.8490   12.8276    0.6462 C   0  0  1  0  0  0  0  0  0  0  0  0
   16.4331   13.1735    0.2142 C   0  0  2  0  0  0  0  0  0  0  0  0
   15.6744   14.4403    0.5059 C   0  0  0  0  0  0  0  0  0  0  0  0
   15.7169   13.3430    1.5281 C   0  0  2  0  0  0  0  0  0  0  0  0
  1  2  1  0
  2  3  1  0
  3  4  2  0
  4  5  1  0
  5  6  2  0
  6  7  1  0
  7  8  2  0
  8  9  1  0
  9 10  1  0
 10 11  1  0
 11 12  1  0
 12 13  1  1
 12 14  1  0
 14 15  1  0
 15 16  1  0
 16 17  2  0
 18 16  1  1
 18 19  1  0
 20 19  1  6
 20 21  1  0
 22 21  1  1
 22 23  1  0
 23 24  1  1
 25 24  1  1
  8  3  1  0
 22 18  1  0
 25 23  1  0
 12  7  1  0
 25 20  1  0
M  END
>  <energy_score>  (222) 
-14.470152

>  <inchikey>  (222) 
None

>  <smiles>  (222) 
None

>  <ref_pdb>  (222) 
A0239a

>  <alias>  (222) 
None

>  <HIPPO Pose ID>  (222) 
497995

>  <name>  (222) 
P497995

>  <HIPPO Compound ID>  (222) 
290318

>  <ref_mols>  (222) 
A0239a,A0608a

>  <distance_score>  (222) 
1.646868

>  <inspiration_score>  (222) 
None

$$$$
P498001
     RDKit          3D

 25 28  0  0  0  0  0  0  0  0999 V2000
   23.7425   11.2143   -2.4456 C   0  0  0  0  0  0  0  0  0  0  0  0
   23.4173   12.4394   -1.8011 O   0  0  0  0  0  0  0  0  0  0  0  0
   23.9618   12.6692   -0.5677 C   0  0  0  0  0  0  0  0  0  0  0  0
   24.8361   11.8062    0.0902 C   0  0  0  0  0  0  0  0  0  0  0  0
   25.2874   12.1166    1.3678 C   0  0  0  0  0  0  0  0  0  0  0  0
   24.8561   13.2842    1.9903 C   0  0  0  0  0  0  0  0  0  0  0  0
   24.0210   14.2008    1.3173 C   0  0  0  0  0  0  0  0  0  0  0  0
   23.5838   13.8923    0.0204 C   0  0  0  0  0  0  0  0  0  0  0  0
   22.8119   14.8832   -0.8311 C   0  0  0  0  0  0  0  0  0  0  0  0
   22.3299   16.1598   -0.1508 C   0  0  0  0  0  0  0  0  0  0  0  0
   23.2595   16.6108    0.9488 C   0  0  0  0  0  0  0  0  0  0  0  0
   23.6098   15.5118    1.9660 C   0  0  2  0  0  0  0  0  0  0  0  0
   24.7515   16.0682    2.6462 O   0  0  0  0  0  0  0  0  0  0  0  0
   22.5016   15.3237    3.0345 C   0  0  0  0  0  0  0  0  0  0  0  0
   21.1259   15.1406    2.6034 N   0  0  0  0  0  0  0  0  0  0  0  0
   20.0763   14.1230    3.0416 C   0  0  0  0  0  0  0  0  0  0  0  0
   20.1609   13.2177    3.7614 O   0  0  0  0  0  0  0  0  0  0  0  0
   18.7545   14.3293    2.3882 C   0  0  1  0  0  0  0  0  0  0  0  0
   18.5466   14.6760    0.9375 C   0  0  0  0  0  0  0  0  0  0  0  0
   18.3686   13.2511    1.3809 C   0  0  2  0  0  0  0  0  0  0  0  0
   17.0592   12.5428    1.3707 C   0  0  1  0  0  0  0  0  0  0  0  0
   15.8528   13.2971    1.9091 C   0  0  0  0  0  0  0  0  0  0  0  0
   14.7233   12.7123    1.0977 C   0  0  0  0  0  0  0  0  0  0  0  0
   15.3807   12.5312   -0.2472 C   0  0  0  0  0  0  0  0  0  0  0  0
   16.7497   12.2072    0.0084 O   0  0  0  0  0  0  0  0  0  0  0  0
  1  2  1  0
  2  3  1  0
  3  4  2  0
  4  5  1  0
  5  6  2  0
  6  7  1  0
  7  8  2  0
  8  9  1  0
  9 10  1  0
 10 11  1  0
 11 12  1  0
 12 13  1  1
 12 14  1  0
 14 15  1  0
 15 16  1  0
 16 17  2  0
 18 16  1  6
 18 19  1  0
 20 19  1  6
 20 21  1  0
 21 22  1  6
 22 23  1  0
 23 24  1  0
 24 25  1  0
  8  3  1  0
 20 18  1  0
 25 21  1  0
 12  7  1  0
M  END
>  <energy_score>  (223) 
-31.112004

>  <inchikey>  (223) 
None

>  <smiles>  (223) 
None

>  <ref_pdb>  (223) 
A0239a

>  <alias>  (223) 
None

>  <HIPPO Pose ID>  (223) 
498001

>  <name>  (223) 
P498001

>  <HIPPO Compound ID>  (223) 
290322

>  <ref_mols>  (223) 
A0239a,A0608a

>  <distance_score>  (223) 
1.668046

>  <inspiration_score>  (223) 
None

$$$$
P498008
     RDKit          3D

 25 28  0  0  0  0  0  0  0  0999 V2000
   23.4900   11.1830   -2.4098 C   0  0  0  0  0  0  0  0  0  0  0  0
   23.0319   12.1922   -1.5176 O   0  0  0  0  0  0  0  0  0  0  0  0
   23.8489   12.5129   -0.4691 C   0  0  0  0  0  0  0  0  0  0  0  0
   24.9517   11.7627   -0.0608 C   0  0  0  0  0  0  0  0  0  0  0  0
   25.6809   12.1468    1.0612 C   0  0  0  0  0  0  0  0  0  0  0  0
   25.3115   13.2829    1.7780 C   0  0  0  0  0  0  0  0  0  0  0  0
   24.2250   14.0730    1.3611 C   0  0  0  0  0  0  0  0  0  0  0  0
   23.4970   13.6835    0.2221 C   0  0  0  0  0  0  0  0  0  0  0  0
   22.3070   14.5034   -0.2229 C   0  0  0  0  0  0  0  0  0  0  0  0
   22.4522   16.0159   -0.0287 C   0  0  0  0  0  0  0  0  0  0  0  0
   23.4166   16.4365    1.0673 C   0  0  0  0  0  0  0  0  0  0  0  0
   23.7993   15.3435    2.0791 C   0  0  2  0  0  0  0  0  0  0  0  0
   24.9358   15.9162    2.7472 O   0  0  0  0  0  0  0  0  0  0  0  0
   22.6827   15.0884    3.1258 C   0  0  0  0  0  0  0  0  0  0  0  0
   21.2991   15.2062    2.6999 N   0  0  0  0  0  0  0  0  0  0  0  0
   20.1134   14.2289    2.8606 C   0  0  0  0  0  0  0  0  0  0  0  0
   20.0441   13.2131    3.4259 O   0  0  0  0  0  0  0  0  0  0  0  0
   18.9182   14.8242    2.1244 C   0  0  0  0  0  0  0  0  0  0  0  0
   17.6423   14.0674    2.4949 C   0  0  1  0  0  0  0  0  0  0  0  0
   16.3471   14.7815    2.0941 C   0  0  0  0  0  0  0  0  0  0  0  0
   15.4940   13.6270    1.5633 C   0  0  1  0  0  0  0  0  0  0  0  0
   15.9198   13.2633    0.1480 C   0  0  0  0  0  0  0  0  0  0  0  0
   17.2881   12.6281    0.3842 C   0  0  0  0  0  0  0  0  0  0  0  0
   17.4115   12.6694    1.9046 C   0  0  2  0  0  0  0  0  0  0  0  0
   16.0162   12.5002    2.3003 O   0  0  0  0  0  0  0  0  0  0  0  0
  1  2  1  0
  2  3  1  0
  3  4  2  0
  4  5  1  0
  5  6  2  0
  6  7  1  0
  7  8  2  0
  8  9  1  0
  9 10  1  0
 10 11  1  0
 11 12  1  0
 12 13  1  1
 12 14  1  0
 14 15  1  0
 15 16  1  0
 16 17  2  0
 16 18  1  0
 19 18  1  6
 19 20  1  0
 21 20  1  1
 21 22  1  0
 22 23  1  0
 24 23  1  6
 24 25  1  0
  8  3  1  0
 24 19  1  0
 12  7  1  0
 25 21  1  0
M  END
>  <energy_score>  (224) 
-17.4647

>  <inchikey>  (224) 
None

>  <smiles>  (224) 
None

>  <ref_pdb>  (224) 
A0239a

>  <alias>  (224) 
None

>  <HIPPO Pose ID>  (224) 
498008

>  <name>  (224) 
P498008

>  <HIPPO Compound ID>  (224) 
290323

>  <ref_mols>  (224) 
A0239a,A0608a

>  <distance_score>  (224) 
1.578552

>  <inspiration_score>  (224) 
None

$$$$
P498011
     RDKit          3D

 25 28  0  0  0  0  0  0  0  0999 V2000
   24.1281   10.7733   -2.1648 C   0  0  0  0  0  0  0  0  0  0  0  0
   24.5838   10.9560   -0.8303 O   0  0  0  0  0  0  0  0  0  0  0  0
   24.4343   12.1770   -0.2615 C   0  0  0  0  0  0  0  0  0  0  0  0
   24.7281   12.2473    1.0984 C   0  0  0  0  0  0  0  0  0  0  0  0
   24.5408   13.4272    1.8028 C   0  0  0  0  0  0  0  0  0  0  0  0
   24.0708   14.5696    1.1383 C   0  0  0  0  0  0  0  0  0  0  0  0
   23.8289   14.5060   -0.2470 C   0  0  0  0  0  0  0  0  0  0  0  0
   24.0236   13.3092   -0.9384 C   0  0  0  0  0  0  0  0  0  0  0  0
   23.3643   15.7107   -1.0319 C   0  0  0  0  0  0  0  0  0  0  0  0
   22.6130   16.7231   -0.1751 C   0  0  0  0  0  0  0  0  0  0  0  0
   23.4456   17.0711    1.0407 C   0  0  0  0  0  0  0  0  0  0  0  0
   23.7904   15.8486    1.9153 C   0  0  2  0  0  0  0  0  0  0  0  0
   24.9929   16.2433    2.5933 O   0  0  0  0  0  0  0  0  0  0  0  0
   22.7055   15.6481    3.0040 C   0  0  0  0  0  0  0  0  0  0  0  0
   21.3275   15.5722    2.5575 N   0  0  0  0  0  0  0  0  0  0  0  0
   20.2756   14.4561    2.7368 C   0  0  0  0  0  0  0  0  0  0  0  0
   20.3746   13.3939    3.2031 O   0  0  0  0  0  0  0  0  0  0  0  0
   18.9529   14.9896    2.2087 C   0  0  0  0  0  0  0  0  0  0  0  0
   17.8843   13.8784    2.2089 C   0  0  1  0  0  0  0  0  0  0  0  0
   16.4745   14.4697    2.0674 C   0  0  0  0  0  0  0  0  0  0  0  0
   15.9905   13.8366    0.7676 C   0  0  2  0  0  0  0  0  0  0  0  0
   15.6966   12.3530    0.9612 C   0  0  0  0  0  0  0  0  0  0  0  0
   17.1005   11.7599    1.0541 C   0  0  0  0  0  0  0  0  0  0  0  0
   17.9846   12.9995    0.9489 C   0  0  1  0  0  0  0  0  0  0  0  0
   17.2194   13.7951    0.0068 O   0  0  0  0  0  0  0  0  0  0  0  0
  1  2  1  0
  2  3  1  0
  3  4  2  0
  4  5  1  0
  5  6  2  0
  6  7  1  0
  7  8  2  0
  7  9  1  0
  9 10  1  0
 10 11  1  0
 11 12  1  0
 12 13  1  1
 12 14  1  0
 14 15  1  0
 15 16  1  0
 16 17  2  0
 16 18  1  0
 19 18  1  6
 19 20  1  0
 21 20  1  1
 21 22  1  0
 22 23  1  0
 24 23  1  1
 24 25  1  0
  8  3  1  0
 24 19  1  0
 12  6  1  0
 25 21  1  0
M  END
>  <energy_score>  (225) 
-20.379026

>  <inchikey>  (225) 
None

>  <smiles>  (225) 
None

>  <ref_pdb>  (225) 
A0239a

>  <alias>  (225) 
None

>  <HIPPO Pose ID>  (225) 
498011

>  <name>  (225) 
P498011

>  <HIPPO Compound ID>  (225) 
290324

>  <ref_mols>  (225) 
A0239a,A0608a

>  <distance_score>  (225) 
1.979201

>  <inspiration_score>  (225) 
None

$$$$
P498013
     RDKit          3D

 25 28  0  0  0  0  0  0  0  0999 V2000
   15.2726    9.5681   -1.5597 C   0  0  0  0  0  0  0  0  0  0  0  0
   15.4149   10.6143   -0.6072 O   0  0  0  0  0  0  0  0  0  0  0  0
   16.6740   11.1200   -0.3995 C   0  0  0  0  0  0  0  0  0  0  0  0
   17.8190   10.6675   -1.0491 C   0  0  0  0  0  0  0  0  0  0  0  0
   19.0442   11.2651   -0.7830 C   0  0  0  0  0  0  0  0  0  0  0  0
   19.1394   12.3007    0.1497 C   0  0  0  0  0  0  0  0  0  0  0  0
   18.0171   12.7764    0.8432 C   0  0  0  0  0  0  0  0  0  0  0  0
   16.7637   12.1818    0.5353 C   0  0  0  0  0  0  0  0  0  0  0  0
   15.4862   12.6300    1.2108 C   0  0  0  0  0  0  0  0  0  0  0  0
   15.5831   13.9799    1.8955 C   0  0  0  0  0  0  0  0  0  0  0  0
   16.8656   14.0563    2.7032 C   0  0  0  0  0  0  0  0  0  0  0  0
   18.1171   13.9725    1.7932 C   0  0  2  0  0  0  0  0  0  0  0  0
   18.0865   15.1744    1.0093 O   0  0  0  0  0  0  0  0  0  0  0  0
   19.3265   14.0461    2.7814 C   0  0  0  0  0  0  0  0  0  0  0  0
   20.6828   14.2249    2.2942 N   0  0  0  0  0  0  0  0  0  0  0  0
   21.2123   14.9486    1.0222 C   0  0  0  0  0  0  0  0  0  0  0  0
   20.6320   15.4426    0.1353 O   0  0  0  0  0  0  0  0  0  0  0  0
   22.7566   15.0300    1.1415 C   0  0  1  0  0  0  0  0  0  0  0  0
   23.4116   13.3604    1.2502 Cl  0  0  0  0  0  0  0  0  0  0  0  0
   23.4281   15.7865   -0.0244 C   0  0  0  0  0  0  0  0  0  0  0  0
   24.0283   16.9973    0.6915 C   0  0  1  0  0  0  0  0  0  0  0  0
   22.9392   17.9381    1.2081 C   0  0  0  0  0  0  0  0  0  0  0  0
   22.4343   17.1948    2.4432 C   0  0  0  0  0  0  0  0  0  0  0  0
   23.2017   15.8749    2.3522 C   0  0  2  0  0  0  0  0  0  0  0  0
   24.4894   16.3839    1.9137 O   0  0  0  0  0  0  0  0  0  0  0  0
  1  2  1  0
  2  3  1  0
  3  4  2  0
  4  5  1  0
  5  6  2  0
  6  7  1  0
  7  8  2  0
  8  9  1  0
  9 10  1  0
 10 11  1  0
 11 12  1  0
 12 13  1  6
 12 14  1  0
 14 15  1  0
 15 16  1  0
 16 17  2  0
 16 18  1  0
 18 19  1  1
 18 20  1  0
 21 20  1  6
 21 22  1  0
 22 23  1  0
 24 23  1  6
 24 25  1  0
  8  3  1  0
 24 18  1  0
 12  7  1  0
 25 21  1  0
M  END
>  <energy_score>  (226) 
-19.466097

>  <inchikey>  (226) 
None

>  <smiles>  (226) 
None

>  <ref_pdb>  (226) 
A0239a

>  <alias>  (226) 
None

>  <HIPPO Pose ID>  (226) 
498013

>  <name>  (226) 
P498013

>  <HIPPO Compound ID>  (226) 
290326

>  <ref_mols>  (226) 
A0239a,A0608a

>  <distance_score>  (226) 
1.49507

>  <inspiration_score>  (226) 
None

$$$$
P498017
     RDKit          3D

 25 28  0  0  0  0  0  0  0  0999 V2000
   16.6927    9.4890   -2.6390 C   0  0  0  0  0  0  0  0  0  0  0  0
   17.9588    9.7707   -2.0458 O   0  0  0  0  0  0  0  0  0  0  0  0
   17.9389   10.7195   -1.0631 C   0  0  0  0  0  0  0  0  0  0  0  0
   19.1372   11.3802   -0.8382 C   0  0  0  0  0  0  0  0  0  0  0  0
   19.2213   12.3963    0.1207 C   0  0  0  0  0  0  0  0  0  0  0  0
   18.1112   12.7872    0.8853 C   0  0  0  0  0  0  0  0  0  0  0  0
   16.8954   12.1077    0.6435 C   0  0  0  0  0  0  0  0  0  0  0  0
   16.8321   11.0600   -0.2962 C   0  0  0  0  0  0  0  0  0  0  0  0
   15.6218   12.4447    1.3734 C   0  0  0  0  0  0  0  0  0  0  0  0
   15.6325   13.8397    1.9694 C   0  0  0  0  0  0  0  0  0  0  0  0
   16.9209   14.0430    2.7499 C   0  0  0  0  0  0  0  0  0  0  0  0
   18.1716   13.9863    1.8324 C   0  0  2  0  0  0  0  0  0  0  0  0
   18.0938   15.1809    1.0398 O   0  0  0  0  0  0  0  0  0  0  0  0
   19.3840   14.0986    2.8114 C   0  0  0  0  0  0  0  0  0  0  0  0
   20.7317   14.2681    2.3054 N   0  0  0  0  0  0  0  0  0  0  0  0
   21.2524   15.0367    1.0582 C   0  0  0  0  0  0  0  0  0  0  0  0
   20.6668   15.5844    0.2076 O   0  0  0  0  0  0  0  0  0  0  0  0
   22.7992   15.0756    1.1501 C   0  0  1  0  0  0  0  0  0  0  0  0
   23.4177   13.3900    1.2265 Cl  0  0  0  0  0  0  0  0  0  0  0  0
   23.4678   15.8348   -0.0150 C   0  0  0  0  0  0  0  0  0  0  0  0
   24.0933   17.0279    0.7082 C   0  0  1  0  0  0  0  0  0  0  0  0
   23.0249   17.9750    1.2562 C   0  0  0  0  0  0  0  0  0  0  0  0
   22.5347   17.2234    2.4923 C   0  0  0  0  0  0  0  0  0  0  0  0
   23.2786   15.8929    2.3666 C   0  0  2  0  0  0  0  0  0  0  0  0
   24.5660   16.3897    1.9135 O   0  0  0  0  0  0  0  0  0  0  0  0
  1  2  1  0
  2  3  1  0
  3  4  2  0
  4  5  1  0
  5  6  2  0
  6  7  1  0
  7  8  2  0
  7  9  1  0
  9 10  1  0
 10 11  1  0
 11 12  1  0
 12 13  1  6
 12 14  1  0
 14 15  1  0
 15 16  1  0
 16 17  2  0
 16 18  1  0
 18 19  1  1
 18 20  1  0
 21 20  1  6
 21 22  1  0
 22 23  1  0
 24 23  1  6
 24 25  1  0
  8  3  1  0
 24 18  1  0
 12  6  1  0
 25 21  1  0
M  END
>  <energy_score>  (227) 
-20.648066

>  <inchikey>  (227) 
None

>  <smiles>  (227) 
None

>  <ref_pdb>  (227) 
A0239a

>  <alias>  (227) 
None

>  <HIPPO Pose ID>  (227) 
498017

>  <name>  (227) 
P498017

>  <HIPPO Compound ID>  (227) 
290327

>  <ref_mols>  (227) 
A0239a,A0608a

>  <distance_score>  (227) 
1.545652

>  <inspiration_score>  (227) 
None

$$$$
P498021
     RDKit          3D

 25 28  0  0  0  0  0  0  0  0999 V2000
   22.4267   11.6094   -1.9255 C   0  0  0  0  0  0  0  0  0  0  0  0
   23.4713   12.5792   -2.0067 O   0  0  0  0  0  0  0  0  0  0  0  0
   24.0569   12.7503   -0.7839 C   0  0  0  0  0  0  0  0  0  0  0  0
   24.8929   11.7676   -0.2580 C   0  0  0  0  0  0  0  0  0  0  0  0
   25.4449   11.9458    1.0031 C   0  0  0  0  0  0  0  0  0  0  0  0
   25.1075   13.0763    1.7442 C   0  0  0  0  0  0  0  0  0  0  0  0
   24.2706   14.0804    1.2054 C   0  0  0  0  0  0  0  0  0  0  0  0
   23.8300   13.9542   -0.1147 C   0  0  0  0  0  0  0  0  0  0  0  0
   23.1129   15.0879   -0.8077 C   0  0  0  0  0  0  0  0  0  0  0  0
   23.4806   16.4423   -0.1981 C   0  0  0  0  0  0  0  0  0  0  0  0
   23.1323   16.4375    1.2758 C   0  0  0  0  0  0  0  0  0  0  0  0
   23.8315   15.2752    2.0336 C   0  0  2  0  0  0  0  0  0  0  0  0
   25.0537   15.8449    2.5337 O   0  0  0  0  0  0  0  0  0  0  0  0
   22.9375   14.7868    3.2083 C   0  0  0  0  0  0  0  0  0  0  0  0
   21.5020   14.8430    2.9986 N   0  0  0  0  0  0  0  0  0  0  0  0
   20.6177   14.1558    1.9427 C   0  0  0  0  0  0  0  0  0  0  0  0
   20.8905   13.3751    1.1212 O   0  0  0  0  0  0  0  0  0  0  0  0
   19.1774   14.7552    2.0991 C   0  0  1  0  0  0  0  0  0  0  0  0
   18.1666   14.4615    0.9705 C   0  0  0  0  0  0  0  0  0  0  0  0
   17.4661   13.4418    1.8899 C   0  0  1  0  0  0  0  0  0  0  0  0
   15.9478   13.5201    1.8855 C   0  0  0  0  0  0  0  0  0  0  0  0
   15.5957   12.4944    0.8226 C   0  0  0  0  0  0  0  0  0  0  0  0
   16.6169   11.3941    1.0571 C   0  0  0  0  0  0  0  0  0  0  0  0
   17.7706   12.0569    1.5963 O   0  0  0  0  0  0  0  0  0  0  0  0
   18.2099   14.0654    3.0838 C   0  0  0  0  0  0  0  0  0  0  0  0
  1  2  1  0
  2  3  1  0
  3  4  2  0
  4  5  1  0
  5  6  2  0
  6  7  1  0
  7  8  2  0
  8  9  1  0
  9 10  1  0
 10 11  1  0
 11 12  1  0
 12 13  1  1
 12 14  1  0
 14 15  1  0
 15 16  1  0
 16 17  2  0
 18 16  1  6
 18 19  1  0
 20 19  1  6
 20 21  1  0
 21 22  1  0
 22 23  1  0
 23 24  1  0
 20 25  1  0
  8  3  1  0
 25 18  1  0
 12  7  1  0
 20 24  1  0
M  END
>  <energy_score>  (228) 
-23.183503

>  <inchikey>  (228) 
None

>  <smiles>  (228) 
None

>  <ref_pdb>  (228) 
A0239a

>  <alias>  (228) 
None

>  <HIPPO Pose ID>  (228) 
498021

>  <name>  (228) 
P498021

>  <HIPPO Compound ID>  (228) 
290328

>  <ref_mols>  (228) 
A0239a,A0608a

>  <distance_score>  (228) 
1.533197

>  <inspiration_score>  (228) 
None

$$$$
P498024
     RDKit          3D

 25 29  0  0  0  0  0  0  0  0999 V2000
   23.6008   11.3301   -2.6332 C   0  0  0  0  0  0  0  0  0  0  0  0
   23.5616   12.6357   -2.0693 O   0  0  0  0  0  0  0  0  0  0  0  0
   24.0238   12.7567   -0.7878 C   0  0  0  0  0  0  0  0  0  0  0  0
   24.9056   11.8559   -0.1862 C   0  0  0  0  0  0  0  0  0  0  0  0
   25.2997   12.0481    1.1311 C   0  0  0  0  0  0  0  0  0  0  0  0
   24.7731   13.1124    1.8551 C   0  0  0  0  0  0  0  0  0  0  0  0
   23.8964   14.0431    1.2542 C   0  0  0  0  0  0  0  0  0  0  0  0
   23.5656   13.8926   -0.0966 C   0  0  0  0  0  0  0  0  0  0  0  0
   22.7991   14.9618   -0.8559 C   0  0  0  0  0  0  0  0  0  0  0  0
   22.1165   16.0570   -0.0320 C   0  0  0  0  0  0  0  0  0  0  0  0
   22.8831   16.3947    1.2214 C   0  0  0  0  0  0  0  0  0  0  0  0
   23.2706   15.1662    2.0529 C   0  0  2  0  0  0  0  0  0  0  0  0
   24.3227   15.6579    2.9125 O   0  0  0  0  0  0  0  0  0  0  0  0
   22.1196   14.6204    2.9508 C   0  0  0  0  0  0  0  0  0  0  0  0
   20.7316   14.4806    2.5150 N   0  0  0  0  0  0  0  0  0  0  0  0
   20.1292   13.6981    1.3403 C   0  0  0  0  0  0  0  0  0  0  0  0
   20.6468   13.1030    0.4874 O   0  0  0  0  0  0  0  0  0  0  0  0
   18.6428   13.6423    1.4025 C   0  0  2  0  0  0  0  0  0  0  0  0
   17.6874   14.2730    0.3908 C   0  0  0  0  0  0  0  0  0  0  0  0
   16.4142   13.5377    0.8855 C   0  0  2  0  0  0  0  0  0  0  0  0
   16.4550   13.8642    2.3265 O   0  0  0  0  0  0  0  0  0  0  0  0
   17.8131   13.4064    2.6312 C   0  0  1  0  0  0  0  0  0  0  0  0
   18.0857   12.2725    1.6950 C   0  0  1  0  0  0  0  0  0  0  0  0
   16.8804   12.0548    0.8471 C   0  0  1  0  0  0  0  0  0  0  0  0
   16.0057   11.1716    1.4969 O   0  0  0  0  0  0  0  0  0  0  0  0
  1  2  1  0
  2  3  1  0
  3  4  2  0
  4  5  1  0
  5  6  2  0
  6  7  1  0
  7  8  2  0
  8  9  1  0
  9 10  1  0
 10 11  1  0
 11 12  1  0
 12 13  1  1
 12 14  1  0
 14 15  1  0
 15 16  1  0
 16 17  2  0
 18 16  1  1
 18 19  1  0
 20 19  1  6
 20 21  1  0
 22 21  1  6
 22 23  1  0
 23 24  1  6
 24 25  1  1
  8  3  1  0
 22 18  1  0
 12  7  1  0
 23 18  1  0
 24 20  1  0
M  END
>  <energy_score>  (229) 
-14.606099

>  <inchikey>  (229) 
None

>  <smiles>  (229) 
None

>  <ref_pdb>  (229) 
A0239a

>  <alias>  (229) 
None

>  <HIPPO Pose ID>  (229) 
498024

>  <name>  (229) 
P498024

>  <HIPPO Compound ID>  (229) 
290330

>  <ref_mols>  (229) 
A0239a,A0608a

>  <distance_score>  (229) 
1.870404

>  <inspiration_score>  (229) 
None

$$$$
P498026
     RDKit          3D

 25 28  0  0  0  0  0  0  0  0999 V2000
   23.5219   11.1885   -2.4054 C   0  0  0  0  0  0  0  0  0  0  0  0
   23.0649   12.2157   -1.5338 O   0  0  0  0  0  0  0  0  0  0  0  0
   23.8572   12.5249   -0.4634 C   0  0  0  0  0  0  0  0  0  0  0  0
   24.9402   11.7604   -0.0273 C   0  0  0  0  0  0  0  0  0  0  0  0
   25.6331   12.1225    1.1250 C   0  0  0  0  0  0  0  0  0  0  0  0
   25.2577   13.2608    1.8333 C   0  0  0  0  0  0  0  0  0  0  0  0
   24.2116   14.0805    1.3704 C   0  0  0  0  0  0  0  0  0  0  0  0
   23.5001   13.6981    0.2206 C   0  0  0  0  0  0  0  0  0  0  0  0
   22.3072   14.5122   -0.2273 C   0  0  0  0  0  0  0  0  0  0  0  0
   22.4343   16.0249   -0.0306 C   0  0  0  0  0  0  0  0  0  0  0  0
   23.4221   16.4555    1.0387 C   0  0  0  0  0  0  0  0  0  0  0  0
   23.8224   15.3775    2.0618 C   0  0  2  0  0  0  0  0  0  0  0  0
   24.9786   15.9508    2.6946 O   0  0  0  0  0  0  0  0  0  0  0  0
   22.7499   15.1710    3.1586 C   0  0  0  0  0  0  0  0  0  0  0  0
   21.3577   15.2328    2.7434 N   0  0  0  0  0  0  0  0  0  0  0  0
   20.2024   14.2318    2.9579 C   0  0  0  0  0  0  0  0  0  0  0  0
   20.1671   13.2392    3.5658 O   0  0  0  0  0  0  0  0  0  0  0  0
   18.9945   14.7546    2.1919 C   0  0  0  0  0  0  0  0  0  0  0  0
   17.8230   13.7758    2.3310 C   0  0  2  0  0  0  0  0  0  0  0  0
   17.9500   12.4913    1.4761 C   0  0  0  0  0  0  0  0  0  0  0  0
   16.6066   12.4550    0.7220 C   0  0  2  0  0  0  0  0  0  0  0  0
   16.6483   13.5585   -0.3227 C   0  0  0  0  0  0  0  0  0  0  0  0
   16.6443   14.7746    0.4706 O   0  0  0  0  0  0  0  0  0  0  0  0
   16.4851   14.3376    1.8387 C   0  0  1  0  0  0  0  0  0  0  0  0
   15.6421   13.0817    1.7121 C   0  0  0  0  0  0  0  0  0  0  0  0
  1  2  1  0
  2  3  1  0
  3  4  2  0
  4  5  1  0
  5  6  2  0
  6  7  1  0
  7  8  2  0
  8  9  1  0
  9 10  1  0
 10 11  1  0
 11 12  1  0
 12 13  1  1
 12 14  1  0
 14 15  1  0
 15 16  1  0
 16 17  2  0
 16 18  1  0
 19 18  1  6
 19 20  1  0
 21 20  1  1
 21 22  1  0
 22 23  1  0
 24 23  1  6
 24 25  1  0
  8  3  1  0
 24 19  1  0
 12  7  1  0
 25 21  1  0
M  END
>  <energy_score>  (230) 
-17.200615

>  <inchikey>  (230) 
None

>  <smiles>  (230) 
None

>  <ref_pdb>  (230) 
A0239a

>  <alias>  (230) 
None

>  <HIPPO Pose ID>  (230) 
498026

>  <name>  (230) 
P498026

>  <HIPPO Compound ID>  (230) 
290333

>  <ref_mols>  (230) 
A0239a,A0608a

>  <distance_score>  (230) 
1.607203

>  <inspiration_score>  (230) 
None

$$$$
P498028
     RDKit          3D

 26 28  0  0  0  0  0  0  0  0999 V2000
   23.9313   11.1118   -2.4845 C   0  0  0  0  0  0  0  0  0  0  0  0
   23.7174   12.3939   -1.9079 O   0  0  0  0  0  0  0  0  0  0  0  0
   24.2273   12.6131   -0.6595 C   0  0  0  0  0  0  0  0  0  0  0  0
   25.0088   11.7130    0.0590 C   0  0  0  0  0  0  0  0  0  0  0  0
   25.3988   12.0159    1.3597 C   0  0  0  0  0  0  0  0  0  0  0  0
   24.9620   13.1938    1.9599 C   0  0  0  0  0  0  0  0  0  0  0  0
   24.1897   14.1273    1.2407 C   0  0  0  0  0  0  0  0  0  0  0  0
   23.9074   13.8637   -0.1092 C   0  0  0  0  0  0  0  0  0  0  0  0
   23.2786   14.9171   -0.9997 C   0  0  0  0  0  0  0  0  0  0  0  0
   23.5127   16.3314   -0.4705 C   0  0  0  0  0  0  0  0  0  0  0  0
   22.9556   16.3921    0.9310 C   0  0  0  0  0  0  0  0  0  0  0  0
   23.7110   15.4255    1.8852 C   0  0  2  0  0  0  0  0  0  0  0  0
   24.8765   16.1742    2.2789 O   0  0  0  0  0  0  0  0  0  0  0  0
   22.8450   15.1641    3.1531 C   0  0  0  0  0  0  0  0  0  0  0  0
   21.4332   15.4376    2.9579 N   0  0  0  0  0  0  0  0  0  0  0  0
   20.2290   14.4738    2.8556 C   0  0  0  0  0  0  0  0  0  0  0  0
   20.1740   13.3193    2.9886 O   0  0  0  0  0  0  0  0  0  0  0  0
   19.0423   15.3488    2.4920 C   0  0  0  0  0  0  0  0  0  0  0  0
   17.7368   14.5672    2.3613 C   0  0  0  0  0  0  0  0  0  0  0  0
   17.4922   14.1100    0.9258 C   0  0  2  0  0  0  0  0  0  0  0  0
   16.0082   14.0481    0.5661 C   0  0  0  0  0  0  0  0  0  0  0  0
   15.7121   12.5644    0.4824 C   0  0  0  0  0  0  0  0  0  0  0  0
   14.5656   12.2487   -0.4694 C   0  0  0  0  0  0  0  0  0  0  0  0
   15.3696   12.0180    1.8584 C   0  0  0  0  0  0  0  0  0  0  0  0
   17.0546   12.0130    0.0269 C   0  0  0  0  0  0  0  0  0  0  0  0
   18.0337   12.7950    0.7262 O   0  0  0  0  0  0  0  0  0  0  0  0
  1  2  1  0
  2  3  1  0
  3  4  2  0
  4  5  1  0
  5  6  2  0
  6  7  1  0
  7  8  2  0
  8  9  1  0
  9 10  1  0
 10 11  1  0
 11 12  1  0
 12 13  1  1
 12 14  1  0
 14 15  1  0
 15 16  1  0
 16 17  2  0
 16 18  1  0
 18 19  1  0
 20 19  1  1
 20 21  1  0
 21 22  1  0
 22 23  1  0
 22 24  1  0
 22 25  1  0
 25 26  1  0
  8  3  1  0
 26 20  1  0
 12  7  1  0
M  END
>  <energy_score>  (231) 
-23.538152

>  <inchikey>  (231) 
None

>  <smiles>  (231) 
None

>  <ref_pdb>  (231) 
A0239a

>  <alias>  (231) 
None

>  <HIPPO Pose ID>  (231) 
498028

>  <name>  (231) 
P498028

>  <HIPPO Compound ID>  (231) 
290342

>  <ref_mols>  (231) 
A0239a,A0608a

>  <distance_score>  (231) 
1.689061

>  <inspiration_score>  (231) 
None

$$$$
P498029
     RDKit          3D

 26 28  0  0  0  0  0  0  0  0999 V2000
   23.7023   11.0913   -2.5426 C   0  0  0  0  0  0  0  0  0  0  0  0
   23.3191   12.2152   -1.7595 O   0  0  0  0  0  0  0  0  0  0  0  0
   24.0494   12.4743   -0.6339 C   0  0  0  0  0  0  0  0  0  0  0  0
   25.1187   11.7036   -0.1757 C   0  0  0  0  0  0  0  0  0  0  0  0
   25.7357   12.0124    1.0344 C   0  0  0  0  0  0  0  0  0  0  0  0
   25.2826   13.0888    1.7916 C   0  0  0  0  0  0  0  0  0  0  0  0
   24.2427   13.9076    1.3165 C   0  0  0  0  0  0  0  0  0  0  0  0
   23.6348   13.6029    0.0879 C   0  0  0  0  0  0  0  0  0  0  0  0
   22.4622   14.4290   -0.3894 C   0  0  0  0  0  0  0  0  0  0  0  0
   22.5615   15.9211   -0.0650 C   0  0  0  0  0  0  0  0  0  0  0  0
   23.2966   16.2568    1.2221 C   0  0  0  0  0  0  0  0  0  0  0  0
   23.6743   15.0646    2.1201 C   0  0  2  0  0  0  0  0  0  0  0  0
   24.6865   15.6217    2.9706 O   0  0  0  0  0  0  0  0  0  0  0  0
   22.5107   14.5595    3.0161 C   0  0  0  0  0  0  0  0  0  0  0  0
   21.1492   14.8002    2.5746 N   0  0  0  0  0  0  0  0  0  0  0  0
   19.8238   14.0904    2.9615 C   0  0  0  0  0  0  0  0  0  0  0  0
   19.6355   13.1551    3.6347 O   0  0  0  0  0  0  0  0  0  0  0  0
   18.6292   14.8897    2.3342 C   0  0  0  0  0  0  0  0  0  0  0  0
   18.8871   16.4095    2.4000 C   0  0  0  0  0  0  0  0  0  0  0  0
   17.3648   14.6429    3.1700 C   0  0  0  0  0  0  0  0  0  0  0  0
   18.4256   14.5115    0.8552 C   0  0  0  0  0  0  0  0  0  0  0  0
   17.6607   13.2595    0.4578 C   0  0  2  0  0  0  0  0  0  0  0  0
   16.1432   13.3177    0.5076 C   0  0  0  0  0  0  0  0  0  0  0  0
   15.8024   11.8565    0.3542 C   0  0  0  0  0  0  0  0  0  0  0  0
   16.9662   11.1534    1.0319 C   0  0  0  0  0  0  0  0  0  0  0  0
   18.0237   12.1095    1.2084 O   0  0  0  0  0  0  0  0  0  0  0  0
  1  2  1  0
  2  3  1  0
  3  4  2  0
  4  5  1  0
  5  6  2  0
  6  7  1  0
  7  8  2  0
  8  9  1  0
  9 10  1  0
 10 11  1  0
 11 12  1  0
 12 13  1  1
 12 14  1  0
 14 15  1  0
 15 16  1  0
 16 17  2  0
 16 18  1  0
 18 19  1  0
 18 20  1  0
 18 21  1  0
 22 21  1  1
 22 23  1  0
 23 24  1  0
 24 25  1  0
 25 26  1  0
  8  3  1  0
 26 22  1  0
 12  7  1  0
M  END
>  <energy_score>  (232) 
-19.940724

>  <inchikey>  (232) 
None

>  <smiles>  (232) 
None

>  <ref_pdb>  (232) 
A0239a

>  <alias>  (232) 
None

>  <HIPPO Pose ID>  (232) 
498029

>  <name>  (232) 
P498029

>  <HIPPO Compound ID>  (232) 
290343

>  <ref_mols>  (232) 
A0239a,A0608a

>  <distance_score>  (232) 
1.727352

>  <inspiration_score>  (232) 
None

$$$$
P498030
     RDKit          3D

 26 28  0  0  0  0  0  0  0  0999 V2000
   23.6354   10.8085   -2.3060 C   0  0  0  0  0  0  0  0  0  0  0  0
   24.4954   10.9119   -1.1774 O   0  0  0  0  0  0  0  0  0  0  0  0
   24.5101   12.0977   -0.5183 C   0  0  0  0  0  0  0  0  0  0  0  0
   24.9669   12.0519    0.7948 C   0  0  0  0  0  0  0  0  0  0  0  0
   24.9052   13.1790    1.5948 C   0  0  0  0  0  0  0  0  0  0  0  0
   24.3783   14.3726    1.0766 C   0  0  0  0  0  0  0  0  0  0  0  0
   24.0346   14.4452   -0.2820 C   0  0  0  0  0  0  0  0  0  0  0  0
   24.1173   13.3015   -1.0760 C   0  0  0  0  0  0  0  0  0  0  0  0
   23.5314   15.7274   -0.9014 C   0  0  0  0  0  0  0  0  0  0  0  0
   22.7619   16.6104    0.0779 C   0  0  0  0  0  0  0  0  0  0  0  0
   23.5742   16.8302    1.3355 C   0  0  0  0  0  0  0  0  0  0  0  0
   24.0795   15.5340    2.0036 C   0  0  2  0  0  0  0  0  0  0  0  0
   25.3202   15.9347    2.6122 O   0  0  0  0  0  0  0  0  0  0  0  0
   23.1445   15.0872    3.1535 C   0  0  0  0  0  0  0  0  0  0  0  0
   21.7169   14.9990    2.9342 N   0  0  0  0  0  0  0  0  0  0  0  0
   20.9095   14.2576    1.8339 C   0  0  0  0  0  0  0  0  0  0  0  0
   21.2754   13.6700    0.8941 O   0  0  0  0  0  0  0  0  0  0  0  0
   19.3937   14.4246    2.1723 C   0  0  0  0  0  0  0  0  0  0  0  0
   19.0519   15.9160    2.2973 C   0  0  0  0  0  0  0  0  0  0  0  0
   19.0765   13.6896    3.4705 C   0  0  0  0  0  0  0  0  0  0  0  0
   18.5361   13.8222    1.0198 C   0  0  0  0  0  0  0  0  0  0  0  0
   17.0582   13.5936    1.3589 C   0  0  1  0  0  0  0  0  0  0  0  0
   16.1576   13.6310    0.1318 C   0  0  0  0  0  0  0  0  0  0  0  0
   15.1924   12.5015    0.3816 C   0  0  0  0  0  0  0  0  0  0  0  0
   16.0903   11.4968    1.0556 C   0  0  0  0  0  0  0  0  0  0  0  0
   16.9160   12.2759    1.9266 O   0  0  0  0  0  0  0  0  0  0  0  0
  1  2  1  0
  2  3  1  0
  3  4  2  0
  4  5  1  0
  5  6  2  0
  6  7  1  0
  7  8  2  0
  7  9  1  0
  9 10  1  0
 10 11  1  0
 11 12  1  0
 12 13  1  1
 12 14  1  0
 14 15  1  0
 15 16  1  0
 16 17  2  0
 16 18  1  0
 18 19  1  0
 18 20  1  0
 18 21  1  0
 22 21  1  6
 22 23  1  0
 23 24  1  0
 24 25  1  0
 25 26  1  0
  8  3  1  0
 26 22  1  0
 12  6  1  0
M  END
>  <energy_score>  (233) 
-23.01349

>  <inchikey>  (233) 
None

>  <smiles>  (233) 
None

>  <ref_pdb>  (233) 
A0239a

>  <alias>  (233) 
None

>  <HIPPO Pose ID>  (233) 
498030

>  <name>  (233) 
P498030

>  <HIPPO Compound ID>  (233) 
290344

>  <ref_mols>  (233) 
A0239a,A0608a

>  <distance_score>  (233) 
1.983284

>  <inspiration_score>  (233) 
None

$$$$
P498032
     RDKit          3D

 26 28  0  0  0  0  0  0  0  0999 V2000
   21.4422   12.4883   -0.9831 C   0  0  0  0  0  0  0  0  0  0  0  0
   22.7721   12.6626   -1.4729 O   0  0  0  0  0  0  0  0  0  0  0  0
   23.6443   12.9159   -0.4531 C   0  0  0  0  0  0  0  0  0  0  0  0
   24.6176   11.9535   -0.1919 C   0  0  0  0  0  0  0  0  0  0  0  0
   25.4693   12.1187    0.8920 C   0  0  0  0  0  0  0  0  0  0  0  0
   25.3278   13.2385    1.7090 C   0  0  0  0  0  0  0  0  0  0  0  0
   24.3818   14.2426    1.4076 C   0  0  0  0  0  0  0  0  0  0  0  0
   23.5664   14.1056    0.2790 C   0  0  0  0  0  0  0  0  0  0  0  0
   22.5824   15.1848   -0.1087 C   0  0  0  0  0  0  0  0  0  0  0  0
   22.9077   16.6092    0.3410 C   0  0  0  0  0  0  0  0  0  0  0  0
   23.9177   16.7227    1.4680 C   0  0  0  0  0  0  0  0  0  0  0  0
   24.1722   15.4525    2.2916 C   0  0  2  0  0  0  0  0  0  0  0  0
   25.4105   15.7177    2.9624 O   0  0  0  0  0  0  0  0  0  0  0  0
   23.0596   15.1707    3.3344 C   0  0  0  0  0  0  0  0  0  0  0  0
   21.6753   15.3236    2.9310 N   0  0  0  0  0  0  0  0  0  0  0  0
   20.4585   14.3637    3.1049 C   0  0  0  0  0  0  0  0  0  0  0  0
   20.3745   13.3417    3.6666 O   0  0  0  0  0  0  0  0  0  0  0  0
   19.2451   15.0355    2.4249 C   0  0  0  0  0  0  0  0  0  0  0  0
   19.6607   16.1357    1.7377 F   0  0  0  0  0  0  0  0  0  0  0  0
   18.3269   15.5118    3.3157 F   0  0  0  0  0  0  0  0  0  0  0  0
   18.5712   14.0888    1.4473 C   0  0  0  0  0  0  0  0  0  0  0  0
   17.6149   13.1278    2.1371 C   0  0  1  0  0  0  0  0  0  0  0  0
   16.1588   13.5734    2.0676 C   0  0  0  0  0  0  0  0  0  0  0  0
   15.6447   12.8658    0.8380 C   0  0  0  0  0  0  0  0  0  0  0  0
   16.4040   11.5609    0.8917 C   0  0  0  0  0  0  0  0  0  0  0  0
   17.6943   11.8751    1.4295 O   0  0  0  0  0  0  0  0  0  0  0  0
  1  2  1  0
  2  3  1  0
  3  4  2  0
  4  5  1  0
  5  6  2  0
  6  7  1  0
  7  8  2  0
  8  9  1  0
  9 10  1  0
 10 11  1  0
 11 12  1  0
 12 13  1  1
 12 14  1  0
 14 15  1  0
 15 16  1  0
 16 17  2  0
 16 18  1  0
 18 19  1  0
 18 20  1  0
 18 21  1  0
 22 21  1  6
 22 23  1  0
 23 24  1  0
 24 25  1  0
 25 26  1  0
  8  3  1  0
 26 22  1  0
 12  7  1  0
M  END
>  <energy_score>  (234) 
-20.169065

>  <inchikey>  (234) 
None

>  <smiles>  (234) 
None

>  <ref_pdb>  (234) 
A0239a

>  <alias>  (234) 
None

>  <HIPPO Pose ID>  (234) 
498032

>  <name>  (234) 
P498032

>  <HIPPO Compound ID>  (234) 
290345

>  <ref_mols>  (234) 
A0239a,A0608a

>  <distance_score>  (234) 
1.72702

>  <inspiration_score>  (234) 
None

$$$$
P498034
     RDKit          3D

 26 29  0  0  0  0  0  0  0  0999 V2000
   22.7107   11.3569   -2.1731 C   0  0  0  0  0  0  0  0  0  0  0  0
   23.4635   12.5641   -2.0523 O   0  0  0  0  0  0  0  0  0  0  0  0
   23.9332   12.7237   -0.7785 C   0  0  0  0  0  0  0  0  0  0  0  0
   24.9023   11.8587   -0.2679 C   0  0  0  0  0  0  0  0  0  0  0  0
   25.3628   12.0386    1.0276 C   0  0  0  0  0  0  0  0  0  0  0  0
   24.8306   13.0656    1.8027 C   0  0  0  0  0  0  0  0  0  0  0  0
   23.8765   13.9676    1.2708 C   0  0  0  0  0  0  0  0  0  0  0  0
   23.4520   13.8170   -0.0486 C   0  0  0  0  0  0  0  0  0  0  0  0
   22.5556   14.8293   -0.7299 C   0  0  0  0  0  0  0  0  0  0  0  0
   21.8879   15.8935    0.1427 C   0  0  0  0  0  0  0  0  0  0  0  0
   22.7230   16.2629    1.3400 C   0  0  0  0  0  0  0  0  0  0  0  0
   23.2555   15.0553    2.1194 C   0  0  2  0  0  0  0  0  0  0  0  0
   24.3120   15.6449    2.9108 O   0  0  0  0  0  0  0  0  0  0  0  0
   22.2378   14.4247    3.1046 C   0  0  0  0  0  0  0  0  0  0  0  0
   20.8042   14.2796    2.8544 N   0  0  0  0  0  0  0  0  0  0  0  0
   20.0454   13.5436    1.7051 C   0  0  0  0  0  0  0  0  0  0  0  0
   20.4535   13.0117    0.7487 O   0  0  0  0  0  0  0  0  0  0  0  0
   18.5607   13.5285    2.0970 C   0  0  1  0  0  0  0  0  0  0  0  0
   17.9907   14.9326    2.2958 C   0  0  0  0  0  0  0  0  0  0  0  0
   16.7015   14.8542    1.4954 C   0  0  1  0  0  0  0  0  0  0  0  0
   17.1901   14.1436    0.3303 O   0  0  0  0  0  0  0  0  0  0  0  0
   17.6207   12.9402    1.0119 C   0  0  2  0  0  0  0  0  0  0  0  0
   16.2651   12.5118    1.6071 C   0  0  2  0  0  0  0  0  0  0  0  0
   15.3327   12.0497    0.6156 O   0  0  0  0  0  0  0  0  0  0  0  0
   15.7426   13.8496    2.1590 C   0  0  2  0  0  0  0  0  0  0  0  0
   14.3816   14.0684    1.8022 O   0  0  0  0  0  0  0  0  0  0  0  0
  1  2  1  0
  2  3  1  0
  3  4  2  0
  4  5  1  0
  5  6  2  0
  6  7  1  0
  7  8  2  0
  8  9  1  0
  9 10  1  0
 10 11  1  0
 11 12  1  0
 12 13  1  1
 12 14  1  0
 14 15  1  0
 15 16  1  0
 16 17  2  0
 18 16  1  6
 18 19  1  0
 20 19  1  1
 20 21  1  0
 22 21  1  6
 22 23  1  0
 23 24  1  6
 23 25  1  0
 25 26  1  6
  8  3  1  0
 22 18  1  0
 12  7  1  0
 25 20  1  0
M  END
>  <energy_score>  (235) 
-17.669053

>  <inchikey>  (235) 
None

>  <smiles>  (235) 
None

>  <ref_pdb>  (235) 
A0239a

>  <alias>  (235) 
None

>  <HIPPO Pose ID>  (235) 
498034

>  <name>  (235) 
P498034

>  <HIPPO Compound ID>  (235) 
290348

>  <ref_mols>  (235) 
A0239a,A0608a

>  <distance_score>  (235) 
1.688142

>  <inspiration_score>  (235) 
None

$$$$
P498047
     RDKit          3D

 26 29  0  0  0  0  0  0  0  0999 V2000
   23.3625   11.3190   -2.6256 C   0  0  0  0  0  0  0  0  0  0  0  0
   23.4607   12.6173   -2.0531 O   0  0  0  0  0  0  0  0  0  0  0  0
   24.0973   12.7096   -0.8471 C   0  0  0  0  0  0  0  0  0  0  0  0
   24.9290   11.7253   -0.3117 C   0  0  0  0  0  0  0  0  0  0  0  0
   25.4770   11.8923    0.9547 C   0  0  0  0  0  0  0  0  0  0  0  0
   25.1352   13.0089    1.7086 C   0  0  0  0  0  0  0  0  0  0  0  0
   24.2940   14.0116    1.1800 C   0  0  0  0  0  0  0  0  0  0  0  0
   23.8688   13.9051   -0.1493 C   0  0  0  0  0  0  0  0  0  0  0  0
   23.1480   15.0505   -0.8349 C   0  0  0  0  0  0  0  0  0  0  0  0
   23.3788   16.4009   -0.1518 C   0  0  0  0  0  0  0  0  0  0  0  0
   23.0231   16.2964    1.3169 C   0  0  0  0  0  0  0  0  0  0  0  0
   23.8718   15.2081    2.0168 C   0  0  2  0  0  0  0  0  0  0  0  0
   25.0886   15.8988    2.3713 O   0  0  0  0  0  0  0  0  0  0  0  0
   23.1848   14.7568    3.3262 C   0  0  0  0  0  0  0  0  0  0  0  0
   21.7572   14.4854    3.3266 N   0  0  0  0  0  0  0  0  0  0  0  0
   20.8341   14.0275    2.2010 C   0  0  0  0  0  0  0  0  0  0  0  0
   21.0748   13.7188    1.1096 O   0  0  0  0  0  0  0  0  0  0  0  0
   19.4298   14.0114    2.6930 C   0  0  1  0  0  0  0  0  0  0  0  0
   18.5097   15.1754    2.4242 C   0  0  0  0  0  0  0  0  0  0  0  0
   18.2857   13.8733    1.7104 C   0  0  2  0  0  0  0  0  0  0  0  0
   17.1842   12.9352    2.0687 C   0  0  2  0  0  0  0  0  0  0  0  0
   17.3359   11.6070    1.3306 C   0  0  0  0  0  0  0  0  0  0  0  0
   16.3406   11.7350    0.2051 C   0  0  0  0  0  0  0  0  0  0  0  0
   15.2382   12.5092    0.8960 C   0  0  2  0  0  0  0  0  0  0  0  0
   14.2585   13.1667   -0.0457 C   0  0  0  0  0  0  0  0  0  0  0  0
   15.9141   13.4960    1.6918 O   0  0  0  0  0  0  0  0  0  0  0  0
  1  2  1  0
  2  3  1  0
  3  4  2  0
  4  5  1  0
  5  6  2  0
  6  7  1  0
  7  8  2  0
  8  9  1  0
  9 10  1  0
 10 11  1  0
 11 12  1  0
 12 13  1  1
 12 14  1  0
 14 15  1  0
 15 16  1  0
 16 17  2  0
 18 16  1  6
 18 19  1  0
 20 19  1  1
 20 21  1  0
 21 22  1  6
 22 23  1  0
 23 24  1  0
 24 25  1  6
 24 26  1  0
  8  3  1  0
 20 18  1  0
 26 21  1  0
 12  7  1  0
M  END
>  <energy_score>  (236) 
-28.048164

>  <inchikey>  (236) 
None

>  <smiles>  (236) 
None

>  <ref_pdb>  (236) 
A0239a

>  <alias>  (236) 
None

>  <HIPPO Pose ID>  (236) 
498047

>  <name>  (236) 
P498047

>  <HIPPO Compound ID>  (236) 
290349

>  <ref_mols>  (236) 
A0239a,A0608a

>  <distance_score>  (236) 
1.575513

>  <inspiration_score>  (236) 
None

$$$$
P498054
     RDKit          3D

 26 29  0  0  0  0  0  0  0  0999 V2000
   24.3879   10.8914   -2.0796 C   0  0  0  0  0  0  0  0  0  0  0  0
   24.5548   11.0596   -0.6780 O   0  0  0  0  0  0  0  0  0  0  0  0
   24.4758   12.3124   -0.1677 C   0  0  0  0  0  0  0  0  0  0  0  0
   24.5323   12.4011    1.2199 C   0  0  0  0  0  0  0  0  0  0  0  0
   24.3118   13.6082    1.8684 C   0  0  0  0  0  0  0  0  0  0  0  0
   24.0620   14.7645    1.1193 C   0  0  0  0  0  0  0  0  0  0  0  0
   24.1580   14.6947   -0.2877 C   0  0  0  0  0  0  0  0  0  0  0  0
   24.3383   13.4614   -0.9203 C   0  0  0  0  0  0  0  0  0  0  0  0
   23.9685   15.9081   -1.1723 C   0  0  0  0  0  0  0  0  0  0  0  0
   24.0101   17.2357   -0.4244 C   0  0  0  0  0  0  0  0  0  0  0  0
   23.1545   17.1413    0.8211 C   0  0  0  0  0  0  0  0  0  0  0  0
   23.7301   16.0920    1.7951 C   0  0  2  0  0  0  0  0  0  0  0  0
   24.9640   16.6359    2.2830 O   0  0  0  0  0  0  0  0  0  0  0  0
   22.7566   16.0077    2.9946 C   0  0  0  0  0  0  0  0  0  0  0  0
   21.3721   15.7508    2.6560 N   0  0  0  0  0  0  0  0  0  0  0  0
   20.5017   14.5308    2.9130 C   0  0  0  0  0  0  0  0  0  0  0  0
   20.7241   13.5600    3.5046 O   0  0  0  0  0  0  0  0  0  0  0  0
   19.1476   14.6951    2.3309 C   0  0  1  0  0  0  0  0  0  0  0  0
   18.8475   15.0208    0.8931 C   0  0  0  0  0  0  0  0  0  0  0  0
   18.7441   13.5969    1.3650 C   0  0  2  0  0  0  0  0  0  0  0  0
   17.5014   12.8464    1.6766 C   0  0  2  0  0  0  0  0  0  0  0  0
   17.2872   11.6925    0.7206 C   0  0  0  0  0  0  0  0  0  0  0  0
   15.8352   11.3863    0.9562 C   0  0  0  0  0  0  0  0  0  0  0  0
   15.2292   12.7517    1.2472 C   0  0  2  0  0  0  0  0  0  0  0  0
   14.4576   13.3083    0.0678 C   0  0  0  0  0  0  0  0  0  0  0  0
   16.3116   13.6457    1.5789 O   0  0  0  0  0  0  0  0  0  0  0  0
  1  2  1  0
  2  3  1  0
  3  4  2  0
  4  5  1  0
  5  6  2  0
  6  7  1  0
  7  8  2  0
  7  9  1  0
  9 10  1  0
 10 11  1  0
 11 12  1  0
 12 13  1  1
 12 14  1  0
 14 15  1  0
 15 16  1  0
 16 17  2  0
 18 16  1  6
 18 19  1  0
 20 19  1  6
 20 21  1  0
 21 22  1  6
 22 23  1  0
 23 24  1  0
 24 25  1  6
 24 26  1  0
  8  3  1  0
 20 18  1  0
 26 21  1  0
 12  6  1  0
M  END
>  <energy_score>  (237) 
-28.453654

>  <inchikey>  (237) 
None

>  <smiles>  (237) 
None

>  <ref_pdb>  (237) 
A0239a

>  <alias>  (237) 
None

>  <HIPPO Pose ID>  (237) 
498054

>  <name>  (237) 
P498054

>  <HIPPO Compound ID>  (237) 
290350

>  <ref_mols>  (237) 
A0239a,A0608a

>  <distance_score>  (237) 
1.988091

>  <inspiration_score>  (237) 
None

$$$$
P498055
     RDKit          3D

 26 29  0  0  0  0  0  0  0  0999 V2000
   22.9674   11.3679   -2.1257 C   0  0  0  0  0  0  0  0  0  0  0  0
   23.7566   12.5497   -1.9762 O   0  0  0  0  0  0  0  0  0  0  0  0
   24.0934   12.7449   -0.6675 C   0  0  0  0  0  0  0  0  0  0  0  0
   24.9670   11.8778   -0.0162 C   0  0  0  0  0  0  0  0  0  0  0  0
   25.2498   12.0812    1.3272 C   0  0  0  0  0  0  0  0  0  0  0  0
   24.6100   13.1122    2.0160 C   0  0  0  0  0  0  0  0  0  0  0  0
   23.7434   14.0072    1.3487 C   0  0  0  0  0  0  0  0  0  0  0  0
   23.5675   13.8687   -0.0284 C   0  0  0  0  0  0  0  0  0  0  0  0
   22.8054   14.9096   -0.8082 C   0  0  0  0  0  0  0  0  0  0  0  0
   22.9496   16.2886   -0.1614 C   0  0  0  0  0  0  0  0  0  0  0  0
   22.3559   16.2334    1.2296 C   0  0  0  0  0  0  0  0  0  0  0  0
   22.9826   15.1024    2.0870 C   0  0  2  0  0  0  0  0  0  0  0  0
   23.9431   15.7995    2.9056 O   0  0  0  0  0  0  0  0  0  0  0  0
   21.8941   14.4672    3.0037 C   0  0  0  0  0  0  0  0  0  0  0  0
   20.5119   14.4127    2.5197 N   0  0  0  0  0  0  0  0  0  0  0  0
   19.8662   13.5417    1.4025 C   0  0  0  0  0  0  0  0  0  0  0  0
   20.3535   12.7950    0.6509 O   0  0  0  0  0  0  0  0  0  0  0  0
   18.3815   13.8958    1.3380 C   0  0  2  0  0  0  0  0  0  0  0  0
   17.5607   13.7642    2.6306 C   0  0  1  0  0  0  0  0  0  0  0  0
   16.4401   14.8016    2.5725 C   0  0  0  0  0  0  0  0  0  0  0  0
   15.5702   14.2416    1.4324 C   0  0  0  0  0  0  0  0  0  0  0  0
   16.2307   12.8893    1.1526 C   0  0  2  0  0  0  0  0  0  0  0  0
   16.7330   12.5817    2.4716 O   0  0  0  0  0  0  0  0  0  0  0  0
   17.5516   13.0237    0.3999 C   0  0  0  0  0  0  0  0  0  0  0  0
   18.0661   11.7893    0.2264 F   0  0  0  0  0  0  0  0  0  0  0  0
   17.3873   13.5981   -0.8072 F   0  0  0  0  0  0  0  0  0  0  0  0
  1  2  1  0
  2  3  1  0
  3  4  2  0
  4  5  1  0
  5  6  2  0
  6  7  1  0
  7  8  2  0
  8  9  1  0
  9 10  1  0
 10 11  1  0
 11 12  1  0
 12 13  1  1
 12 14  1  0
 14 15  1  0
 15 16  1  0
 16 17  2  0
 18 16  1  1
 18 19  1  0
 19 20  1  6
 20 21  1  0
 22 21  1  1
 22 23  1  0
 22 24  1  0
 24 25  1  0
 24 26  1  0
  8  3  1  0
 24 18  1  0
 12  7  1  0
 23 19  1  0
M  END
>  <energy_score>  (238) 
-7.166848

>  <inchikey>  (238) 
None

>  <smiles>  (238) 
None

>  <ref_pdb>  (238) 
A0239a

>  <alias>  (238) 
None

>  <HIPPO Pose ID>  (238) 
498055

>  <name>  (238) 
P498055

>  <HIPPO Compound ID>  (238) 
290351

>  <ref_mols>  (238) 
A0239a,A0608a

>  <distance_score>  (238) 
1.717372

>  <inspiration_score>  (238) 
None

$$$$
P498057
     RDKit          3D

 26 29  0  0  0  0  0  0  0  0999 V2000
   23.7224   11.4132   -2.5082 C   0  0  0  0  0  0  0  0  0  0  0  0
   23.6616   12.6847   -1.8731 O   0  0  0  0  0  0  0  0  0  0  0  0
   24.2369   12.7941   -0.6389 C   0  0  0  0  0  0  0  0  0  0  0  0
   24.9625   11.7914    0.0007 C   0  0  0  0  0  0  0  0  0  0  0  0
   25.4121   11.9822    1.3036 C   0  0  0  0  0  0  0  0  0  0  0  0
   25.0692   13.1421    1.9911 C   0  0  0  0  0  0  0  0  0  0  0  0
   24.3500   14.1700    1.3517 C   0  0  0  0  0  0  0  0  0  0  0  0
   24.0374   14.0304   -0.0065 C   0  0  0  0  0  0  0  0  0  0  0  0
   23.5030   15.2030   -0.8029 C   0  0  0  0  0  0  0  0  0  0  0  0
   23.7997   16.5475   -0.1381 C   0  0  0  0  0  0  0  0  0  0  0  0
   23.2457   16.5360    1.2686 C   0  0  0  0  0  0  0  0  0  0  0  0
   23.8706   15.4004    2.1187 C   0  0  2  0  0  0  0  0  0  0  0  0
   25.0009   15.9892    2.7624 O   0  0  0  0  0  0  0  0  0  0  0  0
   22.8252   14.9682    3.1773 C   0  0  0  0  0  0  0  0  0  0  0  0
   21.6098   14.4546    2.5745 N   0  0  0  0  0  0  0  0  0  0  0  0
   20.2203   15.1115    2.3975 C   0  0  0  0  0  0  0  0  0  0  0  0
   19.8140   16.1412    2.7785 O   0  0  0  0  0  0  0  0  0  0  0  0
   19.3217   14.1670    1.4713 C   0  0  2  0  0  0  0  0  0  0  0  0
   20.0425   13.7058    0.1928 C   0  0  0  0  0  0  0  0  0  0  0  0
   17.9378   14.7911    1.0860 C   0  0  0  0  0  0  0  0  0  0  0  0
   17.2824   13.4248    1.3337 C   0  0  1  0  0  0  0  0  0  0  0  0
   15.9044   13.4638    1.9676 C   0  0  0  0  0  0  0  0  0  0  0  0
   15.3125   12.1414    1.5189 C   0  0  0  0  0  0  0  0  0  0  0  0
   15.8646   11.9524    0.1246 C   0  0  0  0  0  0  0  0  0  0  0  0
   17.1561   12.5565    0.1772 O   0  0  0  0  0  0  0  0  0  0  0  0
   18.4953   13.0767    2.2244 C   0  0  0  0  0  0  0  0  0  0  0  0
  1  2  1  0
  2  3  1  0
  3  4  2  0
  4  5  1  0
  5  6  2  0
  6  7  1  0
  7  8  2  0
  8  9  1  0
  9 10  1  0
 10 11  1  0
 11 12  1  0
 12 13  1  1
 12 14  1  0
 14 15  1  0
 15 16  1  0
 16 17  2  0
 16 18  1  0
 18 19  1  6
 18 20  1  0
 21 20  1  6
 21 22  1  0
 22 23  1  0
 23 24  1  0
 24 25  1  0
 21 26  1  0
  8  3  1  0
 26 18  1  0
 12  7  1  0
 21 25  1  0
M  END
>  <energy_score>  (239) 
-40.869622

>  <inchikey>  (239) 
None

>  <smiles>  (239) 
None

>  <ref_pdb>  (239) 
A0239a

>  <alias>  (239) 
None

>  <HIPPO Pose ID>  (239) 
498057

>  <name>  (239) 
P498057

>  <HIPPO Compound ID>  (239) 
290353

>  <ref_mols>  (239) 
A0239a,A0608a

>  <distance_score>  (239) 
1.889063

>  <inspiration_score>  (239) 
None

$$$$
P498058
     RDKit          3D

 26 29  0  0  0  0  0  0  0  0999 V2000
   23.9411   11.1602   -2.5349 C   0  0  0  0  0  0  0  0  0  0  0  0
   23.4817   12.3338   -1.8756 O   0  0  0  0  0  0  0  0  0  0  0  0
   23.9949   12.6006   -0.6378 C   0  0  0  0  0  0  0  0  0  0  0  0
   24.9958   11.8578   -0.0108 C   0  0  0  0  0  0  0  0  0  0  0  0
   25.3800   12.1677    1.2898 C   0  0  0  0  0  0  0  0  0  0  0  0
   24.7512   13.2079    1.9701 C   0  0  0  0  0  0  0  0  0  0  0  0
   23.7766   13.9991    1.3318 C   0  0  0  0  0  0  0  0  0  0  0  0
   23.4214   13.7092    0.0064 C   0  0  0  0  0  0  0  0  0  0  0  0
   22.3525   14.5225   -0.6955 C   0  0  0  0  0  0  0  0  0  0  0  0
   22.2101   15.9842   -0.2512 C   0  0  0  0  0  0  0  0  0  0  0  0
   22.8258   16.3188    1.0924 C   0  0  0  0  0  0  0  0  0  0  0  0
   23.0344   15.1260    2.0315 C   0  0  2  0  0  0  0  0  0  0  0  0
   23.8591   15.6789    3.0714 O   0  0  0  0  0  0  0  0  0  0  0  0
   21.7141   14.6136    2.6782 C   0  0  0  0  0  0  0  0  0  0  0  0
   20.4556   14.7093    1.9436 N   0  0  0  0  0  0  0  0  0  0  0  0
   19.4348   13.6032    1.5371 C   0  0  0  0  0  0  0  0  0  0  0  0
   19.4872   12.4443    1.6619 O   0  0  0  0  0  0  0  0  0  0  0  0
   18.1871   14.3090    0.9911 C   0  0  2  0  0  0  0  0  0  0  0  0
   17.6030   15.1716    2.1276 C   0  0  0  0  0  0  0  0  0  0  0  0
   16.1829   14.6462    2.2465 C   0  0  2  0  0  0  0  0  0  0  0  0
   15.2158   15.5987    2.9142 C   0  0  0  0  0  0  0  0  0  0  0  0
   16.1591   13.2262    2.8031 C   0  0  0  0  0  0  0  0  0  0  0  0
   16.5778   12.3713    1.6237 C   0  0  0  0  0  0  0  0  0  0  0  0
   16.9398   13.4465    0.6072 C   0  0  2  0  0  0  0  0  0  0  0  0
   16.8063   12.9563   -0.8107 C   0  0  0  0  0  0  0  0  0  0  0  0
   15.8633   14.4063    0.8696 O   0  0  0  0  0  0  0  0  0  0  0  0
  1  2  1  0
  2  3  1  0
  3  4  2  0
  4  5  1  0
  5  6  2  0
  6  7  1  0
  7  8  2  0
  8  9  1  0
  9 10  1  0
 10 11  1  0
 11 12  1  0
 12 13  1  1
 12 14  1  0
 14 15  1  0
 15 16  1  0
 16 17  2  0
 18 16  1  1
 18 19  1  0
 19 20  1  0
 20 21  1  1
 20 22  1  0
 22 23  1  0
 23 24  1  0
 24 25  1  6
 24 26  1  0
  8  3  1  0
 24 18  1  0
 12  7  1  0
 26 20  1  0
M  END
>  <energy_score>  (240) 
-23.384514

>  <inchikey>  (240) 
None

>  <smiles>  (240) 
None

>  <ref_pdb>  (240) 
A0239a

>  <alias>  (240) 
None

>  <HIPPO Pose ID>  (240) 
498058

>  <name>  (240) 
P498058

>  <HIPPO Compound ID>  (240) 
290355

>  <ref_mols>  (240) 
A0239a,A0608a

>  <distance_score>  (240) 
1.933858

>  <inspiration_score>  (240) 
None

$$$$
P498060
     RDKit          3D

 27 31  0  0  0  0  0  0  0  0999 V2000
   23.7729   11.1972   -2.4549 C   0  0  0  0  0  0  0  0  0  0  0  0
   23.2983   12.3596   -1.7862 O   0  0  0  0  0  0  0  0  0  0  0  0
   23.8477   12.6548   -0.5695 C   0  0  0  0  0  0  0  0  0  0  0  0
   24.7794   11.8619    0.0990 C   0  0  0  0  0  0  0  0  0  0  0  0
   25.2079   12.2191    1.3728 C   0  0  0  0  0  0  0  0  0  0  0  0
   24.7009   13.3654    1.9795 C   0  0  0  0  0  0  0  0  0  0  0  0
   23.8125   14.2150    1.2904 C   0  0  0  0  0  0  0  0  0  0  0  0
   23.3945   13.8605   -0.0014 C   0  0  0  0  0  0  0  0  0  0  0  0
   22.4784   14.7518   -0.8236 C   0  0  0  0  0  0  0  0  0  0  0  0
   22.2333   16.1826   -0.3298 C   0  0  0  0  0  0  0  0  0  0  0  0
   23.1286   16.5927    0.8118 C   0  0  0  0  0  0  0  0  0  0  0  0
   23.3044   15.5143    1.8871 C   0  0  2  0  0  0  0  0  0  0  0  0
   24.3159   16.0819    2.7388 O   0  0  0  0  0  0  0  0  0  0  0  0
   22.0301   15.3398    2.7518 C   0  0  0  0  0  0  0  0  0  0  0  0
   20.8062   14.7870    2.1887 N   0  0  0  0  0  0  0  0  0  0  0  0
   19.7540   13.8542    2.8096 C   0  0  0  0  0  0  0  0  0  0  0  0
   19.7371   13.3178    3.8429 O   0  0  0  0  0  0  0  0  0  0  0  0
   18.6172   13.5454    1.8133 C   0  0  1  0  0  0  0  0  0  0  0  0
   17.4063   12.9691    2.6105 C   0  0  0  0  0  0  0  0  0  0  0  0
   16.2407   13.8256    2.1460 C   0  0  1  0  0  0  0  0  0  0  0  0
   16.9117   15.0935    1.9957 O   0  0  0  0  0  0  0  0  0  0  0  0
   17.8948   14.6453    1.0324 C   0  0  2  0  0  0  0  0  0  0  0  0
   16.9962   14.0790   -0.0518 C   0  0  2  0  0  0  0  0  0  0  0  0
   15.8395   13.5162    0.7388 C   0  0  1  0  0  0  0  0  0  0  0  0
   16.5951   12.6564   -0.2007 C   0  0  0  0  0  0  0  0  0  0  0  0
   17.4121   11.6362    0.2202 F   0  0  0  0  0  0  0  0  0  0  0  0
   16.0071   12.2424   -1.3735 F   0  0  0  0  0  0  0  0  0  0  0  0
  1  2  1  0
  2  3  1  0
  3  4  2  0
  4  5  1  0
  5  6  2  0
  6  7  1  0
  7  8  2  0
  8  9  1  0
  9 10  1  0
 10 11  1  0
 11 12  1  0
 12 13  1  1
 12 14  1  0
 14 15  1  0
 15 16  1  0
 16 17  2  0
 18 16  1  1
 18 19  1  0
 20 19  1  6
 20 21  1  0
 22 21  1  1
 22 23  1  0
 23 24  1  0
 24 25  1  1
 25 26  1  0
 25 27  1  0
  8  3  1  0
 22 18  1  0
 23 25  1  1
 12  7  1  0
 24 20  1  0
M  END
>  <energy_score>  (241) 
-9.824695

>  <inchikey>  (241) 
None

>  <smiles>  (241) 
None

>  <ref_pdb>  (241) 
A0239a

>  <alias>  (241) 
None

>  <HIPPO Pose ID>  (241) 
498060

>  <name>  (241) 
P498060

>  <HIPPO Compound ID>  (241) 
290361

>  <ref_mols>  (241) 
A0239a,A0608a

>  <distance_score>  (241) 
1.882565

>  <inspiration_score>  (241) 
None

$$$$
P498063
     RDKit          3D

 27 30  0  0  0  0  0  0  0  0999 V2000
   23.9287   11.2485   -2.6308 C   0  0  0  0  0  0  0  0  0  0  0  0
   23.7195   12.5424   -2.0768 O   0  0  0  0  0  0  0  0  0  0  0  0
   24.0325   12.6977   -0.7569 C   0  0  0  0  0  0  0  0  0  0  0  0
   24.8826   11.8555   -0.0421 C   0  0  0  0  0  0  0  0  0  0  0  0
   25.0932   12.0779    1.3123 C   0  0  0  0  0  0  0  0  0  0  0  0
   24.3951   13.0938    1.9610 C   0  0  0  0  0  0  0  0  0  0  0  0
   23.5370   13.9590    1.2490 C   0  0  0  0  0  0  0  0  0  0  0  0
   23.4475   13.8137   -0.1396 C   0  0  0  0  0  0  0  0  0  0  0  0
   22.7328   14.8512   -0.9836 C   0  0  0  0  0  0  0  0  0  0  0  0
   22.7042   16.2274   -0.3133 C   0  0  0  0  0  0  0  0  0  0  0  0
   22.0468   16.1032    1.0448 C   0  0  0  0  0  0  0  0  0  0  0  0
   22.8026   15.0989    1.9364 C   0  0  2  0  0  0  0  0  0  0  0  0
   23.8531   15.9116    2.5311 O   0  0  0  0  0  0  0  0  0  0  0  0
   21.8766   14.6360    3.0874 C   0  0  0  0  0  0  0  0  0  0  0  0
   20.5018   14.1409    2.9454 N   0  0  0  0  0  0  0  0  0  0  0  0
   19.7302   13.6435    1.6852 C   0  0  0  0  0  0  0  0  0  0  0  0
   20.0480   13.6266    0.5625 O   0  0  0  0  0  0  0  0  0  0  0  0
   18.3734   13.1090    2.1832 C   0  0  2  0  0  0  0  0  0  0  0  0
   17.5021   12.2046    1.2783 C   0  0  2  0  0  0  0  0  0  0  0  0
   18.0329   11.7829   -0.0615 C   0  0  0  0  0  0  0  0  0  0  0  0
   19.0509   10.9070    0.1215 F   0  0  0  0  0  0  0  0  0  0  0  0
   17.0608   11.0918   -0.7160 F   0  0  0  0  0  0  0  0  0  0  0  0
   16.1779   12.9649    1.2185 C   0  0  2  0  0  0  0  0  0  0  0  0
   16.2652   14.2806    0.4569 C   0  0  0  0  0  0  0  0  0  0  0  0
   17.0958   15.1508    1.3988 C   0  0  0  0  0  0  0  0  0  0  0  0
   17.3692   14.2002    2.5550 C   0  0  1  0  0  0  0  0  0  0  0  0
   16.1082   13.4604    2.5802 O   0  0  0  0  0  0  0  0  0  0  0  0
  1  2  1  0
  2  3  1  0
  3  4  2  0
  4  5  1  0
  5  6  2  0
  6  7  1  0
  7  8  2  0
  8  9  1  0
  9 10  1  0
 10 11  1  0
 11 12  1  0
 12 13  1  1
 12 14  1  0
 14 15  1  0
 15 16  1  0
 16 17  2  0
 18 16  1  6
 18 19  1  0
 19 20  1  6
 20 21  1  0
 20 22  1  0
 19 23  1  0
 23 24  1  6
 24 25  1  0
 26 25  1  6
 26 27  1  0
  8  3  1  0
 26 18  1  0
 12  7  1  0
 27 23  1  0
M  END
>  <energy_score>  (242) 
-14.110237

>  <inchikey>  (242) 
None

>  <smiles>  (242) 
None

>  <ref_pdb>  (242) 
A0239a

>  <alias>  (242) 
None

>  <HIPPO Pose ID>  (242) 
498063

>  <name>  (242) 
P498063

>  <HIPPO Compound ID>  (242) 
290364

>  <ref_mols>  (242) 
A0239a,A0608a

>  <distance_score>  (242) 
1.754233

>  <inspiration_score>  (242) 
None

$$$$
P498065
     RDKit          3D

 27 29  0  0  0  0  0  0  0  0999 V2000
   23.3729   11.4122   -2.4424 C   0  0  0  0  0  0  0  0  0  0  0  0
   23.2011   12.5856   -1.6575 O   0  0  0  0  0  0  0  0  0  0  0  0
   24.0098   12.7345   -0.5638 C   0  0  0  0  0  0  0  0  0  0  0  0
   24.9201   11.7794   -0.1089 C   0  0  0  0  0  0  0  0  0  0  0  0
   25.6489   12.0063    1.0549 C   0  0  0  0  0  0  0  0  0  0  0  0
   25.4470   13.1745    1.7820 C   0  0  0  0  0  0  0  0  0  0  0  0
   24.5542   14.1621    1.3240 C   0  0  0  0  0  0  0  0  0  0  0  0
   23.8562   13.9547    0.1203 C   0  0  0  0  0  0  0  0  0  0  0  0
   23.0039   15.0440   -0.5117 C   0  0  0  0  0  0  0  0  0  0  0  0
   22.7542   16.3196    0.2961 C   0  0  0  0  0  0  0  0  0  0  0  0
   23.8455   16.6020    1.3013 C   0  0  0  0  0  0  0  0  0  0  0  0
   24.2366   15.3922    2.1619 C   0  0  2  0  0  0  0  0  0  0  0  0
   25.4292   15.7939    2.8394 O   0  0  0  0  0  0  0  0  0  0  0  0
   23.1483   15.0081    3.2028 C   0  0  0  0  0  0  0  0  0  0  0  0
   21.9710   14.3903    2.6413 N   0  0  0  0  0  0  0  0  0  0  0  0
   20.5238   14.9256    2.5004 C   0  0  0  0  0  0  0  0  0  0  0  0
   20.0431   15.9175    2.8856 O   0  0  0  0  0  0  0  0  0  0  0  0
   19.7732   13.9342    1.6232 C   0  0  0  0  0  0  0  0  0  0  0  0
   18.4343   13.5330    2.2480 C   0  0  0  0  0  0  0  0  0  0  0  0
   17.2327   14.0506    1.4494 C   0  0  2  0  0  0  0  0  0  0  0  0
   17.1550   15.5819    1.4497 C   0  0  0  0  0  0  0  0  0  0  0  0
   15.9042   13.4460    1.9330 C   0  0  0  0  0  0  0  0  0  0  0  0
   15.4525   12.5417    0.7868 C   0  0  0  0  0  0  0  0  0  0  0  0
   13.9366   12.5244    0.6160 C   0  0  0  0  0  0  0  0  0  0  0  0
   15.9727   11.1153    0.9736 C   0  0  0  0  0  0  0  0  0  0  0  0
   16.1439   13.1692   -0.4076 C   0  0  0  0  0  0  0  0  0  0  0  0
   17.4095   13.6013    0.0901 O   0  0  0  0  0  0  0  0  0  0  0  0
  1  2  1  0
  2  3  1  0
  3  4  2  0
  4  5  1  0
  5  6  2  0
  6  7  1  0
  7  8  2  0
  8  9  1  0
  9 10  1  0
 10 11  1  0
 11 12  1  0
 12 13  1  1
 12 14  1  0
 14 15  1  0
 15 16  1  0
 16 17  2  0
 16 18  1  0
 18 19  1  0
 20 19  1  0
 20 21  1  6
 20 22  1  0
 22 23  1  0
 23 24  1  0
 23 25  1  0
 23 26  1  0
 26 27  1  0
  8  3  1  0
 27 20  1  0
 12  7  1  0
M  END
>  <energy_score>  (243) 
-39.139479

>  <inchikey>  (243) 
None

>  <smiles>  (243) 
None

>  <ref_pdb>  (243) 
A0239a

>  <alias>  (243) 
None

>  <HIPPO Pose ID>  (243) 
498065

>  <name>  (243) 
P498065

>  <HIPPO Compound ID>  (243) 
290367

>  <ref_mols>  (243) 
A0239a,A0608a

>  <distance_score>  (243) 
1.760466

>  <inspiration_score>  (243) 
None

$$$$
P498069
     RDKit          3D

 28 32  0  0  0  0  0  0  0  0999 V2000
   23.9806   11.2429   -2.5511 C   0  0  0  0  0  0  0  0  0  0  0  0
   23.7659   12.5381   -2.0023 O   0  0  0  0  0  0  0  0  0  0  0  0
   24.0698   12.7032   -0.6817 C   0  0  0  0  0  0  0  0  0  0  0  0
   24.8778   11.8444    0.0594 C   0  0  0  0  0  0  0  0  0  0  0  0
   25.0706   12.0785    1.4150 C   0  0  0  0  0  0  0  0  0  0  0  0
   24.3935   13.1234    2.0403 C   0  0  0  0  0  0  0  0  0  0  0  0
   23.5898   14.0140    1.3000 C   0  0  0  0  0  0  0  0  0  0  0  0
   23.5212   13.8505   -0.0887 C   0  0  0  0  0  0  0  0  0  0  0  0
   22.8830   14.9132   -0.9611 C   0  0  0  0  0  0  0  0  0  0  0  0
   22.9585   16.3005   -0.3214 C   0  0  0  0  0  0  0  0  0  0  0  0
   22.2891   16.2754    1.0348 C   0  0  0  0  0  0  0  0  0  0  0  0
   22.8990   15.1971    1.9547 C   0  0  2  0  0  0  0  0  0  0  0  0
   23.9608   15.9245    2.6317 O   0  0  0  0  0  0  0  0  0  0  0  0
   21.8573   14.8197    3.0410 C   0  0  0  0  0  0  0  0  0  0  0  0
   20.5780   14.1393    2.8146 N   0  0  0  0  0  0  0  0  0  0  0  0
   19.7765   13.9041    1.4998 C   0  0  0  0  0  0  0  0  0  0  0  0
   19.9770   14.2833    0.4138 O   0  0  0  0  0  0  0  0  0  0  0  0
   18.5415   13.0674    1.8516 C   0  0  1  0  0  0  0  0  0  0  0  0
   17.5613   13.7506    2.8017 C   0  0  1  0  0  0  0  0  0  0  0  0
   17.0180   15.0794    2.2688 C   0  0  0  0  0  0  0  0  0  0  0  0
   16.0379   14.6318    1.1741 C   0  0  0  0  0  0  0  0  0  0  0  0
   16.2567   13.1342    1.1922 C   0  0  1  0  0  0  0  0  0  0  0  0
   15.3031   12.2072    0.5052 C   0  0  0  0  0  0  0  0  0  0  0  0
   16.0899   11.0302    0.2504 O   0  0  0  0  0  0  0  0  0  0  0  0
   17.4231   11.2993    0.4088 C   0  0  0  0  0  0  0  0  0  0  0  0
   18.3198   10.4752    0.3132 O   0  0  0  0  0  0  0  0  0  0  0  0
   17.6260   12.7589    0.6644 C   0  0  2  0  0  0  0  0  0  0  0  0
   16.3918   12.9090    2.6204 O   0  0  0  0  0  0  0  0  0  0  0  0
  1  2  1  0
  2  3  1  0
  3  4  2  0
  4  5  1  0
  5  6  2  0
  6  7  1  0
  7  8  2  0
  8  9  1  0
  9 10  1  0
 10 11  1  0
 11 12  1  0
 12 13  1  1
 12 14  1  0
 14 15  1  0
 15 16  1  0
 16 17  2  0
 18 16  1  6
 18 19  1  0
 19 20  1  6
 20 21  1  0
 22 21  1  1
 22 23  1  0
 23 24  1  0
 24 25  1  0
 25 26  2  0
 27 25  1  1
 22 28  1  0
  8  3  1  0
 27 18  1  0
 12  7  1  0
 28 19  1  0
 27 22  1  0
M  END
>  <energy_score>  (244) 
-61.554834

>  <inchikey>  (244) 
None

>  <smiles>  (244) 
None

>  <ref_pdb>  (244) 
A0239a

>  <alias>  (244) 
None

>  <HIPPO Pose ID>  (244) 
498069

>  <name>  (244) 
P498069

>  <HIPPO Compound ID>  (244) 
290373

>  <ref_mols>  (244) 
A0239a,A0608a

>  <distance_score>  (244) 
1.743247

>  <inspiration_score>  (244) 
None

$$$$
P498070
     RDKit          3D

 28 30  0  0  0  0  0  0  0  0999 V2000
   24.8582   11.7884   -0.8569 C   0  0  0  0  0  0  0  0  0  0  0  0
   25.1613   12.1677    0.4842 O   0  0  0  0  0  0  0  0  0  0  0  0
   26.2781   12.9393    0.5901 C   0  0  0  0  0  0  0  0  0  0  0  0
   27.0466   13.1915   -0.3300 O   0  0  0  0  0  0  0  0  0  0  0  0
   26.5067   13.3884    2.0121 C   0  0  0  0  0  0  0  0  0  0  0  0
   25.2975   14.0377    2.6862 C   0  0  0  0  0  0  0  0  0  0  0  0
   24.8143   15.3180    1.9563 C   0  0  2  0  0  0  0  0  0  0  0  0
   23.7340   16.0849    2.7048 C   0  0  0  0  0  0  0  0  0  0  0  0
   22.4750   15.3124    2.3748 C   0  0  0  0  0  0  0  0  0  0  0  0
   22.8305   14.5597    1.0877 C   0  0  1  0  0  0  0  0  0  0  0  0
   21.6811   14.6930    0.0552 C   0  0  0  0  0  0  0  0  0  0  0  0
   21.6898   15.3966   -0.8761 O   0  0  0  0  0  0  0  0  0  0  0  0
   20.5615   13.7613    0.6044 N   0  0  0  0  0  0  0  0  0  0  0  0
   19.2638   13.4378    0.0638 C   0  0  0  0  0  0  0  0  0  0  0  0
   18.2699   13.0732    1.2055 C   0  0  1  0  0  0  0  0  0  0  0  0
   18.8416   11.9834    1.9585 O   0  0  0  0  0  0  0  0  0  0  0  0
   18.1699   14.2726    2.1697 C   0  0  0  0  0  0  0  0  0  0  0  0
   16.9576   14.1827    3.0808 C   0  0  0  0  0  0  0  0  0  0  0  0
   15.6865   14.1828    2.2471 C   0  0  0  0  0  0  0  0  0  0  0  0
   15.7046   13.1076    1.1960 C   0  0  0  0  0  0  0  0  0  0  0  0
   14.4803   12.6423    0.6965 C   0  0  0  0  0  0  0  0  0  0  0  0
   14.4483   11.6570   -0.2848 C   0  0  0  0  0  0  0  0  0  0  0  0
   15.6318   11.1225   -0.7852 C   0  0  0  0  0  0  0  0  0  0  0  0
   15.4552   10.1691   -1.7481 O   0  0  0  0  0  0  0  0  0  0  0  0
   16.6220    9.6730   -2.3881 C   0  0  0  0  0  0  0  0  0  0  0  0
   16.8558   11.5802   -0.2889 C   0  0  0  0  0  0  0  0  0  0  0  0
   16.9144   12.6001    0.6812 C   0  0  0  0  0  0  0  0  0  0  0  0
   24.1445   14.9821    0.7316 O   0  0  0  0  0  0  0  0  0  0  0  0
  1  2  1  0
  2  3  1  0
  3  4  2  0
  3  5  1  0
  5  6  1  0
  7  6  1  1
  7  8  1  0
  8  9  1  0
  9 10  1  0
 10 11  1  6
 11 12  2  0
 11 13  1  0
 13 14  1  0
 14 15  1  0
 15 16  1  1
 15 17  1  0
 17 18  1  0
 18 19  1  0
 19 20  1  0
 20 21  2  0
 21 22  1  0
 22 23  2  0
 23 24  1  0
 24 25  1  0
 23 26  1  0
 26 27  2  0
 10 28  1  0
 28  7  1  0
 27 15  1  0
 27 20  1  0
M  END
>  <energy_score>  (245) 
-33.403236

>  <inchikey>  (245) 
None

>  <smiles>  (245) 
None

>  <ref_pdb>  (245) 
A0239a

>  <alias>  (245) 
None

>  <HIPPO Pose ID>  (245) 
498070

>  <name>  (245) 
P498070

>  <HIPPO Compound ID>  (245) 
290375

>  <ref_mols>  (245) 
A0239a,A0608a

>  <distance_score>  (245) 
1.91434

>  <inspiration_score>  (245) 
None

$$$$
P498077
     RDKit          3D

 28 31  0  0  0  0  0  0  0  0999 V2000
   23.9402   11.2324   -2.4306 C   0  0  0  0  0  0  0  0  0  0  0  0
   23.4379   12.3893   -1.7736 O   0  0  0  0  0  0  0  0  0  0  0  0
   23.9155   12.6597   -0.5222 C   0  0  0  0  0  0  0  0  0  0  0  0
   24.8801   11.9051    0.1438 C   0  0  0  0  0  0  0  0  0  0  0  0
   25.2275   12.2232    1.4527 C   0  0  0  0  0  0  0  0  0  0  0  0
   24.6033   13.2880    2.1005 C   0  0  0  0  0  0  0  0  0  0  0  0
   23.6728   14.0992    1.4233 C   0  0  0  0  0  0  0  0  0  0  0  0
   23.3488   13.7901    0.0921 C   0  0  0  0  0  0  0  0  0  0  0  0
   22.3340   14.6283   -0.6560 C   0  0  0  0  0  0  0  0  0  0  0  0
   22.3111   16.1169   -0.2932 C   0  0  0  0  0  0  0  0  0  0  0  0
   22.8998   16.4671    1.0589 C   0  0  0  0  0  0  0  0  0  0  0  0
   23.0069   15.3093    2.0618 C   0  0  2  0  0  0  0  0  0  0  0  0
   23.8744   15.8553    3.0734 O   0  0  0  0  0  0  0  0  0  0  0  0
   21.6416   15.0021    2.7494 C   0  0  0  0  0  0  0  0  0  0  0  0
   20.4286   14.8375    1.9560 N   0  0  0  0  0  0  0  0  0  0  0  0
   19.4090   13.6753    1.9096 C   0  0  0  0  0  0  0  0  0  0  0  0
   19.3396   12.7072    2.5521 O   0  0  0  0  0  0  0  0  0  0  0  0
   18.3275   14.0195    0.8878 C   0  0  1  0  0  0  0  0  0  0  0  0
   17.4956   12.8789    0.2532 C   0  0  1  0  0  0  0  0  0  0  0  0
   17.8909   11.4453    0.4464 C   0  0  0  0  0  0  0  0  0  0  0  0
   17.7592   10.9990    1.7008 F   0  0  0  0  0  0  0  0  0  0  0  0
   19.1638   11.2507    0.0428 F   0  0  0  0  0  0  0  0  0  0  0  0
   17.1110   10.6654   -0.3414 F   0  0  0  0  0  0  0  0  0  0  0  0
   16.0679   13.2032    0.6871 C   0  0  1  0  0  0  0  0  0  0  0  0
   15.7915   13.0591    2.1762 C   0  0  0  0  0  0  0  0  0  0  0  0
   16.6017   14.2039    2.7787 C   0  0  0  0  0  0  0  0  0  0  0  0
   17.2124   14.8497    1.5358 C   0  0  2  0  0  0  0  0  0  0  0  0
   16.1129   14.6497    0.5946 O   0  0  0  0  0  0  0  0  0  0  0  0
  1  2  1  0
  2  3  1  0
  3  4  2  0
  4  5  1  0
  5  6  2  0
  6  7  1  0
  7  8  2  0
  8  9  1  0
  9 10  1  0
 10 11  1  0
 11 12  1  0
 12 13  1  1
 12 14  1  0
 14 15  1  0
 15 16  1  0
 16 17  2  0
 18 16  1  1
 18 19  1  0
 19 20  1  1
 20 21  1  0
 20 22  1  0
 20 23  1  0
 19 24  1  0
 24 25  1  1
 25 26  1  0
 27 26  1  1
 27 28  1  0
  8  3  1  0
 27 18  1  0
 12  7  1  0
 28 24  1  0
M  END
>  <energy_score>  (246) 
-17.101132

>  <inchikey>  (246) 
None

>  <smiles>  (246) 
None

>  <ref_pdb>  (246) 
A0239a

>  <alias>  (246) 
None

>  <HIPPO Pose ID>  (246) 
498077

>  <name>  (246) 
P498077

>  <HIPPO Compound ID>  (246) 
290380

>  <ref_mols>  (246) 
A0239a,A0608a

>  <distance_score>  (246) 
1.966123

>  <inspiration_score>  (246) 
None

$$$$
P498084
     RDKit          3D

 29 32  0  0  0  0  0  0  0  0999 V2000
   23.0011   11.8418   -2.2403 C   0  0  0  0  0  0  0  0  0  0  0  0
   24.0832   12.7598   -2.0764 O   0  0  0  0  0  0  0  0  0  0  0  0
   24.4188   12.8588   -0.7561 C   0  0  0  0  0  0  0  0  0  0  0  0
   25.1122   11.8264   -0.1304 C   0  0  0  0  0  0  0  0  0  0  0  0
   25.3786   11.9173    1.2271 C   0  0  0  0  0  0  0  0  0  0  0  0
   24.8677   12.9906    1.9548 C   0  0  0  0  0  0  0  0  0  0  0  0
   24.1643   14.0359    1.3160 C   0  0  0  0  0  0  0  0  0  0  0  0
   24.0675   14.0267   -0.0771 C   0  0  0  0  0  0  0  0  0  0  0  0
   23.5628   15.2274   -0.8484 C   0  0  0  0  0  0  0  0  0  0  0  0
   23.5815   16.5182   -0.0251 C   0  0  0  0  0  0  0  0  0  0  0  0
   22.8539   16.2975    1.2864 C   0  0  0  0  0  0  0  0  0  0  0  0
   23.5178   15.1638    2.1028 C   0  0  2  0  0  0  0  0  0  0  0  0
   24.5815   15.8323    2.8109 O   0  0  0  0  0  0  0  0  0  0  0  0
   22.5080   14.6237    3.1476 C   0  0  0  0  0  0  0  0  0  0  0  0
   21.1574   14.2376    2.7500 N   0  0  0  0  0  0  0  0  0  0  0  0
   20.5932   13.8308    1.3639 C   0  0  0  0  0  0  0  0  0  0  0  0
   21.1034   13.8165    0.3147 O   0  0  0  0  0  0  0  0  0  0  0  0
   19.1366   13.4094    1.5018 C   0  0  0  0  0  0  0  0  0  0  0  0
   18.2324   14.3427    2.2895 C   0  0  0  0  0  0  0  0  0  0  0  0
   16.7479   14.1607    1.9847 C   0  0  2  0  0  0  0  0  0  0  0  0
   16.1842   12.8103    2.3642 C   0  0  0  0  0  0  0  0  0  0  0  0
   15.0414   12.6378    1.3950 C   0  0  0  0  0  0  0  0  0  0  0  0
   15.5910   13.2888    0.1388 C   0  0  2  0  0  0  0  0  0  0  0  0
   16.3450   12.3179   -0.7952 C   0  0  0  0  0  0  0  0  0  0  0  0
   17.2926   11.4867   -0.1053 O   0  0  0  0  0  0  0  0  0  0  0  0
   17.3227   10.3066   -0.9050 C   0  0  0  0  0  0  0  0  0  0  0  0
   15.8802   10.1433   -1.3012 C   0  0  0  0  0  0  0  0  0  0  0  0
   15.4172   11.4817   -1.5088 O   0  0  0  0  0  0  0  0  0  0  0  0
   16.4723   14.3425    0.5940 O   0  0  0  0  0  0  0  0  0  0  0  0
  1  2  1  0
  2  3  1  0
  3  4  2  0
  4  5  1  0
  5  6  2  0
  6  7  1  0
  7  8  2  0
  8  9  1  0
  9 10  1  0
 10 11  1  0
 11 12  1  0
 12 13  1  1
 12 14  1  0
 14 15  1  0
 15 16  1  0
 16 17  2  0
 16 18  1  0
 18 19  1  0
 20 19  1  6
 20 21  1  0
 21 22  1  0
 22 23  1  0
 23 24  1  1
 24 25  1  0
 25 26  1  0
 26 27  1  0
 27 28  1  0
 23 29  1  0
  8  3  1  0
 29 20  1  0
 12  7  1  0
 28 24  1  0
M  END
>  <energy_score>  (247) 
-28.679124

>  <inchikey>  (247) 
None

>  <smiles>  (247) 
None

>  <ref_pdb>  (247) 
A0239a

>  <alias>  (247) 
None

>  <HIPPO Pose ID>  (247) 
498084

>  <name>  (247) 
P498084

>  <HIPPO Compound ID>  (247) 
290388

>  <ref_mols>  (247) 
A0239a,A0608a

>  <distance_score>  (247) 
1.682902

>  <inspiration_score>  (247) 
None

$$$$
P498085
     RDKit          3D

 31 33  0  0  0  0  0  0  0  0999 V2000
   28.4394   12.3888    2.8083 C   0  0  0  0  0  0  0  0  0  0  0  0
   27.1799   13.0179    3.0191 O   0  0  0  0  0  0  0  0  0  0  0  0
   26.2444   12.8696    2.0258 C   0  0  0  0  0  0  0  0  0  0  0  0
   26.3424   11.9058    1.0202 C   0  0  0  0  0  0  0  0  0  0  0  0
   25.4090   11.8688   -0.0064 C   0  0  0  0  0  0  0  0  0  0  0  0
   24.3462   12.7660   -0.0096 C   0  0  0  0  0  0  0  0  0  0  0  0
   24.1762   13.7022    1.0319 C   0  0  0  0  0  0  0  0  0  0  0  0
   25.1566   13.7710    2.0475 C   0  0  0  0  0  0  0  0  0  0  0  0
   25.0444   14.7599    3.1931 C   0  0  0  0  0  0  0  0  0  0  0  0
   24.0244   15.8781    2.9738 C   0  0  0  0  0  0  0  0  0  0  0  0
   22.7351   15.2919    2.4200 C   0  0  0  0  0  0  0  0  0  0  0  0
   22.9859   14.6673    1.0342 C   0  0  1  0  0  0  0  0  0  0  0  0
   23.3348   15.7739    0.1771 O   0  0  0  0  0  0  0  0  0  0  0  0
   21.7020   13.9924    0.4632 C   0  0  0  0  0  0  0  0  0  0  0  0
   20.4437   14.4843    0.9776 N   0  0  0  0  0  0  0  0  0  0  0  0
   19.5894   14.0001    2.1732 C   0  0  0  0  0  0  0  0  0  0  0  0
   19.8057   13.1810    2.9727 O   0  0  0  0  0  0  0  0  0  0  0  0
   18.2936   14.7757    2.1353 C   0  0  2  0  0  0  0  0  0  0  0  0
   17.4503   14.5742    3.3907 C   0  0  0  0  0  0  0  0  0  0  0  0
   16.0834   14.3826    2.9843 O   0  0  0  0  0  0  0  0  0  0  0  0
   16.0399   14.6771    1.5870 C   0  0  2  0  0  0  0  0  0  0  0  0
   14.8214   14.0545    0.9441 C   0  0  0  0  0  0  0  0  0  0  0  0
   14.7262   12.5316    1.0079 C   0  0  0  0  0  0  0  0  0  0  0  0
   13.3683   12.0913    0.5028 C   0  0  0  0  0  0  0  0  0  0  0  0
   12.3400   12.7347    0.6654 O   0  0  0  0  0  0  0  0  0  0  0  0
   13.4698   10.9078   -0.1530 O   0  0  0  0  0  0  0  0  0  0  0  0
   12.3335   10.3552   -0.8701 C   0  0  0  0  0  0  0  0  0  0  0  0
   12.8352    9.0149   -1.4286 C   0  0  0  0  0  0  0  0  0  0  0  0
   11.1329   10.0902    0.0462 C   0  0  0  0  0  0  0  0  0  0  0  0
   11.9519   11.2641   -2.0447 C   0  0  0  0  0  0  0  0  0  0  0  0
   17.3844   14.2504    1.0464 C   0  0  0  0  0  0  0  0  0  0  0  0
  1  2  1  0
  2  3  1  0
  3  4  2  0
  4  5  1  0
  5  6  2  0
  6  7  1  0
  7  8  2  0
  8  9  1  0
  9 10  1  0
 10 11  1  0
 11 12  1  0
 12 13  1  6
 12 14  1  0
 14 15  1  0
 15 16  1  0
 16 17  2  0
 18 16  1  1
 18 19  1  0
 19 20  1  0
 20 21  1  0
 21 22  1  6
 22 23  1  0
 23 24  1  0
 24 25  2  0
 24 26  1  0
 26 27  1  0
 27 28  1  0
 27 29  1  0
 27 30  1  0
 21 31  1  0
  8  3  1  0
 31 18  1  0
 12  7  1  0
M  END
>  <energy_score>  (248) 
-28.761253

>  <inchikey>  (248) 
None

>  <smiles>  (248) 
None

>  <ref_pdb>  (248) 
A0239a

>  <alias>  (248) 
None

>  <HIPPO Pose ID>  (248) 
498085

>  <name>  (248) 
P498085

>  <HIPPO Compound ID>  (248) 
290391

>  <ref_mols>  (248) 
A0239a,A0608a

>  <distance_score>  (248) 
1.859221

>  <inspiration_score>  (248) 
None

$$$$
P498086
     RDKit          3D

 32 34  0  0  0  0  0  0  0  0999 V2000
   26.5784   10.4335   -1.1626 C   0  0  0  0  0  0  0  0  0  0  0  0
   25.5324   11.3952   -1.1229 O   0  0  0  0  0  0  0  0  0  0  0  0
   25.3756   12.1100    0.0393 C   0  0  0  0  0  0  0  0  0  0  0  0
   26.1692   11.9482    1.1753 C   0  0  0  0  0  0  0  0  0  0  0  0
   25.9290   12.7150    2.3115 C   0  0  0  0  0  0  0  0  0  0  0  0
   24.8821   13.6341    2.3306 C   0  0  0  0  0  0  0  0  0  0  0  0
   24.0357   13.7964    1.2184 C   0  0  0  0  0  0  0  0  0  0  0  0
   24.3215   13.0537    0.0453 C   0  0  0  0  0  0  0  0  0  0  0  0
   23.4825   13.2118   -1.2039 C   0  0  0  0  0  0  0  0  0  0  0  0
   22.6156   14.4635   -1.1966 C   0  0  0  0  0  0  0  0  0  0  0  0
   21.8623   14.5476    0.1201 C   0  0  0  0  0  0  0  0  0  0  0  0
   22.8374   14.7462    1.2995 C   0  0  2  0  0  0  0  0  0  0  0  0
   23.3615   16.0844    1.2067 O   0  0  0  0  0  0  0  0  0  0  0  0
   22.0921   14.6193    2.6628 C   0  0  0  0  0  0  0  0  0  0  0  0
   20.6713   14.9115    2.6155 N   0  0  0  0  0  0  0  0  0  0  0  0
   19.5401   14.1184    2.9721 C   0  0  0  0  0  0  0  0  0  0  0  0
   19.4665   12.9772    3.3287 O   0  0  0  0  0  0  0  0  0  0  0  0
   18.1838   14.8570    2.7535 C   0  0  2  0  0  0  0  0  0  0  0  0
   17.7018   14.5688    1.3265 C   0  0  0  0  0  0  0  0  0  0  0  0
   16.1761   14.6760    1.2004 C   0  0  1  0  0  0  0  0  0  0  0  0
   15.6764   14.2854   -0.1802 C   0  0  0  0  0  0  0  0  0  0  0  0
   15.5221   12.7894   -0.0668 C   0  0  0  0  0  0  0  0  0  0  0  0
   15.0826   12.6118    1.3696 C   0  0  0  0  0  0  0  0  0  0  0  0
   15.5430   13.7567    2.1115 O   0  0  0  0  0  0  0  0  0  0  0  0
   18.1020   16.2692    3.1064 N   0  0  0  0  0  0  0  0  0  0  0  0
   18.7530   17.3896    2.5771 C   0  0  0  0  0  0  0  0  0  0  0  0
   19.6039   17.4764    1.7519 O   0  0  0  0  0  0  0  0  0  0  0  0
   18.2431   18.4419    3.2640 O   0  0  0  0  0  0  0  0  0  0  0  0
   18.7470   19.7907    3.0621 C   0  0  0  0  0  0  0  0  0  0  0  0
   17.9257   20.6588    4.0275 C   0  0  0  0  0  0  0  0  0  0  0  0
   18.4934   20.2726    1.6301 C   0  0  0  0  0  0  0  0  0  0  0  0
   20.2263   19.8909    3.4513 C   0  0  0  0  0  0  0  0  0  0  0  0
  1  2  1  0
  2  3  1  0
  3  4  2  0
  4  5  1  0
  5  6  2  0
  6  7  1  0
  7  8  2  0
  8  9  1  0
  9 10  1  0
 10 11  1  0
 11 12  1  0
 12 13  1  6
 12 14  1  0
 14 15  1  0
 15 16  1  0
 16 17  2  0
 16 18  1  0
 18 19  1  6
 20 19  1  6
 20 21  1  0
 21 22  1  0
 22 23  1  0
 23 24  1  0
 18 25  1  0
 25 26  1  0
 26 27  2  0
 26 28  1  0
 28 29  1  0
 29 30  1  0
 29 31  1  0
 29 32  1  0
  8  3  1  0
 24 20  1  0
 12  7  1  0
M  END
>  <energy_score>  (249) 
-65.004539

>  <inchikey>  (249) 
None

>  <smiles>  (249) 
None

>  <ref_pdb>  (249) 
A0239a

>  <alias>  (249) 
None

>  <HIPPO Pose ID>  (249) 
498086

>  <name>  (249) 
P498086

>  <HIPPO Compound ID>  (249) 
290398

>  <ref_mols>  (249) 
A0239a,A0608a

>  <distance_score>  (249) 
1.954962

>  <inspiration_score>  (249) 
None

$$$$
P498087
     RDKit          3D

 32 35  0  0  0  0  0  0  0  0999 V2000
   26.8505   10.5751   -1.7386 C   0  0  0  0  0  0  0  0  0  0  0  0
   26.8904   10.7857   -0.3333 O   0  0  0  0  0  0  0  0  0  0  0  0
   26.1646   11.8429    0.1445 C   0  0  0  0  0  0  0  0  0  0  0  0
   26.0092   11.8711    1.5267 C   0  0  0  0  0  0  0  0  0  0  0  0
   25.2463   12.8714    2.1295 C   0  0  0  0  0  0  0  0  0  0  0  0
   24.6230   13.8757    1.3593 C   0  0  0  0  0  0  0  0  0  0  0  0
   24.8686   13.9063   -0.0228 C   0  0  0  0  0  0  0  0  0  0  0  0
   25.6059   12.8660   -0.6227 C   0  0  0  0  0  0  0  0  0  0  0  0
   24.3478   15.0321   -0.8890 C   0  0  0  0  0  0  0  0  0  0  0  0
   23.8983   16.2549   -0.0783 C   0  0  0  0  0  0  0  0  0  0  0  0
   22.9411   15.7872    1.0053 C   0  0  0  0  0  0  0  0  0  0  0  0
   23.6623   14.8750    2.0171 C   0  0  2  0  0  0  0  0  0  0  0  0
   24.4196   15.7841    2.8342 O   0  0  0  0  0  0  0  0  0  0  0  0
   22.6860   14.0780    2.9361 C   0  0  0  0  0  0  0  0  0  0  0  0
   21.2961   14.4505    2.9191 N   0  0  0  0  0  0  0  0  0  0  0  0
   20.2341   14.3048    1.8110 C   0  0  0  0  0  0  0  0  0  0  0  0
   20.2980   13.7919    0.7686 O   0  0  0  0  0  0  0  0  0  0  0  0
   18.9659   15.0696    2.2641 C   0  0  2  0  0  0  0  0  0  0  0  0
   17.8625   14.8823    1.2097 C   0  0  0  0  0  0  0  0  0  0  0  0
   17.1823   13.5480    1.1058 C   0  0  0  0  0  0  0  0  0  0  0  0
   15.9224   13.3561    1.6805 C   0  0  0  0  0  0  0  0  0  0  0  0
   15.2051   12.1990    1.3970 C   0  0  0  0  0  0  0  0  0  0  0  0
   15.7610   11.2019    0.5958 C   0  0  0  0  0  0  0  0  0  0  0  0
   17.0256   11.3736    0.0525 C   0  0  0  0  0  0  0  0  0  0  0  0
   17.7707   10.0767   -1.1012 Br  0  0  0  0  0  0  0  0  0  0  0  0
   17.7196   12.5486    0.2832 C   0  0  0  0  0  0  0  0  0  0  0  0
   19.3456   16.5661    2.3999 C   0  0  0  0  0  0  0  0  0  0  0  0
   18.2489   17.6309    2.5655 C   0  0  2  0  0  0  0  0  0  0  0  0
   17.1425   17.3704    3.5733 C   0  0  0  0  0  0  0  0  0  0  0  0
   16.0693   18.3197    3.0922 C   0  0  0  0  0  0  0  0  0  0  0  0
   16.2355   18.2871    1.5871 C   0  0  0  0  0  0  0  0  0  0  0  0
   17.5896   17.8943    1.3181 O   0  0  0  0  0  0  0  0  0  0  0  0
  1  2  1  0
  2  3  1  0
  3  4  2  0
  4  5  1  0
  5  6  2  0
  6  7  1  0
  7  8  2  0
  7  9  1  0
  9 10  1  0
 10 11  1  0
 11 12  1  0
 12 13  1  1
 12 14  1  0
 14 15  1  0
 15 16  1  0
 16 17  2  0
 16 18  1  0
 18 19  1  6
 19 20  1  0
 20 21  2  0
 21 22  1  0
 22 23  2  0
 23 24  1  0
 24 25  1  0
 24 26  2  0
 18 27  1  0
 28 27  1  6
 28 29  1  0
 29 30  1  0
 30 31  1  0
 31 32  1  0
  8  3  1  0
 26 20  1  0
 32 28  1  0
 12  6  1  0
M  END
>  <energy_score>  (250) 
-17.17923

>  <inchikey>  (250) 
None

>  <smiles>  (250) 
None

>  <ref_pdb>  (250) 
A0239a

>  <alias>  (250) 
None

>  <HIPPO Pose ID>  (250) 
498087

>  <name>  (250) 
P498087

>  <HIPPO Compound ID>  (250) 
290399

>  <ref_mols>  (250) 
A0239a,A0608a

>  <distance_score>  (250) 
1.762664

>  <inspiration_score>  (250) 
None

$$$$
P498090
     RDKit          3D

 32 35  0  0  0  0  0  0  0  0999 V2000
   15.9156   10.9310   -0.1754 C   0  0  0  0  0  0  0  0  0  0  0  0
   15.0953   11.6619    0.7280 O   0  0  0  0  0  0  0  0  0  0  0  0
   15.5815   12.8575    1.1725 C   0  0  0  0  0  0  0  0  0  0  0  0
   14.6597   13.6492    1.8488 C   0  0  0  0  0  0  0  0  0  0  0  0
   15.0141   14.9189    2.3034 C   0  0  0  0  0  0  0  0  0  0  0  0
   16.3106   15.4136    2.1034 C   0  0  0  0  0  0  0  0  0  0  0  0
   17.2783   14.5926    1.5012 C   0  0  0  0  0  0  0  0  0  0  0  0
   16.8824   13.3269    1.0086 C   0  0  0  0  0  0  0  0  0  0  0  0
   18.7242   15.0501    1.3067 C   0  0  2  0  0  0  0  0  0  0  0  0
   18.9651   15.0275   -0.1123 O   0  0  0  0  0  0  0  0  0  0  0  0
   19.6938   14.0510    2.0075 C   0  0  0  0  0  0  0  0  0  0  0  0
   21.0549   14.0903    1.5311 N   0  0  0  0  0  0  0  0  0  0  0  0
   22.0962   15.0548    1.7360 C   0  0  0  0  0  0  0  0  0  0  0  0
   22.1282   16.0360    2.4196 O   0  0  0  0  0  0  0  0  0  0  0  0
   23.2900   14.7038    0.7793 C   0  0  1  0  0  0  0  0  0  0  0  0
   24.5743   15.5084    1.0556 C   0  0  0  0  0  0  0  0  0  0  0  0
   25.5232   14.3968    0.8951 C   0  0  1  0  0  0  0  0  0  0  0  0
   26.6783   14.3390    1.7070 O   0  0  0  0  0  0  0  0  0  0  0  0
   26.8345   12.9372    2.0421 C   0  0  0  0  0  0  0  0  0  0  0  0
   25.5962   12.2064    1.5195 C   0  0  0  0  0  0  0  0  0  0  0  0
   24.5991   13.3499    1.4418 C   0  0  2  0  0  0  0  0  0  0  0  0
   23.4119   13.1383    0.5965 N   0  0  0  0  0  0  0  0  0  0  0  0
   23.2998   12.7969   -0.7624 C   0  0  0  0  0  0  0  0  0  0  0  0
   24.1390   12.6764   -1.6065 O   0  0  0  0  0  0  0  0  0  0  0  0
   21.9713   12.5783   -0.9784 O   0  0  0  0  0  0  0  0  0  0  0  0
   21.4787   12.1440   -2.2725 C   0  0  0  0  0  0  0  0  0  0  0  0
   22.0567   10.7792   -2.6634 C   0  0  0  0  0  0  0  0  0  0  0  0
   21.7305   13.2073   -3.3458 C   0  0  0  0  0  0  0  0  0  0  0  0
   19.9619   11.9890   -2.0782 C   0  0  0  0  0  0  0  0  0  0  0  0
   19.0018   16.4852    1.8059 C   0  0  0  0  0  0  0  0  0  0  0  0
   17.7812   17.3930    1.7051 C   0  0  0  0  0  0  0  0  0  0  0  0
   16.6420   16.8161    2.5392 C   0  0  0  0  0  0  0  0  0  0  0  0
  1  2  1  0
  2  3  1  0
  3  4  2  0
  4  5  1  0
  5  6  2  0
  6  7  1  0
  7  8  2  0
  7  9  1  0
  9 10  1  6
  9 11  1  0
 11 12  1  0
 12 13  1  0
 13 14  2  0
 15 13  1  1
 15 16  1  0
 17 16  1  1
 17 18  1  0
 18 19  1  0
 19 20  1  0
 21 20  1  6
 21 22  1  0
 22 23  1  0
 23 24  2  0
 23 25  1  0
 25 26  1  0
 26 27  1  0
 26 28  1  0
 26 29  1  0
  9 30  1  0
 30 31  1  0
 31 32  1  0
  8  3  1  0
 22 15  1  0
 32  6  1  0
 21 17  1  0
M  END
>  <energy_score>  (251) 
-8.70178

>  <inchikey>  (251) 
None

>  <smiles>  (251) 
None

>  <ref_pdb>  (251) 
A0239a

>  <alias>  (251) 
None

>  <HIPPO Pose ID>  (251) 
498090

>  <name>  (251) 
P498090

>  <HIPPO Compound ID>  (251) 
290402

>  <ref_mols>  (251) 
A0239a,A0608a

>  <distance_score>  (251) 
1.906524

>  <inspiration_score>  (251) 
None

$$$$
P498091
     RDKit          3D

 25 26  0  0  0  0  0  0  0  0999 V2000
   12.6022   13.1328   21.8355 N   0  0  0  0  0  0  0  0  0  0  0  0
   12.3327   13.7582   20.8845 C   0  0  0  0  0  0  0  0  0  0  0  0
   11.7839   14.5819   19.7490 C   0  0  0  0  0  0  0  0  0  0  0  0
   10.9372   15.7468   20.1489 N   0  0  0  0  0  0  0  0  0  0  0  0
   10.1222   16.3404   19.0664 C   0  0  0  0  0  0  0  0  0  0  0  0
    9.4565   17.6108   19.4431 C   0  0  0  0  0  0  0  0  0  0  0  0
    8.9353   18.6019   19.7496 N   0  0  0  0  0  0  0  0  0  0  0  0
   10.3109   15.5224   21.3821 C   0  0  0  0  0  0  0  0  0  0  0  0
   11.1230   15.4917   22.5300 C   0  0  0  0  0  0  0  0  0  0  0  0
   10.7004   14.8839   23.7053 C   0  0  0  0  0  0  0  0  0  0  0  0
    9.3888   14.4676   23.7856 C   0  0  0  0  0  0  0  0  0  0  0  0
    8.9386   13.7858   24.8949 N   0  0  0  0  0  0  0  0  0  0  0  0
    7.5319   13.2835   25.2540 C   0  0  0  0  0  0  0  0  0  0  0  0
    6.5192   13.4319   24.7089 O   0  0  0  0  0  0  0  0  0  0  0  0
    7.6694   12.4286   26.5010 C   0  0  0  0  0  0  0  0  0  0  0  0
    6.3774   11.7109   26.8952 C   0  0  0  0  0  0  0  0  0  0  0  0
    5.3923   12.5960   27.6771 C   0  0  1  0  0  0  0  0  0  0  0  0
    5.0049   13.9013   26.9803 C   0  0  0  0  0  0  0  0  0  0  0  0
    3.9431   14.6334   27.7770 C   0  0  0  0  0  0  0  0  0  0  0  0
    2.7083   13.7617   27.8779 C   0  0  0  0  0  0  0  0  0  0  0  0
    3.0232   12.3776   28.3909 C   0  0  0  0  0  0  0  0  0  0  0  0
    2.2100   11.7167   29.0292 O   0  0  0  0  0  0  0  0  0  0  0  0
    4.2134   11.8166   28.0234 N   0  0  0  0  0  0  0  0  0  0  0  0
    8.5088   14.6866   22.7237 C   0  0  0  0  0  0  0  0  0  0  0  0
    8.9714   15.1878   21.5160 C   0  0  0  0  0  0  0  0  0  0  0  0
  1  2  3  0
  2  3  1  0
  3  4  1  0
  4  5  1  0
  5  6  1  0
  6  7  3  0
  4  8  1  0
  8  9  2  0
  9 10  1  0
 10 11  2  0
 11 12  1  0
 12 13  1  0
 13 14  2  0
 13 15  1  0
 15 16  1  0
 17 16  1  6
 17 18  1  0
 18 19  1  0
 19 20  1  0
 20 21  1  0
 21 22  2  0
 21 23  1  0
 11 24  1  0
 24 25  2  0
 25  8  1  0
 23 17  1  0
M  END
>  <energy_score>  (252) 
-15.298517

>  <inchikey>  (252) 
None

>  <smiles>  (252) 
None

>  <ref_pdb>  (252) 
A3306a

>  <alias>  (252) 
None

>  <HIPPO Pose ID>  (252) 
498091

>  <name>  (252) 
P498091

>  <HIPPO Compound ID>  (252) 
290433

>  <ref_mols>  (252) 
A3306a,A4320a

>  <distance_score>  (252) 
1.652712

>  <inspiration_score>  (252) 
None

$$$$
P498092
     RDKit          3D

 23 26  0  0  0  0  0  0  0  0999 V2000
   16.3327   15.1720   31.3974 C   0  0  0  0  0  0  0  0  0  0  0  0
   16.3022   14.2407   30.2233 C   0  0  0  0  0  0  0  0  0  0  0  0
   17.1306   14.4709   29.1240 C   0  0  0  0  0  0  0  0  0  0  0  0
   17.0888   13.6208   28.0132 C   0  0  0  0  0  0  0  0  0  0  0  0
   16.2264   12.5101   27.9488 C   0  0  0  0  0  0  0  0  0  0  0  0
   16.1433   11.6034   26.6358 C   0  0  1  0  0  0  0  0  0  0  0  0
   16.0298   10.1260   26.7432 C   0  0  0  0  0  0  0  0  0  0  0  0
   15.1947   10.2818   25.5042 C   0  0  0  0  0  0  0  0  0  0  0  0
   14.7501   11.6859   25.9954 N   0  0  0  0  0  0  0  0  0  0  0  0
   14.2515   12.5092   24.8887 C   0  0  0  0  0  0  0  0  0  0  0  0
   14.8161   13.2410   24.1812 O   0  0  0  0  0  0  0  0  0  0  0  0
   12.7203   12.5375   24.6367 C   0  0  1  0  0  0  0  0  0  0  0  0
   12.3967   13.3578   23.3534 C   0  0  0  0  0  0  0  0  0  0  0  0
   10.9602   13.8584   23.3251 C   0  0  0  0  0  0  0  0  0  0  0  0
   10.0709   12.9299   24.0010 N   0  0  0  0  0  0  0  0  0  0  0  0
    8.6778   13.1938   23.7116 C   0  0  0  0  0  0  0  0  0  0  0  0
    7.8104   12.4434   24.7113 C   0  0  0  0  0  0  0  0  0  0  0  0
    8.3782   11.0859   25.1075 C   0  0  0  0  0  0  0  0  0  0  0  0
    9.4152   10.5254   24.1474 C   0  0  0  0  0  0  0  0  0  0  0  0
   10.5085   11.5435   23.8188 C   0  0  2  0  0  0  0  0  0  0  0  0
   11.7106   11.4163   24.7784 C   0  0  0  0  0  0  0  0  0  0  0  0
   15.4042   12.3036   29.0766 C   0  0  0  0  0  0  0  0  0  0  0  0
   15.4346   13.1498   30.1910 C   0  0  0  0  0  0  0  0  0  0  0  0
  1  2  1  0
  2  3  2  0
  3  4  1  0
  4  5  2  0
  6  5  1  1
  6  7  1  0
  7  8  1  0
  8  9  1  0
  9 10  1  0
 10 11  2  0
 12 10  1  6
 12 13  1  0
 13 14  1  0
 14 15  1  0
 15 16  1  0
 16 17  1  0
 17 18  1  0
 18 19  1  0
 20 19  1  1
 20 21  1  0
  5 22  1  0
 22 23  2  0
 23  2  1  0
  9  6  1  0
 21 12  1  0
 20 15  1  0
M  END
>  <energy_score>  (253) 
-4.057004

>  <inchikey>  (253) 
None

>  <smiles>  (253) 
None

>  <ref_pdb>  (253) 
A0875a

>  <alias>  (253) 
None

>  <HIPPO Pose ID>  (253) 
498092

>  <name>  (253) 
P498092

>  <HIPPO Compound ID>  (253) 
290503

>  <ref_mols>  (253) 
A4715a,A0875a

>  <distance_score>  (253) 
1.674073

>  <inspiration_score>  (253) 
None

$$$$
P498094
     RDKit          3D

 24 27  0  0  0  0  0  0  0  0999 V2000
   22.0127   13.0099   26.3206 C   0  0  0  0  0  0  0  0  0  0  0  0
   20.6504   12.6571   26.8370 C   0  0  0  0  0  0  0  0  0  0  0  0
   20.4073   11.4133   27.4148 C   0  0  0  0  0  0  0  0  0  0  0  0
   19.1206   11.0789   27.8548 C   0  0  0  0  0  0  0  0  0  0  0  0
   18.0138   11.9507   27.7295 C   0  0  0  0  0  0  0  0  0  0  0  0
   16.6092   11.5323   28.3643 C   0  0  1  0  0  0  0  0  0  0  0  0
   16.0861   12.2799   29.5646 C   0  0  0  0  0  0  0  0  0  0  0  0
   15.2965   13.0238   28.5363 C   0  0  0  0  0  0  0  0  0  0  0  0
   15.2417   11.7203   27.6764 N   0  0  0  0  0  0  0  0  0  0  0  0
   14.8936   12.0263   26.2176 C   0  0  0  0  0  0  0  0  0  0  0  0
   15.5945   12.2661   25.3012 O   0  0  0  0  0  0  0  0  0  0  0  0
   13.3595   11.9544   26.1439 C   0  0  1  0  0  0  0  0  0  0  0  0
   12.7331   13.2905   26.1890 C   0  0  0  0  0  0  0  0  0  0  0  0
   11.2740   13.4385   26.1794 C   0  0  0  0  0  0  0  0  0  0  0  0
   10.7438   14.3472   26.8121 O   0  0  0  0  0  0  0  0  0  0  0  0
   10.6181   12.5744   25.3468 N   0  0  0  0  0  0  0  0  0  0  0  0
    9.2723   13.0025   24.9817 C   0  0  0  0  0  0  0  0  0  0  0  0
    8.5496   12.0037   24.1151 C   0  0  0  0  0  0  0  0  0  0  0  0
    9.0064   10.6002   24.4520 C   0  0  0  0  0  0  0  0  0  0  0  0
   10.4936   10.4203   24.1649 C   0  0  0  0  0  0  0  0  0  0  0  0
   11.3416   11.6782   24.4508 C   0  0  2  0  0  0  0  0  0  0  0  0
   12.8124   11.3082   24.8918 C   0  0  0  0  0  0  0  0  0  0  0  0
   18.2925   13.1822   27.1094 C   0  0  0  0  0  0  0  0  0  0  0  0
   19.5798   13.5364   26.6796 C   0  0  0  0  0  0  0  0  0  0  0  0
  1  2  1  0
  2  3  2  0
  3  4  1  0
  4  5  2  0
  6  5  1  6
  6  7  1  0
  7  8  1  0
  8  9  1  0
  9 10  1  0
 10 11  2  0
 12 10  1  6
 12 13  1  0
 13 14  1  0
 14 15  2  0
 14 16  1  0
 16 17  1  0
 17 18  1  0
 18 19  1  0
 19 20  1  0
 21 20  1  1
 21 22  1  0
  5 23  1  0
 23 24  2  0
 24  2  1  0
  9  6  1  0
 22 12  1  0
 21 16  1  0
M  END
>  <energy_score>  (254) 
-3.022094

>  <inchikey>  (254) 
None

>  <smiles>  (254) 
None

>  <ref_pdb>  (254) 
A0875a

>  <alias>  (254) 
None

>  <HIPPO Pose ID>  (254) 
498094

>  <name>  (254) 
P498094

>  <HIPPO Compound ID>  (254) 
290537

>  <ref_mols>  (254) 
A4715a,A0875a

>  <distance_score>  (254) 
1.616035

>  <inspiration_score>  (254) 
None

$$$$
P498098
     RDKit          3D

 24 27  0  0  0  0  0  0  0  0999 V2000
   19.5375   16.0223   29.0268 C   0  0  0  0  0  0  0  0  0  0  0  0
   18.2632   15.2316   29.0075 C   0  0  0  0  0  0  0  0  0  0  0  0
   17.1684   15.6319   29.7729 C   0  0  0  0  0  0  0  0  0  0  0  0
   15.9776   14.9166   29.7098 C   0  0  0  0  0  0  0  0  0  0  0  0
   15.8684   13.8067   28.8694 C   0  0  0  0  0  0  0  0  0  0  0  0
   16.9438   13.3601   28.0773 C   0  0  0  0  0  0  0  0  0  0  0  0
   16.8601   12.0863   27.1233 C   0  0  1  0  0  0  0  0  0  0  0  0
   16.8109   10.6951   27.7409 C   0  0  1  0  0  0  0  0  0  0  0  0
   16.0665   10.4600   29.0457 C   0  0  0  0  0  0  0  0  0  0  0  0
   16.0927   10.3917   26.4500 C   0  0  0  0  0  0  0  0  0  0  0  0
   15.4963   11.8226   26.4794 N   0  0  0  0  0  0  0  0  0  0  0  0
   14.9550   12.2194   25.1381 C   0  0  0  0  0  0  0  0  0  0  0  0
   15.4771   12.7554   24.2421 O   0  0  0  0  0  0  0  0  0  0  0  0
   13.4459   11.9405   25.0212 C   0  0  1  0  0  0  0  0  0  0  0  0
   12.8234   12.5750   26.2339 C   0  0  0  0  0  0  0  0  0  0  0  0
   11.3671   12.9581   26.0971 C   0  0  0  0  0  0  0  0  0  0  0  0
   10.8273   13.4216   24.8393 N   0  0  0  0  0  0  0  0  0  0  0  0
    9.3675   13.5262   24.8992 C   0  0  0  0  0  0  0  0  0  0  0  0
    8.6004   12.2092   24.9573 C   0  0  0  0  0  0  0  0  0  0  0  0
    9.0839   11.2774   23.8792 C   0  0  0  0  0  0  0  0  0  0  0  0
   10.5934   11.1768   23.7846 C   0  0  0  0  0  0  0  0  0  0  0  0
   11.2470   12.5729   23.7417 C   0  0  2  0  0  0  0  0  0  0  0  0
   12.7717   12.6098   23.7959 C   0  0  0  0  0  0  0  0  0  0  0  0
   18.1348   14.1135   28.1689 C   0  0  0  0  0  0  0  0  0  0  0  0
  1  2  1  0
  2  3  2  0
  3  4  1  0
  4  5  2  0
  5  6  1  0
  7  6  1  1
  7  8  1  0
  8  9  1  1
  8 10  1  0
 10 11  1  0
 11 12  1  0
 12 13  2  0
 14 12  1  6
 14 15  1  0
 15 16  1  0
 16 17  1  0
 17 18  1  0
 18 19  1  0
 19 20  1  0
 20 21  1  0
 22 21  1  1
 22 23  1  0
  6 24  2  0
 24  2  1  0
 11  7  1  0
 23 14  1  0
 22 17  1  0
M  END
>  <energy_score>  (255) 
-16.580824

>  <inchikey>  (255) 
None

>  <smiles>  (255) 
None

>  <ref_pdb>  (255) 
A0875a

>  <alias>  (255) 
None

>  <HIPPO Pose ID>  (255) 
498098

>  <name>  (255) 
P498098

>  <HIPPO Compound ID>  (255) 
290543

>  <ref_mols>  (255) 
A4715a,A0875a

>  <distance_score>  (255) 
1.511397

>  <inspiration_score>  (255) 
None

$$$$
P498104
     RDKit          3D

 24 27  0  0  0  0  0  0  0  0999 V2000
   18.8515   11.4508   27.7614 C   0  0  0  0  0  0  0  0  0  0  0  0
   17.8870   12.6102   27.7678 C   0  0  0  0  0  0  0  0  0  0  0  0
   18.4957   13.8543   28.0647 C   0  0  0  0  0  0  0  0  0  0  0  0
   17.7418   14.9783   28.3390 C   0  0  0  0  0  0  0  0  0  0  0  0
   16.3694   14.8537   28.3723 C   0  0  0  0  0  0  0  0  0  0  0  0
   15.7476   13.6363   28.0240 C   0  0  0  0  0  0  0  0  0  0  0  0
   14.2768   13.5531   28.2859 C   0  0  0  0  0  0  0  0  0  0  0  0
   16.4711   12.4906   27.5839 C   0  0  0  0  0  0  0  0  0  0  0  0
   15.6558   11.1544   27.0862 C   0  0  2  0  0  0  0  0  0  0  0  0
   16.5131    9.9040   26.6440 C   0  0  0  0  0  0  0  0  0  0  0  0
   15.5567    9.6381   25.4703 C   0  0  0  0  0  0  0  0  0  0  0  0
   15.0746   10.9453   25.7420 N   0  0  0  0  0  0  0  0  0  0  0  0
   14.3025   11.7672   24.9852 C   0  0  0  0  0  0  0  0  0  0  0  0
   14.9729   12.4964   24.2482 O   0  0  0  0  0  0  0  0  0  0  0  0
   12.7433   11.9817   24.9986 C   0  0  1  0  0  0  0  0  0  0  0  0
   12.4379   13.1182   23.9908 C   0  0  0  0  0  0  0  0  0  0  0  0
   11.0861   13.7485   24.2606 C   0  0  0  0  0  0  0  0  0  0  0  0
   10.0577   12.7516   24.0647 N   0  0  0  0  0  0  0  0  0  0  0  0
    8.7156   13.3303   24.0369 C   0  0  0  0  0  0  0  0  0  0  0  0
    7.8305   12.8000   25.1532 C   0  0  0  0  0  0  0  0  0  0  0  0
    7.8065   11.2868   25.1717 C   0  0  0  0  0  0  0  0  0  0  0  0
    9.0812   10.6481   24.6368 C   0  0  0  0  0  0  0  0  0  0  0  0
   10.2401   11.5867   24.9354 C   0  0  1  0  0  0  0  0  0  0  0  0
   11.6134   10.9529   24.6763 C   0  0  0  0  0  0  0  0  0  0  0  0
  1  2  1  0
  2  3  2  0
  3  4  1  0
  4  5  2  0
  5  6  1  0
  6  7  1  0
  6  8  2  0
  9  8  1  6
  9 10  1  0
 10 11  1  0
 11 12  1  0
 12 13  1  0
 13 14  2  0
 15 13  1  6
 15 16  1  0
 16 17  1  0
 17 18  1  0
 18 19  1  0
 19 20  1  0
 20 21  1  0
 21 22  1  0
 23 22  1  6
 23 24  1  0
  8  2  1  0
 12  9  1  0
 24 15  1  0
 23 18  1  0
M  END
>  <energy_score>  (256) 
-13.288755

>  <inchikey>  (256) 
None

>  <smiles>  (256) 
None

>  <ref_pdb>  (256) 
A0875a

>  <alias>  (256) 
None

>  <HIPPO Pose ID>  (256) 
498104

>  <name>  (256) 
P498104

>  <HIPPO Compound ID>  (256) 
290544

>  <ref_mols>  (256) 
A4715a,A0875a

>  <distance_score>  (256) 
1.383248

>  <inspiration_score>  (256) 
None

$$$$
P498107
     RDKit          3D

 24 27  0  0  0  0  0  0  0  0999 V2000
   18.4647   18.4313   28.3588 C   0  0  0  0  0  0  0  0  0  0  0  0
   17.9821   17.0175   28.2372 C   0  0  0  0  0  0  0  0  0  0  0  0
   18.8570   15.9958   27.8683 C   0  0  0  0  0  0  0  0  0  0  0  0
   18.3886   14.6866   27.7101 C   0  0  0  0  0  0  0  0  0  0  0  0
   17.0341   14.3402   27.8986 C   0  0  0  0  0  0  0  0  0  0  0  0
   16.5491   12.8352   27.7237 C   0  0  1  0  0  0  0  0  0  0  0  0
   16.2379   12.0701   29.0039 C   0  0  1  0  0  0  0  0  0  0  0  0
   15.5406   12.7311   30.1853 C   0  0  0  0  0  0  0  0  0  0  0  0
   15.3405   11.2940   28.0928 C   0  0  0  0  0  0  0  0  0  0  0  0
   15.1122   12.5684   27.2248 N   0  0  0  0  0  0  0  0  0  0  0  0
   14.5910   12.2095   25.8287 C   0  0  0  0  0  0  0  0  0  0  0  0
   15.1786   11.9774   24.8303 O   0  0  0  0  0  0  0  0  0  0  0  0
   13.0430   12.1665   25.9132 C   0  0  1  0  0  0  0  0  0  0  0  0
   12.3368   13.4812   25.7332 C   0  0  0  0  0  0  0  0  0  0  0  0
   10.8626   13.6073   25.3551 C   0  0  0  0  0  0  0  0  0  0  0  0
   10.5147   12.6657   24.3162 N   0  0  0  0  0  0  0  0  0  0  0  0
    9.0908   12.7476   23.9725 C   0  0  0  0  0  0  0  0  0  0  0  0
    8.2780   11.6553   24.6557 C   0  0  0  0  0  0  0  0  0  0  0  0
    8.8374   10.2636   24.3273 C   0  0  0  0  0  0  0  0  0  0  0  0
   10.3076   10.2542   23.9477 C   0  0  0  0  0  0  0  0  0  0  0  0
   10.9519   11.3475   24.7528 C   0  0  1  0  0  0  0  0  0  0  0  0
   12.4756   11.2992   24.8241 C   0  0  0  0  0  0  0  0  0  0  0  0
   16.1779   15.3950   28.2671 C   0  0  0  0  0  0  0  0  0  0  0  0
   16.6344   16.7092   28.4245 C   0  0  0  0  0  0  0  0  0  0  0  0
  1  2  1  0
  2  3  2  0
  3  4  1  0
  4  5  2  0
  6  5  1  1
  6  7  1  0
  7  8  1  1
  7  9  1  0
  9 10  1  0
 10 11  1  0
 11 12  2  0
 13 11  1  6
 13 14  1  0
 14 15  1  0
 15 16  1  0
 16 17  1  0
 17 18  1  0
 18 19  1  0
 19 20  1  0
 21 20  1  6
 21 22  1  0
  5 23  1  0
 23 24  2  0
 24  2  1  0
 10  6  1  0
 22 13  1  0
 21 16  1  0
M  END
>  <energy_score>  (257) 
-11.843741

>  <inchikey>  (257) 
None

>  <smiles>  (257) 
None

>  <ref_pdb>  (257) 
A0875a

>  <alias>  (257) 
None

>  <HIPPO Pose ID>  (257) 
498107

>  <name>  (257) 
P498107

>  <HIPPO Compound ID>  (257) 
290545

>  <ref_mols>  (257) 
A4715a,A0875a

>  <distance_score>  (257) 
1.691363

>  <inspiration_score>  (257) 
None

$$$$
P498109
     RDKit          3D

 24 27  0  0  0  0  0  0  0  0999 V2000
   11.9823   14.6694   20.8264 C   0  0  0  0  0  0  0  0  0  0  0  0
   11.2502   15.1056   21.9954 N   0  0  0  0  0  0  0  0  0  0  0  0
    9.8150   15.4688   21.6300 C   0  0  0  0  0  0  0  0  0  0  0  0
    9.5036   14.9850   23.0381 C   0  0  1  0  0  0  0  0  0  0  0  0
    8.2879   14.4133   23.5266 N   0  0  0  0  0  0  0  0  0  0  0  0
    8.0106   13.0362   24.1391 C   0  0  0  0  0  0  0  0  0  0  0  0
    8.7115   12.1137   24.2746 O   0  0  0  0  0  0  0  0  0  0  0  0
    6.6100   12.9491   24.7388 C   0  0  2  0  0  0  0  0  0  0  0  0
    5.5037   14.0262   24.6480 C   0  0  0  0  0  0  0  0  0  0  0  0
    4.6225   14.2534   25.8902 C   0  0  0  0  0  0  0  0  0  0  0  0
    5.2330   13.7816   27.1385 N   0  0  0  0  0  0  0  0  0  0  0  0
    4.3757   14.0451   28.3029 C   0  0  0  0  0  0  0  0  0  0  0  0
    3.4986   12.8614   28.6963 C   0  0  0  0  0  0  0  0  0  0  0  0
    4.3329   11.6121   28.9818 C   0  0  0  0  0  0  0  0  0  0  0  0
    5.6860   11.6214   28.2839 C   0  0  0  0  0  0  0  0  0  0  0  0
    5.5891   12.3672   26.9666 C   0  0  2  0  0  0  0  0  0  0  0  0
    6.8387   12.3267   26.1321 C   0  0  0  0  0  0  0  0  0  0  0  0
   10.6278   13.9506   22.7371 C   0  0  2  0  0  0  0  0  0  0  0  0
   11.4926   13.3972   23.9280 C   0  0  0  0  0  0  0  0  0  0  0  0
   12.6239   12.6221   23.6893 C   0  0  0  0  0  0  0  0  0  0  0  0
   13.4681   12.1182   24.6854 C   0  0  0  0  0  0  0  0  0  0  0  0
   13.1999   12.4325   25.9964 C   0  0  0  0  0  0  0  0  0  0  0  0
   12.0753   13.1975   26.2768 C   0  0  0  0  0  0  0  0  0  0  0  0
   11.1996   13.6008   25.2735 C   0  0  0  0  0  0  0  0  0  0  0  0
  1  2  1  0
  2  3  1  0
  3  4  1  0
  4  5  1  6
  5  6  1  0
  6  7  2  0
  8  6  1  1
  8  9  1  0
  9 10  1  0
 10 11  1  0
 11 12  1  0
 12 13  1  0
 13 14  1  0
 14 15  1  0
 16 15  1  1
 16 17  1  0
  4 18  1  0
 18 19  1  1
 19 20  2  0
 20 21  1  0
 21 22  2  0
 22 23  1  0
 23 24  2  0
 18  2  1  0
 24 19  1  0
 17  8  1  0
 16 11  1  0
M  END
>  <energy_score>  (258) 
-9.005297

>  <inchikey>  (258) 
None

>  <smiles>  (258) 
None

>  <ref_pdb>  (258) 
A0875a

>  <alias>  (258) 
None

>  <HIPPO Pose ID>  (258) 
498109

>  <name>  (258) 
P498109

>  <HIPPO Compound ID>  (258) 
290556

>  <ref_mols>  (258) 
A4715a,A0875a

>  <distance_score>  (258) 
1.763716

>  <inspiration_score>  (258) 
None

$$$$
P498116
     RDKit          3D

 25 28  0  0  0  0  0  0  0  0999 V2000
   15.3936   14.1762   32.1047 C   0  0  0  0  0  0  0  0  0  0  0  0
   15.2344   13.6140   30.7245 C   0  0  0  0  0  0  0  0  0  0  0  0
   14.7632   12.3151   30.5419 C   0  0  0  0  0  0  0  0  0  0  0  0
   14.8265   11.7115   29.2823 C   0  0  0  0  0  0  0  0  0  0  0  0
   15.3722   12.3694   28.1631 C   0  0  0  0  0  0  0  0  0  0  0  0
   15.8617   11.6047   26.8639 C   0  0  1  0  0  0  0  0  0  0  0  0
   16.6640   10.3487   27.1951 C   0  0  2  0  0  0  0  0  0  0  0  0
   18.1446   10.5158   27.4708 C   0  0  0  0  0  0  0  0  0  0  0  0
   16.2314    9.9323   25.8300 C   0  0  0  0  0  0  0  0  0  0  0  0
   14.9230   10.6630   25.9567 N   0  0  0  0  0  0  0  0  0  0  0  0
   14.1416   11.4720   24.9409 C   0  0  0  0  0  0  0  0  0  0  0  0
   14.4172   11.7803   23.8413 O   0  0  0  0  0  0  0  0  0  0  0  0
   12.7775   11.7997   25.4961 C   0  0  1  0  0  0  0  0  0  0  0  0
   12.4402   13.2341   25.4020 C   0  0  0  0  0  0  0  0  0  0  0  0
   10.9852   13.5236   25.3412 C   0  0  0  0  0  0  0  0  0  0  0  0
   10.4387   14.1894   26.2096 O   0  0  0  0  0  0  0  0  0  0  0  0
   10.3751   13.0066   24.2271 N   0  0  0  0  0  0  0  0  0  0  0  0
    9.0299   13.4489   23.9054 C   0  0  0  0  0  0  0  0  0  0  0  0
    8.0075   12.6051   24.6537 C   0  0  0  0  0  0  0  0  0  0  0  0
    8.4689   11.1540   24.7681 C   0  0  0  0  0  0  0  0  0  0  0  0
    9.5059   10.7833   23.6937 C   0  0  0  0  0  0  0  0  0  0  0  0
   10.7699   11.6703   23.7880 C   0  0  2  0  0  0  0  0  0  0  0  0
   11.6628   10.9729   24.8208 C   0  0  0  0  0  0  0  0  0  0  0  0
   15.7329   13.7186   28.3589 C   0  0  0  0  0  0  0  0  0  0  0  0
   15.6756   14.3306   29.6137 C   0  0  0  0  0  0  0  0  0  0  0  0
  1  2  1  0
  2  3  2  0
  3  4  1  0
  4  5  2  0
  6  5  1  1
  6  7  1  0
  7  8  1  6
  7  9  1  0
  9 10  1  0
 10 11  1  0
 11 12  2  0
 13 11  1  6
 13 14  1  0
 14 15  1  0
 15 16  2  0
 15 17  1  0
 17 18  1  0
 18 19  1  0
 19 20  1  0
 20 21  1  0
 22 21  1  1
 22 23  1  0
  5 24  1  0
 24 25  2  0
 25  2  1  0
 10  6  1  0
 23 13  1  0
 22 17  1  0
M  END
>  <energy_score>  (259) 
-2.767204

>  <inchikey>  (259) 
None

>  <smiles>  (259) 
None

>  <ref_pdb>  (259) 
A0875a

>  <alias>  (259) 
None

>  <HIPPO Pose ID>  (259) 
498116

>  <name>  (259) 
P498116

>  <HIPPO Compound ID>  (259) 
290592

>  <ref_mols>  (259) 
A4715a,A0875a

>  <distance_score>  (259) 
1.099157

>  <inspiration_score>  (259) 
None

$$$$
P498124
     RDKit          3D

 25 28  0  0  0  0  0  0  0  0999 V2000
   14.7279   11.8935   30.3568 C   0  0  0  0  0  0  0  0  0  0  0  0
   15.5930   12.9007   29.6417 C   0  0  0  0  0  0  0  0  0  0  0  0
   15.8689   14.0887   30.3466 C   0  0  0  0  0  0  0  0  0  0  0  0
   16.7612   15.0148   29.8427 C   0  0  0  0  0  0  0  0  0  0  0  0
   17.4181   14.7304   28.6588 C   0  0  0  0  0  0  0  0  0  0  0  0
   17.1307   13.5598   27.9239 C   0  0  0  0  0  0  0  0  0  0  0  0
   18.0361   13.2763   26.7639 C   0  0  0  0  0  0  0  0  0  0  0  0
   16.1273   12.6437   28.3354 C   0  0  0  0  0  0  0  0  0  0  0  0
   15.6082   11.3804   27.4893 C   0  0  2  0  0  0  0  0  0  0  0  0
   16.5706   10.2130   27.0736 C   0  0  0  0  0  0  0  0  0  0  0  0
   15.7147   10.0231   25.7606 C   0  0  0  0  0  0  0  0  0  0  0  0
   15.2753   11.3390   26.0752 N   0  0  0  0  0  0  0  0  0  0  0  0
   14.7140   12.2750   25.2899 C   0  0  0  0  0  0  0  0  0  0  0  0
   15.4989   13.0386   24.7320 O   0  0  0  0  0  0  0  0  0  0  0  0
   13.2287   12.5745   25.1054 C   0  0  2  0  0  0  0  0  0  0  0  0
   12.5897   13.0577   26.3760 C   0  0  0  0  0  0  0  0  0  0  0  0
   11.2366   13.6998   26.0926 C   0  0  0  0  0  0  0  0  0  0  0  0
   10.7691   14.5608   26.8252 O   0  0  0  0  0  0  0  0  0  0  0  0
   10.5874   13.1523   24.9984 N   0  0  0  0  0  0  0  0  0  0  0  0
    9.3822   13.6815   24.3934 C   0  0  0  0  0  0  0  0  0  0  0  0
    8.1739   12.8508   24.8074 C   0  0  0  0  0  0  0  0  0  0  0  0
    8.4484   11.3500   24.6855 C   0  0  0  0  0  0  0  0  0  0  0  0
    9.7808   11.0350   23.9945 C   0  0  0  0  0  0  0  0  0  0  0  0
   10.8281   11.7542   24.8293 C   0  0  1  0  0  0  0  0  0  0  0  0
   12.2837   11.5803   24.4757 C   0  0  0  0  0  0  0  0  0  0  0  0
  1  2  1  0
  2  3  2  0
  3  4  1  0
  4  5  2  0
  5  6  1  0
  6  7  1  0
  6  8  2  0
  9  8  1  6
  9 10  1  0
 10 11  1  0
 11 12  1  0
 12 13  1  0
 13 14  2  0
 15 13  1  1
 15 16  1  0
 16 17  1  0
 17 18  2  0
 17 19  1  0
 19 20  1  0
 20 21  1  0
 21 22  1  0
 22 23  1  0
 24 23  1  6
 24 25  1  0
  8  2  1  0
 12  9  1  0
 25 15  1  0
 24 19  1  0
M  END
>  <energy_score>  (260) 
-4.273056

>  <inchikey>  (260) 
None

>  <smiles>  (260) 
None

>  <ref_pdb>  (260) 
A0875a

>  <alias>  (260) 
None

>  <HIPPO Pose ID>  (260) 
498124

>  <name>  (260) 
P498124

>  <HIPPO Compound ID>  (260) 
290593

>  <ref_mols>  (260) 
A4715a,A0875a

>  <distance_score>  (260) 
1.289533

>  <inspiration_score>  (260) 
None

$$$$
P498129
     RDKit          3D

 25 28  0  0  0  0  0  0  0  0999 V2000
   18.8956    7.8816   28.3241 C   0  0  0  0  0  0  0  0  0  0  0  0
   17.6564    8.5552   28.8313 C   0  0  0  0  0  0  0  0  0  0  0  0
   17.0405    8.0913   29.9944 C   0  0  0  0  0  0  0  0  0  0  0  0
   15.9033    8.7275   30.4787 C   0  0  0  0  0  0  0  0  0  0  0  0
   15.3795    9.8365   29.8061 C   0  0  0  0  0  0  0  0  0  0  0  0
   15.9602   10.3479   28.6244 C   0  0  0  0  0  0  0  0  0  0  0  0
   15.5492   11.7256   27.9758 C   0  0  2  0  0  0  0  0  0  0  0  0
   15.0117   12.7644   28.9774 C   0  0  1  0  0  0  0  0  0  0  0  0
   16.0200   13.4962   29.8434 C   0  0  0  0  0  0  0  0  0  0  0  0
   14.5952   13.4686   27.7241 C   0  0  0  0  0  0  0  0  0  0  0  0
   14.3137   12.0738   27.0871 N   0  0  0  0  0  0  0  0  0  0  0  0
   14.1745   12.1709   25.5383 C   0  0  0  0  0  0  0  0  0  0  0  0
   14.9978   12.0785   24.6866 O   0  0  0  0  0  0  0  0  0  0  0  0
   12.7035   12.5543   25.1043 C   0  0  1  0  0  0  0  0  0  0  0  0
   12.6645   13.2819   23.7454 C   0  0  0  0  0  0  0  0  0  0  0  0
   11.2889   13.8785   23.5023 C   0  0  0  0  0  0  0  0  0  0  0  0
   11.1110   14.9943   23.0338 O   0  0  0  0  0  0  0  0  0  0  0  0
   10.2635   13.0003   23.8202 N   0  0  0  0  0  0  0  0  0  0  0  0
    8.8781   13.3720   23.6172 C   0  0  0  0  0  0  0  0  0  0  0  0
    7.9638   12.6803   24.6223 C   0  0  0  0  0  0  0  0  0  0  0  0
    8.3844   11.2633   24.9945 C   0  0  0  0  0  0  0  0  0  0  0  0
    9.4342   10.6644   24.0769 C   0  0  0  0  0  0  0  0  0  0  0  0
   10.6223   11.6004   23.8738 C   0  0  2  0  0  0  0  0  0  0  0  0
   11.6480   11.4564   25.0003 C   0  0  0  0  0  0  0  0  0  0  0  0
   17.1121    9.6655   28.1636 C   0  0  0  0  0  0  0  0  0  0  0  0
  1  2  1  0
  2  3  2  0
  3  4  1  0
  4  5  2  0
  5  6  1  0
  7  6  1  1
  7  8  1  0
  8  9  1  6
  8 10  1  0
 10 11  1  0
 11 12  1  0
 12 13  2  0
 14 12  1  6
 14 15  1  0
 15 16  1  0
 16 17  2  0
 16 18  1  0
 18 19  1  0
 19 20  1  0
 20 21  1  0
 21 22  1  0
 23 22  1  1
 23 24  1  0
  6 25  2  0
 25  2  1  0
 11  7  1  0
 24 14  1  0
 23 18  1  0
M  END
>  <energy_score>  (261) 
-14.696644

>  <inchikey>  (261) 
None

>  <smiles>  (261) 
None

>  <ref_pdb>  (261) 
A0875a

>  <alias>  (261) 
None

>  <HIPPO Pose ID>  (261) 
498129

>  <name>  (261) 
P498129

>  <HIPPO Compound ID>  (261) 
290594

>  <ref_mols>  (261) 
A4715a,A0875a

>  <distance_score>  (261) 
1.56878

>  <inspiration_score>  (261) 
None

$$$$
P498132
     RDKit          3D

 25 28  0  0  0  0  0  0  0  0999 V2000
   11.0933   14.5555   21.3500 C   0  0  0  0  0  0  0  0  0  0  0  0
   10.4619   15.0764   22.5676 N   0  0  0  0  0  0  0  0  0  0  0  0
    8.9807   15.2579   22.3578 C   0  0  0  0  0  0  0  0  0  0  0  0
    8.7572   13.8291   22.9088 C   0  0  2  0  0  0  0  0  0  0  0  0
    7.6228   13.5080   23.8045 N   0  0  0  0  0  0  0  0  0  0  0  0
    7.6094   13.0318   25.2873 C   0  0  0  0  0  0  0  0  0  0  0  0
    8.4874   12.8961   26.0464 O   0  0  0  0  0  0  0  0  0  0  0  0
    6.1894   12.6016   25.7011 C   0  0  2  0  0  0  0  0  0  0  0  0
    5.3993   13.5778   26.5429 C   0  0  0  0  0  0  0  0  0  0  0  0
    5.8046   13.6170   28.0049 C   0  0  0  0  0  0  0  0  0  0  0  0
    5.8342   14.6649   28.6456 O   0  0  0  0  0  0  0  0  0  0  0  0
    6.0605   12.3966   28.5934 N   0  0  0  0  0  0  0  0  0  0  0  0
    5.9650   12.3131   30.0540 C   0  0  0  0  0  0  0  0  0  0  0  0
    5.3501   10.9919   30.5189 C   0  0  0  0  0  0  0  0  0  0  0  0
    4.1872   10.5391   29.6237 C   0  0  0  0  0  0  0  0  0  0  0  0
    4.4058   10.7452   28.1182 C   0  0  0  0  0  0  0  0  0  0  0  0
    5.8282   11.1773   27.8479 C   0  0  1  0  0  0  0  0  0  0  0  0
    6.3173   11.2474   26.3985 C   0  0  0  0  0  0  0  0  0  0  0  0
   10.1138   14.0755   23.6116 C   0  0  1  0  0  0  0  0  0  0  0  0
   11.1371   12.9268   23.9267 C   0  0  0  0  0  0  0  0  0  0  0  0
   10.7414   11.6166   24.2222 C   0  0  0  0  0  0  0  0  0  0  0  0
   11.6490   10.6806   24.7095 C   0  0  0  0  0  0  0  0  0  0  0  0
   12.9841   11.0445   24.9519 C   0  0  0  0  0  0  0  0  0  0  0  0
   13.4153   12.3112   24.6423 C   0  0  0  0  0  0  0  0  0  0  0  0
   12.5036   13.1998   24.0894 C   0  0  0  0  0  0  0  0  0  0  0  0
  1  2  1  0
  2  3  1  0
  3  4  1  0
  4  5  1  1
  5  6  1  0
  6  7  2  0
  8  6  1  1
  8  9  1  0
  9 10  1  0
 10 11  2  0
 10 12  1  0
 12 13  1  0
 13 14  1  0
 14 15  1  0
 15 16  1  0
 17 16  1  6
 17 18  1  0
  4 19  1  0
 19 20  1  6
 20 21  2  0
 21 22  1  0
 22 23  2  0
 23 24  1  0
 24 25  2  0
 19  2  1  0
 25 20  1  0
 18  8  1  0
 17 12  1  0
M  END
>  <energy_score>  (262) 
-17.605524

>  <inchikey>  (262) 
None

>  <smiles>  (262) 
None

>  <ref_pdb>  (262) 
A0875a

>  <alias>  (262) 
None

>  <HIPPO Pose ID>  (262) 
498132

>  <name>  (262) 
P498132

>  <HIPPO Compound ID>  (262) 
290595

>  <ref_mols>  (262) 
A4715a,A0875a

>  <distance_score>  (262) 
1.874222

>  <inspiration_score>  (262) 
None

$$$$
P498133
     RDKit          3D

 31 33  0  0  0  0  0  0  0  0999 V2000
   10.4998    8.9986   23.9084 C   0  0  0  0  0  0  0  0  0  0  0  0
   11.4960    9.5856   24.7425 O   0  0  0  0  0  0  0  0  0  0  0  0
   11.6939   10.9249   24.5408 C   0  0  0  0  0  0  0  0  0  0  0  0
   12.9172   11.4203   24.9859 C   0  0  0  0  0  0  0  0  0  0  0  0
   13.3529   12.6414   24.5343 C   0  0  0  0  0  0  0  0  0  0  0  0
   12.5304   13.4115   23.7149 C   0  0  0  0  0  0  0  0  0  0  0  0
   11.2587   12.9999   23.3248 C   0  0  0  0  0  0  0  0  0  0  0  0
   10.2690   13.8531   22.4622 C   0  0  2  0  0  0  0  0  0  0  0  0
   10.6132   15.2447   22.0279 C   0  0  0  0  0  0  0  0  0  0  0  0
    9.1329   15.4597   22.1426 C   0  0  0  0  0  0  0  0  0  0  0  0
    9.0495   14.4642   23.2797 N   0  0  0  0  0  0  0  0  0  0  0  0
    8.0082   13.4089   23.5944 C   0  0  0  0  0  0  0  0  0  0  0  0
    7.0621   13.0667   22.9824 O   0  0  0  0  0  0  0  0  0  0  0  0
    8.2781   12.8282   25.0045 C   0  0  0  0  0  0  0  0  0  0  0  0
    7.0918   12.0713   25.6223 C   0  0  0  0  0  0  0  0  0  0  0  0
    6.2606   12.9225   26.5772 C   0  0  0  0  0  0  0  0  0  0  0  0
    5.0380   12.3301   27.1347 N   0  0  0  0  0  0  0  0  0  0  0  0
    4.0906   13.3647   27.5829 C   0  0  0  0  0  0  0  0  0  0  0  0
    4.4300   13.9493   28.9549 C   0  0  0  0  0  0  0  0  0  0  0  0
    4.7566   12.8614   29.9839 C   0  0  0  0  0  0  0  0  0  0  0  0
    4.0727   13.0826   31.2370 N   0  0  0  0  0  0  0  0  0  0  0  0
    4.5239   12.8320   32.6668 C   0  0  0  0  0  0  0  0  0  0  0  0
    5.5471   12.4782   33.0815 O   0  0  0  0  0  0  0  0  0  0  0  0
    3.4267   13.1090   33.4163 O   0  0  0  0  0  0  0  0  0  0  0  0
    3.4419   12.9715   34.8618 C   0  0  0  0  0  0  0  0  0  0  0  0
    4.4566   13.9240   35.5026 C   0  0  0  0  0  0  0  0  0  0  0  0
    3.6830   11.5159   35.2760 C   0  0  0  0  0  0  0  0  0  0  0  0
    2.0310   13.3838   35.3076 C   0  0  0  0  0  0  0  0  0  0  0  0
    4.4715   11.4619   29.4382 C   0  0  0  0  0  0  0  0  0  0  0  0
    5.2286   11.2662   28.1209 C   0  0  0  0  0  0  0  0  0  0  0  0
   10.9053   11.7052   23.7034 C   0  0  0  0  0  0  0  0  0  0  0  0
  1  2  1  0
  2  3  1  0
  3  4  2  0
  4  5  1  0
  5  6  2  0
  6  7  1  0
  8  7  1  1
  8  9  1  0
  9 10  1  0
 10 11  1  0
 11 12  1  0
 12 13  2  0
 12 14  1  0
 14 15  1  0
 15 16  1  0
 16 17  1  0
 17 18  1  0
 18 19  1  0
 19 20  1  0
 20 21  1  0
 21 22  1  0
 22 23  2  0
 22 24  1  0
 24 25  1  0
 25 26  1  0
 25 27  1  0
 25 28  1  0
 20 29  1  0
 29 30  1  0
  7 31  2  0
 31  3  1  0
 11  8  1  0
 30 17  1  0
M  END
>  <energy_score>  (263) 
-32.631323

>  <inchikey>  (263) 
None

>  <smiles>  (263) 
None

>  <ref_pdb>  (263) 
A0875a

>  <alias>  (263) 
None

>  <HIPPO Pose ID>  (263) 
498133

>  <name>  (263) 
P498133

>  <HIPPO Compound ID>  (263) 
290707

>  <ref_mols>  (263) 
A4715a,A0875a

>  <distance_score>  (263) 
1.293408

>  <inspiration_score>  (263) 
None

$$$$
P498135
     RDKit          3D

 22 24  0  0  0  0  0  0  0  0999 V2000
   11.7587   14.0456   21.1768 C   0  0  0  0  0  0  0  0  0  0  0  0
   11.5188   15.5147   21.0798 C   0  0  2  0  0  0  0  0  0  0  0  0
   10.9069   16.2008   22.6582 S   0  0  0  0  0  0  0  0  0  0  0  0
   10.5086   14.8376   23.5809 C   0  0  0  0  0  0  0  0  0  0  0  0
   11.3708   14.2984   24.4021 N   0  0  0  0  0  0  0  0  0  0  0  0
   10.9308   13.0455   24.6637 N   0  0  0  0  0  0  0  0  0  0  0  0
    9.7511   12.8988   24.0982 C   0  0  0  0  0  0  0  0  0  0  0  0
    8.9011   11.7557   24.2480 C   0  0  0  0  0  0  0  0  0  0  0  0
    7.8452   11.8510   25.1482 C   0  0  0  0  0  0  0  0  0  0  0  0
    7.1394   10.7092   25.4268 C   0  0  0  0  0  0  0  0  0  0  0  0
    7.4321    9.5156   24.8865 N   0  0  0  0  0  0  0  0  0  0  0  0
    8.4537    9.4550   23.9983 C   0  0  0  0  0  0  0  0  0  0  0  0
    9.1921   10.5512   23.6236 C   0  0  0  0  0  0  0  0  0  0  0  0
    9.4111   14.0449   23.4385 N   0  0  0  0  0  0  0  0  0  0  0  0
    8.1941   14.2606   22.7019 C   0  0  0  0  0  0  0  0  0  0  0  0
   10.5942   15.7712   19.8932 C   0  0  0  0  0  0  0  0  0  0  0  0
   10.7449   15.2094   18.8111 O   0  0  0  0  0  0  0  0  0  0  0  0
    9.6064   16.7696   20.1491 C   0  0  0  0  0  0  0  0  0  0  0  0
    9.5743   18.1080   19.8656 C   0  0  0  0  0  0  0  0  0  0  0  0
    8.6770   18.6960   20.7524 C   0  0  0  0  0  0  0  0  0  0  0  0
    8.0438   17.6518   21.3833 C   0  0  0  0  0  0  0  0  0  0  0  0
    8.5823   16.4708   21.0032 O   0  0  0  0  0  0  0  0  0  0  0  0
  2  1  1  1
  2  3  1  0
  3  4  1  0
  4  5  2  0
  5  6  1  0
  6  7  2  0
  7  8  1  0
  8  9  2  0
  9 10  1  0
 10 11  2  0
 11 12  1  0
 12 13  2  0
  7 14  1  0
 14 15  1  0
  2 16  1  0
 16 17  2  0
 16 18  1  0
 18 19  2  0
 19 20  1  0
 20 21  2  0
 21 22  1  0
 14  4  1  0
 22 18  1  0
 13  8  1  0
M  END
>  <energy_score>  (264) 
-2.605288

>  <inchikey>  (264) 
None

>  <smiles>  (264) 
None

>  <ref_pdb>  (264) 
A4298a

>  <alias>  (264) 
None

>  <HIPPO Pose ID>  (264) 
498135

>  <name>  (264) 
P498135

>  <HIPPO Compound ID>  (264) 
290811

>  <ref_mols>  (264) 
A4298a,A1778a

>  <distance_score>  (264) 
1.91381

>  <inspiration_score>  (264) 
None

$$$$
P498137
     RDKit          3D

 28 31  0  0  0  0  0  0  0  0999 V2000
   11.9180   13.8201   23.0985 C   0  0  0  0  0  0  0  0  0  0  0  0
   11.2622   14.7849   22.1600 C   0  0  2  0  0  0  0  0  0  0  0  0
    9.4042   14.6579   22.2341 S   0  0  0  0  0  0  0  0  0  0  0  0
    9.2328   15.0310   23.8838 C   0  0  0  0  0  0  0  0  0  0  0  0
   10.0477   15.7822   24.5735 N   0  0  0  0  0  0  0  0  0  0  0  0
    9.6087   15.7634   25.8546 N   0  0  0  0  0  0  0  0  0  0  0  0
    8.4908   15.0499   25.9121 C   0  0  0  0  0  0  0  0  0  0  0  0
    7.6413   14.9968   27.0980 C   0  0  0  0  0  0  0  0  0  0  0  0
    6.2470   14.9515   27.0416 C   0  0  0  0  0  0  0  0  0  0  0  0
    5.5281   14.9380   28.2280 C   0  0  0  0  0  0  0  0  0  0  0  0
    6.0947   14.9881   29.4498 N   0  0  0  0  0  0  0  0  0  0  0  0
    7.4354   15.1078   29.4898 C   0  0  0  0  0  0  0  0  0  0  0  0
    8.2351   15.1264   28.3595 C   0  0  0  0  0  0  0  0  0  0  0  0
    8.3204   14.4341   24.6929 N   0  0  0  0  0  0  0  0  0  0  0  0
    7.4067   13.3867   24.3068 C   0  0  0  0  0  0  0  0  0  0  0  0
    8.0034   11.9964   24.3521 C   0  0  0  0  0  0  0  0  0  0  0  0
    9.0362   11.5516   23.5116 C   0  0  0  0  0  0  0  0  0  0  0  0
    9.3228   10.1975   23.3735 C   0  0  0  0  0  0  0  0  0  0  0  0
    8.6198    9.2677   24.1042 C   0  0  0  0  0  0  0  0  0  0  0  0
    7.6328    9.6915   24.9829 C   0  0  0  0  0  0  0  0  0  0  0  0
    7.3390   11.0421   25.1244 C   0  0  0  0  0  0  0  0  0  0  0  0
   11.6543   14.6586   20.6941 C   0  0  0  0  0  0  0  0  0  0  0  0
   12.3446   13.8078   20.1620 O   0  0  0  0  0  0  0  0  0  0  0  0
   10.9893   15.6460   19.9578 C   0  0  0  0  0  0  0  0  0  0  0  0
   10.5119   16.8509   20.3994 C   0  0  0  0  0  0  0  0  0  0  0  0
    9.6889   17.2703   19.3917 C   0  0  0  0  0  0  0  0  0  0  0  0
    9.5735   16.1965   18.5180 C   0  0  0  0  0  0  0  0  0  0  0  0
   10.4735   15.2558   18.7885 O   0  0  0  0  0  0  0  0  0  0  0  0
  2  1  1  1
  2  3  1  0
  3  4  1  0
  4  5  2  0
  5  6  1  0
  6  7  2  0
  7  8  1  0
  8  9  2  0
  9 10  1  0
 10 11  2  0
 11 12  1  0
 12 13  2  0
  7 14  1  0
 14 15  1  0
 15 16  1  0
 16 17  2  0
 17 18  1  0
 18 19  2  0
 19 20  1  0
 20 21  2  0
  2 22  1  0
 22 23  2  0
 22 24  1  0
 24 25  2  0
 25 26  1  0
 26 27  2  0
 27 28  1  0
 14  4  1  0
 21 16  1  0
 28 24  1  0
 13  8  1  0
M  END
>  <energy_score>  (265) 
-0.765736

>  <inchikey>  (265) 
None

>  <smiles>  (265) 
None

>  <ref_pdb>  (265) 
A4298a

>  <alias>  (265) 
None

>  <HIPPO Pose ID>  (265) 
498137

>  <name>  (265) 
P498137

>  <HIPPO Compound ID>  (265) 
290827

>  <ref_mols>  (265) 
A4298a,A1778a

>  <distance_score>  (265) 
1.985255

>  <inspiration_score>  (265) 
None

$$$$
P498138
     RDKit          3D

 19 21  0  0  0  0  0  0  0  0999 V2000
   12.7360   15.5945   22.1811 C   0  0  0  0  0  0  0  0  0  0  0  0
   11.8953   14.4921   21.6029 C   0  0  1  0  0  0  0  0  0  0  0  0
   10.8943   14.0181   22.5118 N   0  0  0  0  0  0  0  0  0  0  0  0
   10.8049   14.1232   24.0405 C   0  0  0  0  0  0  0  0  0  0  0  0
   11.4894   14.6773   24.7993 O   0  0  0  0  0  0  0  0  0  0  0  0
    9.6396   13.2959   24.4235 C   0  0  0  0  0  0  0  0  0  0  0  0
    9.5144   11.9498   23.9088 C   0  0  0  0  0  0  0  0  0  0  0  0
    8.5256   11.1995   24.3696 C   0  0  0  0  0  0  0  0  0  0  0  0
    7.6395   11.6885   25.2739 N   0  0  0  0  0  0  0  0  0  0  0  0
    7.6518   12.9564   25.7571 C   0  0  0  0  0  0  0  0  0  0  0  0
    6.8376   13.3293   26.5897 O   0  0  0  0  0  0  0  0  0  0  0  0
    8.7539   13.8153   25.2847 C   0  0  0  0  0  0  0  0  0  0  0  0
    6.6056   10.8098   25.7104 C   0  0  0  0  0  0  0  0  0  0  0  0
    6.8645    9.4579   25.1215 C   0  0  0  0  0  0  0  0  0  0  0  0
    8.2578    9.5701   23.9713 S   0  0  0  0  0  0  0  0  0  0  0  0
   11.0825   14.8502   20.3779 C   0  0  1  0  0  0  0  0  0  0  0  0
   10.2087   16.1015   20.2666 C   0  0  0  0  0  0  0  0  0  0  0  0
   10.6750   16.0403   18.8070 C   0  0  0  0  0  0  0  0  0  0  0  0
   11.8555   15.2699   19.2223 O   0  0  0  0  0  0  0  0  0  0  0  0
  2  1  1  1
  2  3  1  0
  3  4  1  0
  4  5  2  0
  4  6  1  0
  6  7  1  0
  7  8  2  0
  8  9  1  0
  9 10  1  0
 10 11  2  0
 10 12  1  0
  9 13  1  0
 13 14  1  0
 14 15  1  0
  2 16  1  0
 16 17  1  1
 17 18  1  0
 18 19  1  0
 12  6  2  0
 19 16  1  0
 15  8  1  0
M  END
>  <energy_score>  (266) 
-20.258617

>  <inchikey>  (266) 
None

>  <smiles>  (266) 
None

>  <ref_pdb>  (266) 
A3176a

>  <alias>  (266) 
None

>  <HIPPO Pose ID>  (266) 
498138

>  <name>  (266) 
P498138

>  <HIPPO Compound ID>  (266) 
290958

>  <ref_mols>  (266) 
A3176a,A2629a

>  <distance_score>  (266) 
1.911063

>  <inspiration_score>  (266) 
None

$$$$
P498140
     RDKit          3D

 20 20  0  0  0  0  0  0  0  0999 V2000
   12.7841   13.8519   24.4584 C   0  0  0  0  0  0  0  0  0  0  0  0
   12.6379   14.5035   23.2924 C   0  0  0  0  0  0  0  0  0  0  0  0
   11.7135   14.1518   22.1492 C   0  0  2  0  0  0  0  0  0  0  0  0
   11.2370   15.3832   21.3674 C   0  0  0  0  0  0  0  0  0  0  0  0
   10.5545   14.9861   20.1744 O   0  0  0  0  0  0  0  0  0  0  0  0
   11.3916   14.9875   19.0268 C   0  0  0  0  0  0  0  0  0  0  0  0
   10.5972   13.4092   22.6674 N   0  0  0  0  0  0  0  0  0  0  0  0
    9.6181   13.7415   23.8032 C   0  0  0  0  0  0  0  0  0  0  0  0
    9.5110   14.7049   24.4512 O   0  0  0  0  0  0  0  0  0  0  0  0
    8.7356   12.5868   24.1820 C   0  0  0  0  0  0  0  0  0  0  0  0
    8.9410   11.2654   23.8104 C   0  0  0  0  0  0  0  0  0  0  0  0
    8.1498   10.3003   24.3980 C   0  0  0  0  0  0  0  0  0  0  0  0
    7.1980   10.5702   25.3118 N   0  0  0  0  0  0  0  0  0  0  0  0
    6.9667   11.8591   25.6474 C   0  0  0  0  0  0  0  0  0  0  0  0
    5.7286   12.0362   26.9118 S   0  0  0  0  0  0  0  0  0  0  0  0
    5.0570   13.7685   26.8834 C   0  0  0  0  0  0  0  0  0  0  0  0
    6.0085   14.7347   27.6024 C   0  0  0  0  0  0  0  0  0  0  0  0
    3.7603   13.6890   27.7216 C   0  0  0  0  0  0  0  0  0  0  0  0
    4.6678   14.2691   25.4893 C   0  0  0  0  0  0  0  0  0  0  0  0
    7.7217   12.8716   25.0996 C   0  0  0  0  0  0  0  0  0  0  0  0
  1  2  2  0
  2  3  1  0
  3  4  1  1
  4  5  1  0
  5  6  1  0
  3  7  1  0
  7  8  1  0
  8  9  2  0
  8 10  1  0
 10 11  2  0
 11 12  1  0
 12 13  2  0
 13 14  1  0
 14 15  1  0
 15 16  1  0
 16 17  1  0
 16 18  1  0
 16 19  1  0
 14 20  2  0
 20 10  1  0
M  END
>  <energy_score>  (267) 
-0.212605

>  <inchikey>  (267) 
None

>  <smiles>  (267) 
None

>  <ref_pdb>  (267) 
A3176a

>  <alias>  (267) 
None

>  <HIPPO Pose ID>  (267) 
498140

>  <name>  (267) 
P498140

>  <HIPPO Compound ID>  (267) 
291028

>  <ref_mols>  (267) 
A3176a,A2629a

>  <distance_score>  (267) 
1.940412

>  <inspiration_score>  (267) 
None

$$$$
P498141
     RDKit          3D

 20 20  0  0  0  0  0  0  0  0999 V2000
   12.5364   14.4492   24.7985 C   0  0  0  0  0  0  0  0  0  0  0  0
   12.7068   14.4674   23.2853 C   0  0  0  0  0  0  0  0  0  0  0  0
   11.5166   14.9482   22.4610 C   0  0  1  0  0  0  0  0  0  0  0  0
   11.8048   14.8356   20.9666 C   0  0  0  0  0  0  0  0  0  0  0  0
   10.6779   15.3247   20.2498 O   0  0  0  0  0  0  0  0  0  0  0  0
   10.8961   15.2981   18.8467 C   0  0  0  0  0  0  0  0  0  0  0  0
   10.3538   14.2312   22.9065 N   0  0  0  0  0  0  0  0  0  0  0  0
    9.4723   14.4367   24.1345 C   0  0  0  0  0  0  0  0  0  0  0  0
    9.4945   15.2676   24.9487 O   0  0  0  0  0  0  0  0  0  0  0  0
    8.4942   13.3412   24.3751 C   0  0  0  0  0  0  0  0  0  0  0  0
    8.6895   12.0162   23.9999 C   0  0  0  0  0  0  0  0  0  0  0  0
    7.9956   11.0501   24.7069 C   0  0  0  0  0  0  0  0  0  0  0  0
    7.2134   11.3232   25.7763 N   0  0  0  0  0  0  0  0  0  0  0  0
    7.0005   12.6193   26.0810 C   0  0  0  0  0  0  0  0  0  0  0  0
    6.3627   13.0946   27.6947 S   0  0  0  0  0  0  0  0  0  0  0  0
    4.7746   12.2103   27.8417 C   0  0  0  0  0  0  0  0  0  0  0  0
    4.3039   12.4018   29.2948 C   0  0  0  0  0  0  0  0  0  0  0  0
    4.9536   10.7204   27.5796 C   0  0  0  0  0  0  0  0  0  0  0  0
    3.7569   12.8612   26.9054 C   0  0  0  0  0  0  0  0  0  0  0  0
    7.5618   13.6406   25.3584 C   0  0  0  0  0  0  0  0  0  0  0  0
  1  2  1  0
  3  2  1  1
  3  4  1  0
  4  5  1  0
  5  6  1  0
  3  7  1  0
  7  8  1  0
  8  9  2  0
  8 10  1  0
 10 11  2  0
 11 12  1  0
 12 13  2  0
 13 14  1  0
 14 15  1  0
 15 16  1  0
 16 17  1  0
 16 18  1  0
 16 19  1  0
 14 20  2  0
 20 10  1  0
M  END
>  <energy_score>  (268) 
-1.557439

>  <inchikey>  (268) 
None

>  <smiles>  (268) 
None

>  <ref_pdb>  (268) 
A3176a

>  <alias>  (268) 
None

>  <HIPPO Pose ID>  (268) 
498141

>  <name>  (268) 
P498141

>  <HIPPO Compound ID>  (268) 
291039

>  <ref_mols>  (268) 
A3176a,A2629a

>  <distance_score>  (268) 
1.983996

>  <inspiration_score>  (268) 
None

$$$$
P498142
     RDKit          3D

 20 21  0  0  0  0  0  0  0  0999 V2000
   12.4861   15.0192   22.9657 C   0  0  0  0  0  0  0  0  0  0  0  0
   11.1470   15.0352   22.2724 C   0  0  2  0  0  0  0  0  0  0  0  0
   10.3995   13.8702   22.6419 N   0  0  0  0  0  0  0  0  0  0  0  0
    9.7930   13.4602   23.9935 C   0  0  0  0  0  0  0  0  0  0  0  0
    9.8696   13.9668   25.0414 O   0  0  0  0  0  0  0  0  0  0  0  0
    9.0166   12.1944   23.9744 C   0  0  0  0  0  0  0  0  0  0  0  0
    9.4063   11.0782   23.2556 C   0  0  0  0  0  0  0  0  0  0  0  0
    8.7902    9.8818   23.5560 C   0  0  0  0  0  0  0  0  0  0  0  0
    7.8049    9.7735   24.4727 N   0  0  0  0  0  0  0  0  0  0  0  0
    7.3867   10.8783   25.1342 C   0  0  0  0  0  0  0  0  0  0  0  0
    6.1245   10.5394   26.3302 S   0  0  0  0  0  0  0  0  0  0  0  0
    5.5030   12.1114   27.0997 C   0  0  0  0  0  0  0  0  0  0  0  0
    4.9357   13.0882   26.0778 C   0  0  0  0  0  0  0  0  0  0  0  0
    4.3557   11.6779   28.0460 C   0  0  0  0  0  0  0  0  0  0  0  0
    6.4891   12.8675   27.9976 C   0  0  0  0  0  0  0  0  0  0  0  0
    7.9790   12.0957   24.9064 C   0  0  0  0  0  0  0  0  0  0  0  0
   11.3572   15.2921   20.8069 C   0  0  1  0  0  0  0  0  0  0  0  0
   12.3302   14.5521   19.8920 C   0  0  0  0  0  0  0  0  0  0  0  0
   11.2784   14.8943   18.8334 C   0  0  0  0  0  0  0  0  0  0  0  0
   10.2670   14.9491   19.9090 O   0  0  0  0  0  0  0  0  0  0  0  0
  2  1  1  1
  2  3  1  0
  3  4  1  0
  4  5  2  0
  4  6  1  0
  6  7  2  0
  7  8  1  0
  8  9  2  0
  9 10  1  0
 10 11  1  0
 11 12  1  0
 12 13  1  0
 12 14  1  0
 12 15  1  0
 10 16  2  0
  2 17  1  0
 17 18  1  6
 18 19  1  0
 19 20  1  0
 16  6  1  0
 20 17  1  0
M  END
>  <energy_score>  (269) 
-4.832376

>  <inchikey>  (269) 
None

>  <smiles>  (269) 
None

>  <ref_pdb>  (269) 
A3176a

>  <alias>  (269) 
None

>  <HIPPO Pose ID>  (269) 
498142

>  <name>  (269) 
P498142

>  <HIPPO Compound ID>  (269) 
291043

>  <ref_mols>  (269) 
A3176a,A2629a

>  <distance_score>  (269) 
1.876781

>  <inspiration_score>  (269) 
None

$$$$
P498145
     RDKit          3D

 20 22  0  0  0  0  0  0  0  0999 V2000
   12.8882   14.7687   23.2037 C   0  0  0  0  0  0  0  0  0  0  0  0
   11.6505   15.4609   22.6883 C   0  0  2  0  0  0  0  0  0  0  0  0
   10.5834   14.6396   23.1180 N   0  0  0  0  0  0  0  0  0  0  0  0
    9.9266   14.4949   24.5066 C   0  0  0  0  0  0  0  0  0  0  0  0
   10.1101   15.0849   25.4937 O   0  0  0  0  0  0  0  0  0  0  0  0
    9.0202   13.3231   24.4021 C   0  0  0  0  0  0  0  0  0  0  0  0
    9.5873   12.1973   23.6936 C   0  0  0  0  0  0  0  0  0  0  0  0
    8.9853   11.0340   23.7405 C   0  0  0  0  0  0  0  0  0  0  0  0
    7.8745   10.8510   24.4894 N   0  0  0  0  0  0  0  0  0  0  0  0
    7.3178   11.8203   25.2851 C   0  0  0  0  0  0  0  0  0  0  0  0
    6.4436   11.5734   26.1087 O   0  0  0  0  0  0  0  0  0  0  0  0
    7.9303   13.1757   25.1715 C   0  0  0  0  0  0  0  0  0  0  0  0
    7.5537    9.4751   24.6924 C   0  0  0  0  0  0  0  0  0  0  0  0
    8.3880    8.6153   23.7571 C   0  0  0  0  0  0  0  0  0  0  0  0
    9.6203    9.6442   23.0131 S   0  0  0  0  0  0  0  0  0  0  0  0
   11.6833   15.6260   21.1786 C   0  0  2  0  0  0  0  0  0  0  0  0
   10.4030   16.1711   20.5684 C   0  0  0  0  0  0  0  0  0  0  0  0
   10.5773   15.8664   19.1032 C   0  0  0  0  0  0  0  0  0  0  0  0
   11.5302   14.6960   19.0910 C   0  0  0  0  0  0  0  0  0  0  0  0
   11.9093   14.4132   20.4505 O   0  0  0  0  0  0  0  0  0  0  0  0
  2  1  1  6
  2  3  1  0
  3  4  1  0
  4  5  2  0
  4  6  1  0
  6  7  1  0
  7  8  2  0
  8  9  1  0
  9 10  1  0
 10 11  2  0
 10 12  1  0
  9 13  1  0
 13 14  1  0
 14 15  1  0
  2 16  1  0
 16 17  1  6
 17 18  1  0
 18 19  1  0
 19 20  1  0
 12  6  2  0
 20 16  1  0
 15  8  1  0
M  END
>  <energy_score>  (270) 
-9.806562

>  <inchikey>  (270) 
None

>  <smiles>  (270) 
None

>  <ref_pdb>  (270) 
A3176a

>  <alias>  (270) 
None

>  <HIPPO Pose ID>  (270) 
498145

>  <name>  (270) 
P498145

>  <HIPPO Compound ID>  (270) 
291060

>  <ref_mols>  (270) 
A3176a,A2629a

>  <distance_score>  (270) 
1.734593

>  <inspiration_score>  (270) 
None

$$$$
P498146
     RDKit          3D

 21 21  0  0  0  0  0  0  0  0999 V2000
   11.1938   15.0937   19.2676 C   0  0  0  0  0  0  0  0  0  0  0  0
   10.8639   15.2894   20.6365 O   0  0  0  0  0  0  0  0  0  0  0  0
   11.7787   14.6444   21.5217 C   0  0  0  0  0  0  0  0  0  0  0  0
   11.2494   14.7552   22.9706 C   0  0  1  0  0  0  0  0  0  0  0  0
   10.2390   13.7778   23.3238 N   0  0  0  0  0  0  0  0  0  0  0  0
    8.8542   13.5238   22.7325 C   0  0  0  0  0  0  0  0  0  0  0  0
    8.3272   14.0036   21.8181 O   0  0  0  0  0  0  0  0  0  0  0  0
    8.1913   12.5679   23.6281 C   0  0  0  0  0  0  0  0  0  0  0  0
    8.5230   11.2231   23.6222 C   0  0  0  0  0  0  0  0  0  0  0  0
    8.0378   10.4573   24.6566 C   0  0  0  0  0  0  0  0  0  0  0  0
    7.3750   10.9740   25.7159 N   0  0  0  0  0  0  0  0  0  0  0  0
    7.0998   12.2965   25.7021 C   0  0  0  0  0  0  0  0  0  0  0  0
    6.6167   13.0826   27.2201 S   0  0  0  0  0  0  0  0  0  0  0  0
    4.9903   12.3614   27.6823 C   0  0  0  0  0  0  0  0  0  0  0  0
    4.9942   10.8324   27.6967 C   0  0  0  0  0  0  0  0  0  0  0  0
    4.7011   12.8505   29.1147 C   0  0  0  0  0  0  0  0  0  0  0  0
    3.9265   12.9395   26.7503 C   0  0  0  0  0  0  0  0  0  0  0  0
    7.4671   13.1222   24.6636 C   0  0  0  0  0  0  0  0  0  0  0  0
   12.3822   14.6597   24.0263 C   0  0  0  0  0  0  0  0  0  0  0  0
   11.9950   15.2929   25.3704 C   0  0  0  0  0  0  0  0  0  0  0  0
   12.8353   13.2339   24.3263 C   0  0  0  0  0  0  0  0  0  0  0  0
  1  2  1  0
  2  3  1  0
  4  3  1  6
  4  5  1  0
  5  6  1  0
  6  7  2  0
  6  8  1  0
  8  9  2  0
  9 10  1  0
 10 11  2  0
 11 12  1  0
 12 13  1  0
 13 14  1  0
 14 15  1  0
 14 16  1  0
 14 17  1  0
 12 18  2  0
  4 19  1  0
 19 20  1  0
 19 21  1  0
 18  8  1  0
M  END
>  <energy_score>  (271) 
-10.14882

>  <inchikey>  (271) 
None

>  <smiles>  (271) 
None

>  <ref_pdb>  (271) 
A3176a

>  <alias>  (271) 
None

>  <HIPPO Pose ID>  (271) 
498146

>  <name>  (271) 
P498146

>  <HIPPO Compound ID>  (271) 
291064

>  <ref_mols>  (271) 
A3176a,A2629a

>  <distance_score>  (271) 
1.980624

>  <inspiration_score>  (271) 
None

$$$$
P498147
     RDKit          3D

 21 21  0  0  0  0  0  0  0  0999 V2000
   13.3851   13.5923   25.2386 C   0  0  0  0  0  0  0  0  0  0  0  0
   12.7097   13.6127   23.9925 O   0  0  0  0  0  0  0  0  0  0  0  0
   12.4958   14.9450   23.4824 C   0  0  0  0  0  0  0  0  0  0  0  0
   11.3810   14.9254   22.4187 C   0  0  1  0  0  0  0  0  0  0  0  0
   11.9411   14.5960   21.0415 C   0  0  0  0  0  0  0  0  0  0  0  0
   10.9858   14.9485   19.9123 C   0  0  0  0  0  0  0  0  0  0  0  0
   11.5925   14.5976   18.6719 O   0  0  0  0  0  0  0  0  0  0  0  0
   10.3866   14.0107   22.9384 N   0  0  0  0  0  0  0  0  0  0  0  0
    8.8946   13.8907   22.6375 C   0  0  0  0  0  0  0  0  0  0  0  0
    8.2344   14.4544   21.8676 O   0  0  0  0  0  0  0  0  0  0  0  0
    8.3027   12.9462   23.6056 C   0  0  0  0  0  0  0  0  0  0  0  0
    8.5935   11.5930   23.6281 C   0  0  0  0  0  0  0  0  0  0  0  0
    8.1091   10.8670   24.6969 C   0  0  0  0  0  0  0  0  0  0  0  0
    7.4682   11.4201   25.7555 N   0  0  0  0  0  0  0  0  0  0  0  0
    7.2161   12.7471   25.7114 C   0  0  0  0  0  0  0  0  0  0  0  0
    6.6621   13.5738   27.2005 S   0  0  0  0  0  0  0  0  0  0  0  0
    4.9624   12.9258   27.4918 C   0  0  0  0  0  0  0  0  0  0  0  0
    4.5131   13.5127   28.8431 C   0  0  0  0  0  0  0  0  0  0  0  0
    4.9348   11.3999   27.5974 C   0  0  0  0  0  0  0  0  0  0  0  0
    4.0238   13.4421   26.4003 C   0  0  0  0  0  0  0  0  0  0  0  0
    7.6005   13.5345   24.6459 C   0  0  0  0  0  0  0  0  0  0  0  0
  1  2  1  0
  2  3  1  0
  4  3  1  1
  4  5  1  0
  5  6  1  0
  6  7  1  0
  4  8  1  0
  8  9  1  0
  9 10  2  0
  9 11  1  0
 11 12  2  0
 12 13  1  0
 13 14  2  0
 14 15  1  0
 15 16  1  0
 16 17  1  0
 17 18  1  0
 17 19  1  0
 17 20  1  0
 15 21  2  0
 21 11  1  0
M  END
>  <energy_score>  (272) 
-12.043315

>  <inchikey>  (272) 
None

>  <smiles>  (272) 
None

>  <ref_pdb>  (272) 
A3176a

>  <alias>  (272) 
None

>  <HIPPO Pose ID>  (272) 
498147

>  <name>  (272) 
P498147

>  <HIPPO Compound ID>  (272) 
291066

>  <ref_mols>  (272) 
A3176a,A2629a

>  <distance_score>  (272) 
1.918952

>  <inspiration_score>  (272) 
None

$$$$
P498148
     RDKit          3D

 21 21  0  0  0  0  0  0  0  0999 V2000
   10.1203   16.1276   19.0442 C   0  0  0  0  0  0  0  0  0  0  0  0
   10.1529   15.3734   20.2615 O   0  0  0  0  0  0  0  0  0  0  0  0
   11.1720   14.4761   20.3188 C   0  0  0  0  0  0  0  0  0  0  0  0
   11.8968   14.1713   19.3730 O   0  0  0  0  0  0  0  0  0  0  0  0
   11.4006   13.9502   21.7478 C   0  0  1  0  0  0  0  0  0  0  0  0
   11.9199   15.0721   22.6287 C   0  0  0  0  0  0  0  0  0  0  0  0
   13.2585   15.8779   21.8678 Cl  0  0  0  0  0  0  0  0  0  0  0  0
   10.3205   13.3030   22.4740 N   0  0  0  0  0  0  0  0  0  0  0  0
    9.1015   13.8978   23.1803 C   0  0  0  0  0  0  0  0  0  0  0  0
    8.7210   14.9946   23.2311 O   0  0  0  0  0  0  0  0  0  0  0  0
    8.3614   12.8946   24.0055 C   0  0  0  0  0  0  0  0  0  0  0  0
    8.4058   11.5160   23.8532 C   0  0  0  0  0  0  0  0  0  0  0  0
    7.7858   10.7422   24.8184 C   0  0  0  0  0  0  0  0  0  0  0  0
    7.1753   11.2460   25.9144 N   0  0  0  0  0  0  0  0  0  0  0  0
    7.1052   12.5856   26.0290 C   0  0  0  0  0  0  0  0  0  0  0  0
    6.5275   13.3170   27.5611 S   0  0  0  0  0  0  0  0  0  0  0  0
    4.8118   12.6858   27.7770 C   0  0  0  0  0  0  0  0  0  0  0  0
    4.7767   11.1634   27.9314 C   0  0  0  0  0  0  0  0  0  0  0  0
    4.2931   13.3146   29.0842 C   0  0  0  0  0  0  0  0  0  0  0  0
    3.9367   13.1730   26.6229 C   0  0  0  0  0  0  0  0  0  0  0  0
    7.6845   13.4263   25.1013 C   0  0  0  0  0  0  0  0  0  0  0  0
  1  2  1  0
  2  3  1  0
  3  4  2  0
  3  5  1  0
  5  6  1  1
  6  7  1  0
  5  8  1  0
  8  9  1  0
  9 10  2  0
  9 11  1  0
 11 12  2  0
 12 13  1  0
 13 14  2  0
 14 15  1  0
 15 16  1  0
 16 17  1  0
 17 18  1  0
 17 19  1  0
 17 20  1  0
 15 21  2  0
 21 11  1  0
M  END
>  <energy_score>  (273) 
-3.214707

>  <inchikey>  (273) 
None

>  <smiles>  (273) 
None

>  <ref_pdb>  (273) 
A3176a

>  <alias>  (273) 
None

>  <HIPPO Pose ID>  (273) 
498148

>  <name>  (273) 
P498148

>  <HIPPO Compound ID>  (273) 
291068

>  <ref_mols>  (273) 
A3176a,A2629a

>  <distance_score>  (273) 
1.944288

>  <inspiration_score>  (273) 
None

$$$$
P498149
     RDKit          3D

 21 21  0  0  0  0  0  0  0  0999 V2000
   10.2129   16.0128   19.2587 C   0  0  0  0  0  0  0  0  0  0  0  0
   10.3112   15.1966   20.4342 O   0  0  0  0  0  0  0  0  0  0  0  0
   11.5148   14.6081   20.6313 C   0  0  0  0  0  0  0  0  0  0  0  0
   12.4628   14.6625   19.8528 O   0  0  0  0  0  0  0  0  0  0  0  0
   11.6494   13.9356   21.9958 C   0  0  1  0  0  0  0  0  0  0  0  0
   12.3373   14.9064   22.9679 C   0  0  0  0  0  0  0  0  0  0  0  0
   12.6373   14.1445   24.6231 S   0  0  0  0  0  0  0  0  0  0  0  0
   10.4965   13.3366   22.6430 N   0  0  0  0  0  0  0  0  0  0  0  0
    9.2673   13.9832   23.2782 C   0  0  0  0  0  0  0  0  0  0  0  0
    8.9386   15.0962   23.3196 O   0  0  0  0  0  0  0  0  0  0  0  0
    8.4372   12.9953   24.0379 C   0  0  0  0  0  0  0  0  0  0  0  0
    8.4334   11.6183   23.8552 C   0  0  0  0  0  0  0  0  0  0  0  0
    7.7743   10.8445   24.7948 C   0  0  0  0  0  0  0  0  0  0  0  0
    7.1571   11.3461   25.8875 N   0  0  0  0  0  0  0  0  0  0  0  0
    7.1263   12.6852   26.0253 C   0  0  0  0  0  0  0  0  0  0  0  0
    6.5310   13.4047   27.5560 S   0  0  0  0  0  0  0  0  0  0  0  0
    4.8077   12.7822   27.7392 C   0  0  0  0  0  0  0  0  0  0  0  0
    4.7651   11.2619   27.9130 C   0  0  0  0  0  0  0  0  0  0  0  0
    3.9571   13.2542   26.5605 C   0  0  0  0  0  0  0  0  0  0  0  0
    4.2624   13.4297   29.0264 C   0  0  0  0  0  0  0  0  0  0  0  0
    7.7528   13.5267   25.1278 C   0  0  0  0  0  0  0  0  0  0  0  0
  1  2  1  0
  2  3  1  0
  3  4  2  0
  3  5  1  0
  5  6  1  1
  6  7  1  0
  5  8  1  0
  8  9  1  0
  9 10  2  0
  9 11  1  0
 11 12  2  0
 12 13  1  0
 13 14  2  0
 14 15  1  0
 15 16  1  0
 16 17  1  0
 17 18  1  0
 17 19  1  0
 17 20  1  0
 15 21  2  0
 21 11  1  0
M  END
>  <energy_score>  (274) 
-9.13599

>  <inchikey>  (274) 
None

>  <smiles>  (274) 
None

>  <ref_pdb>  (274) 
A3176a

>  <alias>  (274) 
None

>  <HIPPO Pose ID>  (274) 
498149

>  <name>  (274) 
P498149

>  <HIPPO Compound ID>  (274) 
291086

>  <ref_mols>  (274) 
A3176a,A2629a

>  <distance_score>  (274) 
1.914648

>  <inspiration_score>  (274) 
None

$$$$
P498150
     RDKit          3D

 21 21  0  0  0  0  0  0  0  0999 V2000
   11.2382   14.9691   19.2846 C   0  0  0  0  0  0  0  0  0  0  0  0
   11.0255   14.8428   20.6843 O   0  0  0  0  0  0  0  0  0  0  0  0
   12.1410   14.2472   21.3745 C   0  0  0  0  0  0  0  0  0  0  0  0
   11.8973   14.3170   22.8992 C   0  0  0  0  0  0  0  0  0  0  0  0
   12.0117   15.7760   23.2359 C   0  0  0  0  0  0  0  0  0  0  0  0
   12.8553   13.6169   23.8547 C   0  0  0  0  0  0  0  0  0  0  0  0
   10.5952   13.8311   23.2634 N   0  0  0  0  0  0  0  0  0  0  0  0
    9.8168   13.9674   24.5629 C   0  0  0  0  0  0  0  0  0  0  0  0
   10.0640   14.5599   25.5310 O   0  0  0  0  0  0  0  0  0  0  0  0
    8.6259   13.1254   24.5764 C   0  0  0  0  0  0  0  0  0  0  0  0
    8.6917   11.7550   24.3696 C   0  0  0  0  0  0  0  0  0  0  0  0
    7.6185   11.0167   24.8096 C   0  0  0  0  0  0  0  0  0  0  0  0
    6.5294   11.5706   25.3883 N   0  0  0  0  0  0  0  0  0  0  0  0
    6.4676   12.9170   25.4695 C   0  0  0  0  0  0  0  0  0  0  0  0
    5.0196   13.7256   26.1239 S   0  0  0  0  0  0  0  0  0  0  0  0
    4.4897   12.5548   27.4049 C   0  0  0  0  0  0  0  0  0  0  0  0
    5.5719   11.9061   28.2367 C   0  0  0  0  0  0  0  0  0  0  0  0
    6.0255   10.7586   27.6937 F   0  0  0  0  0  0  0  0  0  0  0  0
    6.6239   12.7133   28.4874 F   0  0  0  0  0  0  0  0  0  0  0  0
    5.0570   11.5635   29.4494 F   0  0  0  0  0  0  0  0  0  0  0  0
    7.4922   13.7286   25.0687 C   0  0  0  0  0  0  0  0  0  0  0  0
  1  2  1  0
  2  3  1  0
  3  4  1  0
  4  5  1  0
  4  6  1  0
  4  7  1  0
  7  8  1  0
  8  9  2  0
  8 10  1  0
 10 11  2  0
 11 12  1  0
 12 13  2  0
 13 14  1  0
 14 15  1  0
 15 16  1  0
 16 17  1  0
 17 18  1  0
 17 19  1  0
 17 20  1  0
 14 21  2  0
 21 10  1  0
M  END
>  <energy_score>  (275) 
-16.878396

>  <inchikey>  (275) 
None

>  <smiles>  (275) 
None

>  <ref_pdb>  (275) 
A3176a

>  <alias>  (275) 
None

>  <HIPPO Pose ID>  (275) 
498150

>  <name>  (275) 
P498150

>  <HIPPO Compound ID>  (275) 
291104

>  <ref_mols>  (275) 
A3176a,A2629a

>  <distance_score>  (275) 
1.971433

>  <inspiration_score>  (275) 
None

$$$$
P498151
     RDKit          3D

 21 22  0  0  0  0  0  0  0  0999 V2000
   10.0098   15.5207   21.5645 C   0  0  0  0  0  0  0  0  0  0  0  0
   11.0920   14.5053   21.8319 C   0  0  1  0  0  0  0  0  0  0  0  0
   10.5002   13.2985   22.3410 N   0  0  0  0  0  0  0  0  0  0  0  0
   10.1536   12.8888   23.7726 C   0  0  0  0  0  0  0  0  0  0  0  0
   10.3601   13.4281   24.7828 O   0  0  0  0  0  0  0  0  0  0  0  0
    9.3360   11.6393   23.8278 C   0  0  0  0  0  0  0  0  0  0  0  0
    9.5060   10.5329   23.0168 C   0  0  0  0  0  0  0  0  0  0  0  0
    8.7746    9.4004   23.2983 C   0  0  0  0  0  0  0  0  0  0  0  0
    7.8138    9.3692   24.2384 N   0  0  0  0  0  0  0  0  0  0  0  0
    7.5916   10.4724   24.9730 C   0  0  0  0  0  0  0  0  0  0  0  0
    6.3346   10.2537   26.1832 S   0  0  0  0  0  0  0  0  0  0  0  0
    5.4449   11.8264   26.3630 C   0  0  0  0  0  0  0  0  0  0  0  0
    6.1444   13.1568   26.3594 C   0  0  0  0  0  0  0  0  0  0  0  0
    5.2907   14.1199   26.7478 F   0  0  0  0  0  0  0  0  0  0  0  0
    6.5909   13.5216   25.1440 F   0  0  0  0  0  0  0  0  0  0  0  0
    7.1678   13.1816   27.2363 F   0  0  0  0  0  0  0  0  0  0  0  0
    8.3896   11.5813   24.8442 C   0  0  0  0  0  0  0  0  0  0  0  0
   11.8601   14.1396   20.5766 C   0  0  2  0  0  0  0  0  0  0  0  0
   12.7534   15.1889   20.0279 C   0  0  0  0  0  0  0  0  0  0  0  0
   11.7350   15.3475   18.9045 C   0  0  0  0  0  0  0  0  0  0  0  0
   11.0743   14.1456   19.3490 O   0  0  0  0  0  0  0  0  0  0  0  0
  2  1  1  6
  2  3  1  0
  3  4  1  0
  4  5  2  0
  4  6  1  0
  6  7  2  0
  7  8  1  0
  8  9  2  0
  9 10  1  0
 10 11  1  0
 11 12  1  0
 12 13  1  0
 13 14  1  0
 13 15  1  0
 13 16  1  0
 10 17  2  0
  2 18  1  0
 18 19  1  6
 19 20  1  0
 20 21  1  0
 17  6  1  0
 21 18  1  0
M  END
>  <energy_score>  (276) 
-2.604008

>  <inchikey>  (276) 
None

>  <smiles>  (276) 
None

>  <ref_pdb>  (276) 
A3176a

>  <alias>  (276) 
None

>  <HIPPO Pose ID>  (276) 
498151

>  <name>  (276) 
P498151

>  <HIPPO Compound ID>  (276) 
291122

>  <ref_mols>  (276) 
A3176a,A2629a

>  <distance_score>  (276) 
1.510556

>  <inspiration_score>  (276) 
None

$$$$
P498152
     RDKit          3D

 21 22  0  0  0  0  0  0  0  0999 V2000
   11.2109   15.4196   18.6697 C   0  0  0  0  0  0  0  0  0  0  0  0
   11.7123   15.5796   19.9892 O   0  0  0  0  0  0  0  0  0  0  0  0
   11.3113   14.5238   20.8324 C   0  0  0  0  0  0  0  0  0  0  0  0
   11.1110   15.0593   22.2401 C   0  0  2  0  0  0  0  0  0  0  0  0
   12.2141   15.1226   23.2513 C   0  0  0  0  0  0  0  0  0  0  0  0
   11.8107   13.7152   23.5239 C   0  0  0  0  0  0  0  0  0  0  0  0
   10.3436   14.0318   23.0599 N   0  0  0  0  0  0  0  0  0  0  0  0
    9.4254   14.2033   24.2270 C   0  0  0  0  0  0  0  0  0  0  0  0
    9.1415   15.1680   24.8365 O   0  0  0  0  0  0  0  0  0  0  0  0
    8.7318   12.9153   24.5395 C   0  0  0  0  0  0  0  0  0  0  0  0
    9.0054   11.7042   23.9110 C   0  0  0  0  0  0  0  0  0  0  0  0
    8.2891   10.5911   24.3073 C   0  0  0  0  0  0  0  0  0  0  0  0
    7.3179   10.6272   25.2412 N   0  0  0  0  0  0  0  0  0  0  0  0
    7.0136   11.8204   25.7874 C   0  0  0  0  0  0  0  0  0  0  0  0
    5.6871   11.8056   26.9741 S   0  0  0  0  0  0  0  0  0  0  0  0
    4.6830   13.2355   26.4073 C   0  0  0  0  0  0  0  0  0  0  0  0
    4.7315   14.4051   27.3733 C   0  0  0  0  0  0  0  0  0  0  0  0
    3.9748   15.4287   26.9156 F   0  0  0  0  0  0  0  0  0  0  0  0
    4.2502   14.0683   28.5917 F   0  0  0  0  0  0  0  0  0  0  0  0
    5.9878   14.8726   27.5425 F   0  0  0  0  0  0  0  0  0  0  0  0
    7.7131   12.9677   25.4807 C   0  0  0  0  0  0  0  0  0  0  0  0
  1  2  1  0
  2  3  1  0
  4  3  1  6
  4  5  1  0
  5  6  1  0
  6  7  1  0
  7  8  1  0
  8  9  2  0
  8 10  1  0
 10 11  2  0
 11 12  1  0
 12 13  2  0
 13 14  1  0
 14 15  1  0
 15 16  1  0
 16 17  1  0
 17 18  1  0
 17 19  1  0
 17 20  1  0
 14 21  2  0
  7  4  1  0
 21 10  1  0
M  END
>  <energy_score>  (277) 
-2.448788

>  <inchikey>  (277) 
None

>  <smiles>  (277) 
None

>  <ref_pdb>  (277) 
A3176a

>  <alias>  (277) 
None

>  <HIPPO Pose ID>  (277) 
498152

>  <name>  (277) 
P498152

>  <HIPPO Compound ID>  (277) 
291124

>  <ref_mols>  (277) 
A3176a,A2629a

>  <distance_score>  (277) 
1.94841

>  <inspiration_score>  (277) 
None

$$$$
P498153
     RDKit          3D

 22 22  0  0  0  0  0  0  0  0999 V2000
   11.1229   15.0675   19.2163 C   0  0  0  0  0  0  0  0  0  0  0  0
   10.7631   15.1278   20.5908 O   0  0  0  0  0  0  0  0  0  0  0  0
   11.7942   14.6412   21.4536 C   0  0  0  0  0  0  0  0  0  0  0  0
   11.3427   14.8494   22.9075 C   0  0  1  0  0  0  0  0  0  0  0  0
   10.2291   14.0322   23.3230 N   0  0  0  0  0  0  0  0  0  0  0  0
    9.0377   14.3597   24.2235 C   0  0  0  0  0  0  0  0  0  0  0  0
    8.7179   15.3641   24.7157 O   0  0  0  0  0  0  0  0  0  0  0  0
    8.2300   13.1520   24.5895 C   0  0  0  0  0  0  0  0  0  0  0  0
    8.3278   11.8790   24.0409 C   0  0  0  0  0  0  0  0  0  0  0  0
    7.7030   10.8357   24.7106 C   0  0  0  0  0  0  0  0  0  0  0  0
    7.0016   10.9772   25.8597 N   0  0  0  0  0  0  0  0  0  0  0  0
    6.8857   12.2257   26.3479 C   0  0  0  0  0  0  0  0  0  0  0  0
    6.1217   12.4542   27.9578 S   0  0  0  0  0  0  0  0  0  0  0  0
    4.3744   12.3323   27.4883 C   0  0  0  0  0  0  0  0  0  0  0  0
    3.9073   13.4921   26.6377 C   0  0  0  0  0  0  0  0  0  0  0  0
    4.6557   13.6112   25.5265 F   0  0  0  0  0  0  0  0  0  0  0  0
    2.6202   13.3108   26.2628 F   0  0  0  0  0  0  0  0  0  0  0  0
    3.9690   14.6594   27.3152 F   0  0  0  0  0  0  0  0  0  0  0  0
    7.4790   13.3137   25.7493 C   0  0  0  0  0  0  0  0  0  0  0  0
   12.4574   14.6459   23.9653 C   0  0  0  0  0  0  0  0  0  0  0  0
   12.1349   15.2997   25.3198 C   0  0  0  0  0  0  0  0  0  0  0  0
   12.7446   13.1790   24.2616 C   0  0  0  0  0  0  0  0  0  0  0  0
  1  2  1  0
  2  3  1  0
  4  3  1  6
  4  5  1  0
  5  6  1  0
  6  7  2  0
  6  8  1  0
  8  9  2  0
  9 10  1  0
 10 11  2  0
 11 12  1  0
 12 13  1  0
 13 14  1  0
 14 15  1  0
 15 16  1  0
 15 17  1  0
 15 18  1  0
 12 19  2  0
  4 20  1  0
 20 21  1  0
 20 22  1  0
 19  8  1  0
M  END
>  <energy_score>  (278) 
-8.034748

>  <inchikey>  (278) 
None

>  <smiles>  (278) 
None

>  <ref_pdb>  (278) 
A3176a

>  <alias>  (278) 
None

>  <HIPPO Pose ID>  (278) 
498153

>  <name>  (278) 
P498153

>  <HIPPO Compound ID>  (278) 
291130

>  <ref_mols>  (278) 
A3176a,A2629a

>  <distance_score>  (278) 
1.978479

>  <inspiration_score>  (278) 
None

$$$$
P498154
     RDKit          3D

 22 22  0  0  0  0  0  0  0  0999 V2000
   10.8006   15.4839   18.7330 C   0  0  0  0  0  0  0  0  0  0  0  0
   10.6360   15.5678   20.1455 O   0  0  0  0  0  0  0  0  0  0  0  0
   11.4794   14.7782   20.8636 C   0  0  0  0  0  0  0  0  0  0  0  0
   12.3768   14.0901   20.3989 O   0  0  0  0  0  0  0  0  0  0  0  0
   11.1495   14.9133   22.3445 C   0  0  2  0  0  0  0  0  0  0  0  0
   12.4458   14.9259   23.1504 C   0  0  0  0  0  0  0  0  0  0  0  0
   12.1631   15.2210   24.5302 O   0  0  0  0  0  0  0  0  0  0  0  0
   10.2861   13.8932   22.9040 N   0  0  0  0  0  0  0  0  0  0  0  0
    8.8190   13.5843   22.6395 C   0  0  0  0  0  0  0  0  0  0  0  0
    8.0792   14.0450   21.8747 O   0  0  0  0  0  0  0  0  0  0  0  0
    8.3496   12.6014   23.6248 C   0  0  0  0  0  0  0  0  0  0  0  0
    8.7196   11.2694   23.5800 C   0  0  0  0  0  0  0  0  0  0  0  0
    8.2154   10.4522   24.5677 C   0  0  0  0  0  0  0  0  0  0  0  0
    7.4653   10.8999   25.6029 N   0  0  0  0  0  0  0  0  0  0  0  0
    7.1494   12.2128   25.6271 C   0  0  0  0  0  0  0  0  0  0  0  0
    6.2728   12.8520   27.0394 S   0  0  0  0  0  0  0  0  0  0  0  0
    5.0715   11.5072   27.3308 C   0  0  0  0  0  0  0  0  0  0  0  0
    4.8652   11.2069   28.8028 C   0  0  0  0  0  0  0  0  0  0  0  0
    5.9912   10.7438   29.3924 F   0  0  0  0  0  0  0  0  0  0  0  0
    4.4526   12.2929   29.4928 F   0  0  0  0  0  0  0  0  0  0  0  0
    3.9140   10.2543   28.9559 F   0  0  0  0  0  0  0  0  0  0  0  0
    7.5646   13.0923   24.6528 C   0  0  0  0  0  0  0  0  0  0  0  0
  1  2  1  0
  2  3  1  0
  3  4  2  0
  3  5  1  0
  5  6  1  1
  6  7  1  0
  5  8  1  0
  8  9  1  0
  9 10  2  0
  9 11  1  0
 11 12  2  0
 12 13  1  0
 13 14  2  0
 14 15  1  0
 15 16  1  0
 16 17  1  0
 17 18  1  0
 18 19  1  0
 18 20  1  0
 18 21  1  0
 15 22  2  0
 22 11  1  0
M  END
>  <energy_score>  (279) 
-4.649918

>  <inchikey>  (279) 
None

>  <smiles>  (279) 
None

>  <ref_pdb>  (279) 
A3176a

>  <alias>  (279) 
None

>  <HIPPO Pose ID>  (279) 
498154

>  <name>  (279) 
P498154

>  <HIPPO Compound ID>  (279) 
291136

>  <ref_mols>  (279) 
A3176a,A2629a

>  <distance_score>  (279) 
1.942911

>  <inspiration_score>  (279) 
None

$$$$
P498155
     RDKit          3D

 22 23  0  0  0  0  0  0  0  0999 V2000
   10.4434   10.0079   24.6822 C   0  0  0  0  0  0  0  0  0  0  0  0
   10.7093   11.3584   24.2642 O   0  0  0  0  0  0  0  0  0  0  0  0
    9.6654   11.8614   23.5570 C   0  0  0  0  0  0  0  0  0  0  0  0
    8.6067   11.2536   23.4155 O   0  0  0  0  0  0  0  0  0  0  0  0
    9.8473   13.2883   23.0044 C   0  0  2  0  0  0  0  0  0  0  0  0
   11.2844   13.7599   22.9143 C   0  0  0  0  0  0  0  0  0  0  0  0
   11.0398   15.1784   22.5077 C   0  0  0  0  0  0  0  0  0  0  0  0
    9.5263   15.2024   22.5676 C   0  0  0  0  0  0  0  0  0  0  0  0
    9.0332   14.3925   23.7271 N   0  0  0  0  0  0  0  0  0  0  0  0
    7.7098   13.9127   24.0466 C   0  0  0  0  0  0  0  0  0  0  0  0
    6.6887   13.9670   23.4168 O   0  0  0  0  0  0  0  0  0  0  0  0
    7.7798   13.3507   25.5201 C   0  0  1  0  0  0  0  0  0  0  0  0
    8.6341   14.2732   26.4150 C   0  0  0  0  0  0  0  0  0  0  0  0
    6.1344   13.0585   26.3093 S   0  0  0  0  0  0  0  0  0  0  0  0
    5.6984   14.7362   26.6460 C   0  0  0  0  0  0  0  0  0  0  0  0
    5.3834   15.1897   27.9141 C   0  0  0  0  0  0  0  0  0  0  0  0
    5.2693   16.5681   28.1141 C   0  0  0  0  0  0  0  0  0  0  0  0
    5.4654   17.4438   27.0435 C   0  0  0  0  0  0  0  0  0  0  0  0
    5.4062   19.3023   27.3765 Br  0  0  0  0  0  0  0  0  0  0  0  0
    5.7299   16.8874   25.8040 C   0  0  0  0  0  0  0  0  0  0  0  0
    6.0654   17.8510   24.2301 Br  0  0  0  0  0  0  0  0  0  0  0  0
    5.8432   15.5658   25.6135 N   0  0  0  0  0  0  0  0  0  0  0  0
  1  2  1  0
  2  3  1  0
  3  4  2  0
  5  3  1  1
  5  6  1  0
  6  7  1  0
  7  8  1  0
  8  9  1  0
  9 10  1  0
 10 11  2  0
 10 12  1  0
 12 13  1  1
 12 14  1  0
 14 15  1  0
 15 16  2  0
 16 17  1  0
 17 18  2  0
 18 19  1  0
 18 20  1  0
 20 21  1  0
 20 22  2  0
  9  5  1  0
 22 15  1  0
M  END
>  <energy_score>  (280) 
-39.481693

>  <inchikey>  (280) 
None

>  <smiles>  (280) 
None

>  <ref_pdb>  (280) 
A4237a

>  <alias>  (280) 
None

>  <HIPPO Pose ID>  (280) 
498155

>  <name>  (280) 
P498155

>  <HIPPO Compound ID>  (280) 
291505

>  <ref_mols>  (280) 
A4237a,A1778a

>  <distance_score>  (280) 
1.943871

>  <inspiration_score>  (280) 
None

$$$$
P498156
     RDKit          3D

 23 24  0  0  0  0  0  0  0  0999 V2000
    9.4893   10.5593   24.3487 C   0  0  0  0  0  0  0  0  0  0  0  0
    9.5902   11.9755   24.4841 O   0  0  0  0  0  0  0  0  0  0  0  0
   10.2611   12.5675   23.3660 C   0  0  0  0  0  0  0  0  0  0  0  0
   10.0190   14.1020   23.2765 C   0  0  1  0  0  0  0  0  0  0  0  0
   11.1646   14.7489   22.4788 C   0  0  2  0  0  0  0  0  0  0  0  0
   12.1047   15.4185   23.3011 O   0  0  0  0  0  0  0  0  0  0  0  0
   10.3858   15.6793   21.6265 C   0  0  1  0  0  0  0  0  0  0  0  0
   11.0135   15.8269   20.3683 O   0  0  0  0  0  0  0  0  0  0  0  0
    9.1656   14.8061   21.6050 C   0  0  0  0  0  0  0  0  0  0  0  0
    8.5550   14.5750   22.9423 N   0  0  0  0  0  0  0  0  0  0  0  0
    7.6056   13.5946   23.3798 C   0  0  0  0  0  0  0  0  0  0  0  0
    7.1302   12.6543   22.7987 O   0  0  0  0  0  0  0  0  0  0  0  0
    7.1293   13.9664   24.8001 C   0  0  2  0  0  0  0  0  0  0  0  0
    6.5916   12.7764   25.5854 C   0  0  0  0  0  0  0  0  0  0  0  0
    5.7654   15.1779   24.5828 S   0  0  0  0  0  0  0  0  0  0  0  0
    6.1785   16.4280   25.7620 C   0  0  0  0  0  0  0  0  0  0  0  0
    7.4716   16.8975   25.9453 C   0  0  0  0  0  0  0  0  0  0  0  0
    7.6959   17.9103   26.8724 C   0  0  0  0  0  0  0  0  0  0  0  0
    6.6177   18.4746   27.5462 C   0  0  0  0  0  0  0  0  0  0  0  0
    6.9817   19.9034   28.7302 Br  0  0  0  0  0  0  0  0  0  0  0  0
    5.3509   17.9595   27.2957 C   0  0  0  0  0  0  0  0  0  0  0  0
    3.7939   18.6346   28.1602 Br  0  0  0  0  0  0  0  0  0  0  0  0
    5.1280   16.9325   26.4410 N   0  0  0  0  0  0  0  0  0  0  0  0
  1  2  1  0
  2  3  1  0
  4  3  1  6
  4  5  1  0
  5  6  1  1
  5  7  1  0
  7  8  1  6
  7  9  1  0
  9 10  1  0
 10 11  1  0
 11 12  2  0
 11 13  1  0
 13 14  1  6
 13 15  1  0
 15 16  1  0
 16 17  2  0
 17 18  1  0
 18 19  2  0
 19 20  1  0
 19 21  1  0
 21 22  1  0
 21 23  2  0
 10  4  1  0
 23 16  1  0
M  END
>  <energy_score>  (281) 
-26.18626

>  <inchikey>  (281) 
None

>  <smiles>  (281) 
None

>  <ref_pdb>  (281) 
A4237a

>  <alias>  (281) 
None

>  <HIPPO Pose ID>  (281) 
498156

>  <name>  (281) 
P498156

>  <HIPPO Compound ID>  (281) 
291538

>  <ref_mols>  (281) 
A4237a,A1778a

>  <distance_score>  (281) 
1.967778

>  <inspiration_score>  (281) 
None

$$$$
P498157
     RDKit          3D

 24 25  0  0  0  0  0  0  0  0999 V2000
   10.7695   15.5846   19.4024 C   0  0  0  0  0  0  0  0  0  0  0  0
    9.4284   15.4037   19.8145 O   0  0  0  0  0  0  0  0  0  0  0  0
    9.1868   15.5935   21.2110 C   0  0  0  0  0  0  0  0  0  0  0  0
    9.8952   14.5300   22.0973 C   0  0  1  0  0  0  0  0  0  0  0  0
   11.2331   15.0661   22.5712 C   0  0  0  0  0  0  0  0  0  0  0  0
   11.4823   14.1333   23.6982 C   0  0  0  0  0  0  0  0  0  0  0  0
   10.2389   13.2536   23.6202 C   0  0  1  0  0  0  0  0  0  0  0  0
   10.2020   12.4672   24.9603 C   0  0  0  0  0  0  0  0  0  0  0  0
    9.2535   11.4097   25.0299 O   0  0  0  0  0  0  0  0  0  0  0  0
    9.5510   10.2652   24.2398 C   0  0  0  0  0  0  0  0  0  0  0  0
    9.0213   14.1706   23.3059 N   0  0  0  0  0  0  0  0  0  0  0  0
    7.7943   13.4216   23.3883 C   0  0  0  0  0  0  0  0  0  0  0  0
    7.1918   12.8122   22.5410 O   0  0  0  0  0  0  0  0  0  0  0  0
    7.1816   13.5692   24.8080 C   0  0  2  0  0  0  0  0  0  0  0  0
    6.5151   12.2967   25.3254 C   0  0  0  0  0  0  0  0  0  0  0  0
    5.8926   14.8840   24.6465 S   0  0  0  0  0  0  0  0  0  0  0  0
    6.4280   16.1424   25.7641 C   0  0  0  0  0  0  0  0  0  0  0  0
    7.7567   16.4875   25.9627 C   0  0  0  0  0  0  0  0  0  0  0  0
    8.0599   17.5248   26.8415 C   0  0  0  0  0  0  0  0  0  0  0  0
    7.0288   18.2341   27.4519 C   0  0  0  0  0  0  0  0  0  0  0  0
    7.5062   19.6818   28.5718 Br  0  0  0  0  0  0  0  0  0  0  0  0
    5.7229   17.8389   27.1894 C   0  0  0  0  0  0  0  0  0  0  0  0
    4.2219   18.7152   27.9662 Br  0  0  0  0  0  0  0  0  0  0  0  0
    5.4215   16.7933   26.3842 N   0  0  0  0  0  0  0  0  0  0  0  0
  1  2  1  0
  2  3  1  0
  4  3  1  1
  4  5  1  0
  5  6  1  0
  6  7  1  0
  7  8  1  1
  8  9  1  0
  9 10  1  0
  7 11  1  0
 11 12  1  0
 12 13  2  0
 12 14  1  0
 14 15  1  6
 14 16  1  0
 16 17  1  0
 17 18  2  0
 18 19  1  0
 19 20  2  0
 20 21  1  0
 20 22  1  0
 22 23  1  0
 22 24  2  0
 11  4  1  0
 24 17  1  0
M  END
>  <energy_score>  (282) 
-6.567721

>  <inchikey>  (282) 
None

>  <smiles>  (282) 
None

>  <ref_pdb>  (282) 
A4237a

>  <alias>  (282) 
None

>  <HIPPO Pose ID>  (282) 
498157

>  <name>  (282) 
P498157

>  <HIPPO Compound ID>  (282) 
291578

>  <ref_mols>  (282) 
A4237a,A1778a

>  <distance_score>  (282) 
1.861115

>  <inspiration_score>  (282) 
None

$$$$
P498158
     RDKit          3D

 26 28  0  0  0  0  0  0  0  0999 V2000
    9.2115   17.2212   20.9865 C   0  0  0  0  0  0  0  0  0  0  0  0
    9.5543   16.3122   21.6874 C   0  0  0  0  0  0  0  0  0  0  0  0
   10.2223   15.2511   22.4262 C   0  0  2  0  0  0  0  0  0  0  0  0
   11.4207   15.8550   23.1343 C   0  0  0  0  0  0  0  0  0  0  0  0
   11.7362   14.7377   24.0681 C   0  0  0  0  0  0  0  0  0  0  0  0
   10.6741   13.7281   23.6197 C   0  0  2  0  0  0  0  0  0  0  0  0
   10.6996   12.5922   24.6914 C   0  0  0  0  0  0  0  0  0  0  0  0
   10.7033   12.7683   25.9017 O   0  0  0  0  0  0  0  0  0  0  0  0
   10.6526   11.3698   24.0976 O   0  0  0  0  0  0  0  0  0  0  0  0
   10.4236   10.1983   24.8814 C   0  0  0  0  0  0  0  0  0  0  0  0
   11.0138   13.1428   22.2668 C   0  0  0  0  0  0  0  0  0  0  0  0
   10.6370   14.2520   21.3691 C   0  0  0  0  0  0  0  0  0  0  0  0
    9.3666   14.5546   23.4936 N   0  0  0  0  0  0  0  0  0  0  0  0
    8.1443   13.6438   23.3522 C   0  0  0  0  0  0  0  0  0  0  0  0
    7.6277   13.2041   22.3860 O   0  0  0  0  0  0  0  0  0  0  0  0
    7.6902   13.2527   24.7691 C   0  0  2  0  0  0  0  0  0  0  0  0
    7.4620   11.7448   24.8306 C   0  0  0  0  0  0  0  0  0  0  0  0
    6.1347   14.0410   25.2356 S   0  0  0  0  0  0  0  0  0  0  0  0
    6.6211   15.6097   25.8819 C   0  0  0  0  0  0  0  0  0  0  0  0
    7.7779   15.8438   26.6129 C   0  0  0  0  0  0  0  0  0  0  0  0
    7.9664   17.0950   27.1948 C   0  0  0  0  0  0  0  0  0  0  0  0
    6.9839   18.0712   27.0568 C   0  0  0  0  0  0  0  0  0  0  0  0
    7.2408   19.7070   27.9633 Br  0  0  0  0  0  0  0  0  0  0  0  0
    5.8512   17.7592   26.3176 C   0  0  0  0  0  0  0  0  0  0  0  0
    4.3611   18.9361   26.2128 Br  0  0  0  0  0  0  0  0  0  0  0  0
    5.6704   16.5530   25.7348 N   0  0  0  0  0  0  0  0  0  0  0  0
  1  2  3  0
  3  2  1  6
  3  4  1  0
  4  5  1  0
  5  6  1  0
  6  7  1  1
  7  8  2  0
  7  9  1  0
  9 10  1  0
  6 11  1  0
 11 12  1  0
  6 13  1  0
 13 14  1  0
 14 15  2  0
 14 16  1  0
 16 17  1  6
 16 18  1  0
 18 19  1  0
 19 20  2  0
 20 21  1  0
 21 22  2  0
 22 23  1  0
 22 24  1  0
 24 25  1  0
 24 26  2  0
 12  3  1  0
 26 19  1  0
 13  3  1  0
M  END
>  <energy_score>  (283) 
-7.706439

>  <inchikey>  (283) 
None

>  <smiles>  (283) 
None

>  <ref_pdb>  (283) 
A4237a

>  <alias>  (283) 
None

>  <HIPPO Pose ID>  (283) 
498158

>  <name>  (283) 
P498158

>  <HIPPO Compound ID>  (283) 
291643

>  <ref_mols>  (283) 
A4237a,A1778a

>  <distance_score>  (283) 
1.969287

>  <inspiration_score>  (283) 
None

$$$$
P498159
     RDKit          3D

 27 29  0  0  0  0  0  0  0  0999 V2000
   10.4456   15.3144   18.8542 C   0  0  0  0  0  0  0  0  0  0  0  0
   10.8104   15.3463   20.2233 O   0  0  0  0  0  0  0  0  0  0  0  0
    9.7806   14.9091   21.1244 C   0  0  0  0  0  0  0  0  0  0  0  0
   10.4351   14.6357   22.5087 C   0  0  2  0  0  0  0  0  0  0  0  0
   11.2439   15.8589   22.8694 C   0  0  0  0  0  0  0  0  0  0  0  0
   11.5660   15.4828   24.2583 C   0  0  0  0  0  0  0  0  0  0  0  0
   10.7902   14.1765   24.4220 C   0  0  2  0  0  0  0  0  0  0  0  0
   10.8155   13.9913   25.9649 C   0  0  0  0  0  0  0  0  0  0  0  0
   11.4359   13.1065   26.5396 O   0  0  0  0  0  0  0  0  0  0  0  0
   10.1445   14.9893   26.6030 O   0  0  0  0  0  0  0  0  0  0  0  0
   10.3467   15.1194   28.0147 C   0  0  0  0  0  0  0  0  0  0  0  0
   11.5599   13.0372   23.7980 C   0  0  0  0  0  0  0  0  0  0  0  0
   11.2942   13.3741   22.3719 C   0  0  0  0  0  0  0  0  0  0  0  0
    9.4421   14.3074   23.6449 N   0  0  0  0  0  0  0  0  0  0  0  0
    8.5548   13.0866   23.8655 C   0  0  0  0  0  0  0  0  0  0  0  0
    8.4825   12.0771   23.2600 O   0  0  0  0  0  0  0  0  0  0  0  0
    7.6729   13.3004   25.0962 C   0  0  2  0  0  0  0  0  0  0  0  0
    7.2514   11.9303   25.6213 C   0  0  0  0  0  0  0  0  0  0  0  0
    6.1903   14.2272   24.6007 S   0  0  0  0  0  0  0  0  0  0  0  0
    6.3720   15.7482   25.4858 C   0  0  0  0  0  0  0  0  0  0  0  0
    7.5882   16.3726   25.6934 C   0  0  0  0  0  0  0  0  0  0  0  0
    7.6506   17.5301   26.4577 C   0  0  0  0  0  0  0  0  0  0  0  0
    6.4757   18.1067   26.9089 C   0  0  0  0  0  0  0  0  0  0  0  0
    6.6223   19.7191   27.8748 Br  0  0  0  0  0  0  0  0  0  0  0  0
    5.2837   17.4606   26.6099 C   0  0  0  0  0  0  0  0  0  0  0  0
    3.5981   18.1420   27.1799 Br  0  0  0  0  0  0  0  0  0  0  0  0
    5.2252   16.2802   25.9442 N   0  0  0  0  0  0  0  0  0  0  0  0
  1  2  1  0
  2  3  1  0
  4  3  1  6
  4  5  1  0
  5  6  1  0
  6  7  1  0
  7  8  1  1
  8  9  2  0
  8 10  1  0
 10 11  1  0
  7 12  1  0
 12 13  1  0
  7 14  1  0
 14 15  1  0
 15 16  2  0
 15 17  1  0
 17 18  1  6
 17 19  1  0
 19 20  1  0
 20 21  2  0
 21 22  1  0
 22 23  2  0
 23 24  1  0
 23 25  1  0
 25 26  1  0
 25 27  2  0
 13  4  1  0
 27 20  1  0
 14  4  1  0
M  END
>  <energy_score>  (284) 
-34.330745

>  <inchikey>  (284) 
None

>  <smiles>  (284) 
None

>  <ref_pdb>  (284) 
A4237a

>  <alias>  (284) 
None

>  <HIPPO Pose ID>  (284) 
498159

>  <name>  (284) 
P498159

>  <HIPPO Compound ID>  (284) 
291666

>  <ref_mols>  (284) 
A4237a,A1778a

>  <distance_score>  (284) 
1.91036

>  <inspiration_score>  (284) 
None

$$$$
P498160
     RDKit          3D

 27 29  0  0  0  0  0  0  0  0999 V2000
    9.4241   17.4118   20.8162 C   0  0  0  0  0  0  0  0  0  0  0  0
    8.3883   16.6174   21.4003 O   0  0  0  0  0  0  0  0  0  0  0  0
    8.5580   16.1999   22.6709 C   0  0  0  0  0  0  0  0  0  0  0  0
    7.8358   16.5871   23.5861 O   0  0  0  0  0  0  0  0  0  0  0  0
    9.6947   15.1865   22.9006 C   0  0  2  0  0  0  0  0  0  0  0  0
   10.9018   15.8939   23.4902 C   0  0  0  0  0  0  0  0  0  0  0  0
   11.5175   14.7519   24.2148 C   0  0  0  0  0  0  0  0  0  0  0  0
   10.5479   13.6362   23.8086 C   0  0  2  0  0  0  0  0  0  0  0  0
   10.8743   12.4284   24.7108 C   0  0  0  0  0  0  0  0  0  0  0  0
   10.1949   11.3203   24.3269 F   0  0  0  0  0  0  0  0  0  0  0  0
   12.1932   12.1238   24.5985 F   0  0  0  0  0  0  0  0  0  0  0  0
   10.7416   13.2353   22.3544 C   0  0  0  0  0  0  0  0  0  0  0  0
   10.0512   14.3700   21.6688 C   0  0  0  0  0  0  0  0  0  0  0  0
    9.1208   14.2188   23.9547 N   0  0  0  0  0  0  0  0  0  0  0  0
    8.0598   13.1267   23.8284 C   0  0  0  0  0  0  0  0  0  0  0  0
    7.4934   12.7200   22.8770 O   0  0  0  0  0  0  0  0  0  0  0  0
    7.7196   12.6515   25.2497 C   0  0  2  0  0  0  0  0  0  0  0  0
    7.4683   11.1496   25.2598 C   0  0  0  0  0  0  0  0  0  0  0  0
    6.1689   13.4400   25.8051 S   0  0  0  0  0  0  0  0  0  0  0  0
    6.6268   15.1087   26.1851 C   0  0  0  0  0  0  0  0  0  0  0  0
    7.7939   15.4506   26.8555 C   0  0  0  0  0  0  0  0  0  0  0  0
    7.9723   16.7683   27.2717 C   0  0  0  0  0  0  0  0  0  0  0  0
    6.9758   17.7077   27.0208 C   0  0  0  0  0  0  0  0  0  0  0  0
    7.1956   19.4344   27.7583 Br  0  0  0  0  0  0  0  0  0  0  0  0
    5.8446   17.2915   26.3300 C   0  0  0  0  0  0  0  0  0  0  0  0
    4.3634   18.4472   26.0432 Br  0  0  0  0  0  0  0  0  0  0  0  0
    5.6565   16.0104   25.9353 N   0  0  0  0  0  0  0  0  0  0  0  0
  1  2  1  0
  2  3  1  0
  3  4  2  0
  5  3  1  6
  5  6  1  0
  6  7  1  0
  7  8  1  0
  8  9  1  1
  9 10  1  0
  9 11  1  0
  8 12  1  0
 12 13  1  0
  8 14  1  0
 14 15  1  0
 15 16  2  0
 15 17  1  0
 17 18  1  6
 17 19  1  0
 19 20  1  0
 20 21  2  0
 21 22  1  0
 22 23  2  0
 23 24  1  0
 23 25  1  0
 25 26  1  0
 25 27  2  0
 13  5  1  0
 27 20  1  0
 14  5  1  0
M  END
>  <energy_score>  (285) 
-12.302253

>  <inchikey>  (285) 
None

>  <smiles>  (285) 
None

>  <ref_pdb>  (285) 
A4237a

>  <alias>  (285) 
None

>  <HIPPO Pose ID>  (285) 
498160

>  <name>  (285) 
P498160

>  <HIPPO Compound ID>  (285) 
291669

>  <ref_mols>  (285) 
A4237a,A1778a

>  <distance_score>  (285) 
1.558178

>  <inspiration_score>  (285) 
None

$$$$
P498163
     RDKit          3D

 24 27  0  0  0  0  0  0  0  0999 V2000
   12.6084   12.7615   23.3217 O   0  0  0  0  0  0  0  0  0  0  0  0
   11.7815   13.4242   22.8237 C   0  0  0  0  0  0  0  0  0  0  0  0
   12.1185   14.7339   22.1222 C   0  0  0  0  0  0  0  0  0  0  0  0
   12.1047   14.7618   20.5958 C   0  0  1  0  0  0  0  0  0  0  0  0
   10.7487   14.6045   20.0988 N   0  0  0  0  0  0  0  0  0  0  0  0
   10.2756   15.7609   19.5159 C   0  0  0  0  0  0  0  0  0  0  0  0
    9.2575   15.9436   18.8885 O   0  0  0  0  0  0  0  0  0  0  0  0
   11.2907   16.7773   19.6613 C   0  0  0  0  0  0  0  0  0  0  0  0
   11.2313   18.1097   19.2967 C   0  0  0  0  0  0  0  0  0  0  0  0
   12.4145   18.8399   19.3146 C   0  0  0  0  0  0  0  0  0  0  0  0
   13.6080   18.2055   19.6826 C   0  0  0  0  0  0  0  0  0  0  0  0
   13.6099   16.8673   20.1110 C   0  0  0  0  0  0  0  0  0  0  0  0
   12.4326   16.1542   20.1216 C   0  0  0  0  0  0  0  0  0  0  0  0
   10.2356   13.2325   22.7614 N   0  0  0  0  0  0  0  0  0  0  0  0
    9.3974   12.1269   23.2217 C   0  0  1  0  0  0  0  0  0  0  0  0
   10.0121   10.8444   22.7024 C   0  0  0  0  0  0  0  0  0  0  0  0
    9.2160    9.6141   23.0237 C   0  0  0  0  0  0  0  0  0  0  0  0
    9.1560    9.4938   24.5025 C   0  0  0  0  0  0  0  0  0  0  0  0
    8.7011   10.6690   25.2319 N   0  0  0  0  0  0  0  0  0  0  0  0
    7.2595   10.6978   25.4205 C   0  0  0  0  0  0  0  0  0  0  0  0
    6.8696   11.7386   26.4769 C   0  0  0  0  0  0  0  0  0  0  0  0
    7.7583   12.8608   26.5499 O   0  0  0  0  0  0  0  0  0  0  0  0
    8.3387   13.1613   25.2747 C   0  0  0  0  0  0  0  0  0  0  0  0
    9.2187   11.9932   24.7600 C   0  0  2  0  0  0  0  0  0  0  0  0
  1  2  2  0
  2  3  1  0
  4  3  1  1
  4  5  1  0
  5  6  1  0
  6  7  2  0
  6  8  1  0
  8  9  2  0
  9 10  1  0
 10 11  2  0
 11 12  1  0
 12 13  2  0
  2 14  1  0
 15 14  1  1
 15 16  1  0
 16 17  1  0
 17 18  1  0
 18 19  1  0
 19 20  1  0
 20 21  1  0
 21 22  1  0
 22 23  1  0
 24 23  1  6
 13  4  1  0
 24 15  1  0
 13  8  1  0
 24 19  1  0
M  END
>  <energy_score>  (286) 
-1.911729

>  <inchikey>  (286) 
None

>  <smiles>  (286) 
None

>  <ref_pdb>  (286) 
A2293a

>  <alias>  (286) 
None

>  <HIPPO Pose ID>  (286) 
498163

>  <name>  (286) 
P498163

>  <HIPPO Compound ID>  (286) 
291883

>  <ref_mols>  (286) 
A4943b,A2293a

>  <distance_score>  (286) 
1.131736

>  <inspiration_score>  (286) 
None

$$$$
P498166
     RDKit          3D

 25 27  0  0  0  0  0  0  0  0999 V2000
    5.5805   13.1211   27.1442 C   0  0  0  0  0  0  0  0  0  0  0  0
    5.6611   11.7388   26.7788 O   0  0  0  0  0  0  0  0  0  0  0  0
    6.4212   11.3168   25.7264 C   0  0  0  0  0  0  0  0  0  0  0  0
    6.3752   10.1353   25.3895 O   0  0  0  0  0  0  0  0  0  0  0  0
    7.3544   12.3716   25.1016 C   0  0  0  0  0  0  0  0  0  0  0  0
    7.9683   11.9670   23.8097 N   0  0  0  0  0  0  0  0  0  0  0  0
    8.7771   10.7416   23.9051 C   0  0  0  0  0  0  0  0  0  0  0  0
   10.2185   11.0080   23.5459 C   0  0  0  0  0  0  0  0  0  0  0  0
   10.6896   12.2161   24.3472 C   0  0  0  0  0  0  0  0  0  0  0  0
   10.0283   13.4809   23.8223 C   0  0  1  0  0  0  0  0  0  0  0  0
   10.8898   14.2226   22.9151 N   0  0  0  0  0  0  0  0  0  0  0  0
   12.3081   13.8834   22.3617 C   0  0  0  0  0  0  0  0  0  0  0  0
   13.0267   12.9952   22.6128 O   0  0  0  0  0  0  0  0  0  0  0  0
   12.7239   15.0105   21.4428 C   0  0  0  0  0  0  0  0  0  0  0  0
   12.1274   15.0387   20.0401 C   0  0  1  0  0  0  0  0  0  0  0  0
   10.6824   15.0754   20.1172 N   0  0  0  0  0  0  0  0  0  0  0  0
   10.2242   16.3700   20.1542 C   0  0  0  0  0  0  0  0  0  0  0  0
    9.1741   16.7789   20.5896 O   0  0  0  0  0  0  0  0  0  0  0  0
   11.2969   17.2235   19.6835 C   0  0  0  0  0  0  0  0  0  0  0  0
   11.3045   18.5943   19.5001 C   0  0  0  0  0  0  0  0  0  0  0  0
   12.5044   19.1752   19.0983 C   0  0  0  0  0  0  0  0  0  0  0  0
   13.6297   18.3687   18.8534 C   0  0  0  0  0  0  0  0  0  0  0  0
   13.5858   16.9814   19.0508 C   0  0  0  0  0  0  0  0  0  0  0  0
   12.4143   16.4188   19.5051 C   0  0  0  0  0  0  0  0  0  0  0  0
    8.6744   13.1070   23.1810 C   0  0  0  0  0  0  0  0  0  0  0  0
  1  2  1  0
  2  3  1  0
  3  4  2  0
  3  5  1  0
  5  6  1  0
  6  7  1  0
  7  8  1  0
  8  9  1  0
  9 10  1  0
 10 11  1  6
 11 12  1  0
 12 13  2  0
 12 14  1  0
 15 14  1  1
 15 16  1  0
 16 17  1  0
 17 18  2  0
 17 19  1  0
 19 20  2  0
 20 21  1  0
 21 22  2  0
 22 23  1  0
 23 24  2  0
 10 25  1  0
 25  6  1  0
 24 15  1  0
 24 19  1  0
M  END
>  <energy_score>  (287) 
-12.870399

>  <inchikey>  (287) 
None

>  <smiles>  (287) 
None

>  <ref_pdb>  (287) 
A2293a

>  <alias>  (287) 
None

>  <HIPPO Pose ID>  (287) 
498166

>  <name>  (287) 
P498166

>  <HIPPO Compound ID>  (287) 
291885

>  <ref_mols>  (287) 
A4943b,A2293a

>  <distance_score>  (287) 
1.912535

>  <inspiration_score>  (287) 
None

$$$$
P498167
     RDKit          3D

 25 28  0  0  0  0  0  0  0  0999 V2000
    9.4450   14.5536   20.1987 C   0  0  0  0  0  0  0  0  0  0  0  0
   10.3613   15.4895   20.7271 N   0  0  0  0  0  0  0  0  0  0  0  0
   10.0026   16.8006   20.5225 C   0  0  0  0  0  0  0  0  0  0  0  0
    8.8972   17.2720   20.6593 O   0  0  0  0  0  0  0  0  0  0  0  0
   11.1692   17.5085   20.0515 C   0  0  0  0  0  0  0  0  0  0  0  0
   11.2281   18.8259   19.6344 C   0  0  0  0  0  0  0  0  0  0  0  0
   12.4667   19.2953   19.2286 C   0  0  0  0  0  0  0  0  0  0  0  0
   13.5742   18.4291   19.2221 C   0  0  0  0  0  0  0  0  0  0  0  0
   13.4667   17.0898   19.6445 C   0  0  0  0  0  0  0  0  0  0  0  0
   12.2457   16.6278   20.0862 C   0  0  0  0  0  0  0  0  0  0  0  0
   11.8048   15.2750   20.6134 C   0  0  1  0  0  0  0  0  0  0  0  0
   12.2728   14.9603   22.0372 C   0  0  0  0  0  0  0  0  0  0  0  0
   11.9195   13.5900   22.6189 C   0  0  0  0  0  0  0  0  0  0  0  0
   12.7626   12.7885   22.7715 O   0  0  0  0  0  0  0  0  0  0  0  0
   10.3666   13.4832   22.8234 N   0  0  0  0  0  0  0  0  0  0  0  0
    9.5257   12.3241   23.1683 C   0  0  1  0  0  0  0  0  0  0  0  0
   10.3227   11.0566   23.0071 C   0  0  0  0  0  0  0  0  0  0  0  0
    9.6882    9.7208   23.3122 C   0  0  0  0  0  0  0  0  0  0  0  0
    8.5355    9.8145   24.2732 C   0  0  0  0  0  0  0  0  0  0  0  0
    8.6087   10.9770   25.1565 N   0  0  0  0  0  0  0  0  0  0  0  0
    7.4276   10.9706   26.0469 C   0  0  0  0  0  0  0  0  0  0  0  0
    7.4395   12.1900   26.9662 C   0  0  0  0  0  0  0  0  0  0  0  0
    7.5044   13.4088   26.2282 O   0  0  0  0  0  0  0  0  0  0  0  0
    8.6507   13.4439   25.3498 C   0  0  0  0  0  0  0  0  0  0  0  0
    8.5759   12.2687   24.3838 C   0  0  1  0  0  0  0  0  0  0  0  0
  1  2  1  0
  2  3  1  0
  3  4  2  0
  3  5  1  0
  5  6  2  0
  6  7  1  0
  7  8  2  0
  8  9  1  0
  9 10  2  0
 10 11  1  0
 11 12  1  1
 12 13  1  0
 13 14  2  0
 13 15  1  0
 16 15  1  1
 16 17  1  0
 17 18  1  0
 18 19  1  0
 19 20  1  0
 20 21  1  0
 21 22  1  0
 22 23  1  0
 23 24  1  0
 25 24  1  1
 11  2  1  0
 25 16  1  0
 10  5  1  0
 25 20  1  0
M  END
>  <energy_score>  (288) 
-9.835609

>  <inchikey>  (288) 
None

>  <smiles>  (288) 
None

>  <ref_pdb>  (288) 
A2293a

>  <alias>  (288) 
None

>  <HIPPO Pose ID>  (288) 
498167

>  <name>  (288) 
P498167

>  <HIPPO Compound ID>  (288) 
291886

>  <ref_mols>  (288) 
A4943b,A2293a

>  <distance_score>  (288) 
1.52943

>  <inspiration_score>  (288) 
None

$$$$
P498171
     RDKit          3D

 20 22  0  0  0  0  0  0  0  0999 V2000
   11.9140   14.0330   19.2780 C   0  0  0  0  0  0  0  0  0  0  0  0
   12.4407   15.2811   19.7068 N   0  0  0  0  0  0  0  0  0  0  0  0
   12.7376   16.3308   18.8605 C   0  0  0  0  0  0  0  0  0  0  0  0
   12.4996   16.3815   17.6615 O   0  0  0  0  0  0  0  0  0  0  0  0
   13.3526   17.4225   19.6929 C   0  0  1  0  0  0  0  0  0  0  0  0
   12.9505   18.6793   19.3643 F   0  0  0  0  0  0  0  0  0  0  0  0
   12.8873   17.0777   21.0967 C   0  0  0  0  0  0  0  0  0  0  0  0
   12.7450   15.5604   21.0909 C   0  0  1  0  0  0  0  0  0  0  0  0
   11.7777   14.9905   22.1505 C   0  0  0  0  0  0  0  0  0  0  0  0
   11.0426   15.6537   22.8654 O   0  0  0  0  0  0  0  0  0  0  0  0
   11.8760   13.6282   22.2694 O   0  0  0  0  0  0  0  0  0  0  0  0
   11.4970   13.0862   23.5522 C   0  0  0  0  0  0  0  0  0  0  0  0
   10.0361   12.6979   23.7307 C   0  0  0  0  0  0  0  0  0  0  0  0
    9.7859   11.2357   23.8121 N   0  0  0  0  0  0  0  0  0  0  0  0
   10.1639   10.3397   22.8677 C   0  0  0  0  0  0  0  0  0  0  0  0
    9.5476    9.1586   23.1805 C   0  0  0  0  0  0  0  0  0  0  0  0
    8.7749    9.4832   24.3047 C   0  0  0  0  0  0  0  0  0  0  0  0
    8.9537   10.7275   24.7330 N   0  0  0  0  0  0  0  0  0  0  0  0
    8.8711   13.5668   23.2723 C   0  0  0  0  0  0  0  0  0  0  0  0
    9.2709   13.6009   24.7037 C   0  0  0  0  0  0  0  0  0  0  0  0
  1  2  1  0
  2  3  1  0
  3  4  2  0
  3  5  1  0
  5  6  1  6
  5  7  1  0
  7  8  1  0
  8  9  1  1
  9 10  2  0
  9 11  1  0
 11 12  1  0
 12 13  1  0
 13 14  1  0
 14 15  1  0
 15 16  2  0
 16 17  1  0
 17 18  2  0
 13 19  1  0
 19 20  1  0
  8  2  1  0
 20 13  1  0
 18 14  1  0
M  END
>  <energy_score>  (289) 
-14.71477

>  <inchikey>  (289) 
None

>  <smiles>  (289) 
None

>  <ref_pdb>  (289) 
A2629a

>  <alias>  (289) 
None

>  <HIPPO Pose ID>  (289) 
498171

>  <name>  (289) 
P498171

>  <HIPPO Compound ID>  (289) 
291925

>  <ref_mols>  (289) 
A3956a,A2629a

>  <distance_score>  (289) 
1.428157

>  <inspiration_score>  (289) 
None

$$$$
P498172
     RDKit          3D

 20 22  0  0  0  0  0  0  0  0999 V2000
   12.1533   13.6326   18.5620 C   0  0  0  0  0  0  0  0  0  0  0  0
   11.5765   14.7976   19.2350 C   0  0  0  0  0  0  0  0  0  0  0  0
   12.6136   15.5576   19.8554 N   0  0  0  0  0  0  0  0  0  0  0  0
   13.4997   16.2766   19.0725 C   0  0  0  0  0  0  0  0  0  0  0  0
   13.6376   16.1843   17.8641 O   0  0  0  0  0  0  0  0  0  0  0  0
   14.1120   17.3293   19.9427 C   0  0  0  0  0  0  0  0  0  0  0  0
   13.7068   16.9042   21.3447 C   0  0  0  0  0  0  0  0  0  0  0  0
   12.3832   16.2374   21.1067 C   0  0  2  0  0  0  0  0  0  0  0  0
   11.6364   15.4010   22.1636 C   0  0  0  0  0  0  0  0  0  0  0  0
   10.7937   15.8966   22.9043 O   0  0  0  0  0  0  0  0  0  0  0  0
   11.8658   14.0623   22.1868 O   0  0  0  0  0  0  0  0  0  0  0  0
   10.6212   13.3103   22.2836 C   0  0  0  0  0  0  0  0  0  0  0  0
   10.2823   12.7104   23.6317 C   0  0  0  0  0  0  0  0  0  0  0  0
    9.6523   11.3525   23.6109 N   0  0  0  0  0  0  0  0  0  0  0  0
   10.1370   10.2832   22.9293 C   0  0  0  0  0  0  0  0  0  0  0  0
    9.4782    9.1823   23.4052 C   0  0  0  0  0  0  0  0  0  0  0  0
    8.5941    9.7057   24.3611 C   0  0  0  0  0  0  0  0  0  0  0  0
    8.6788   11.0269   24.4821 N   0  0  0  0  0  0  0  0  0  0  0  0
   11.1775   13.0504   24.7807 C   0  0  0  0  0  0  0  0  0  0  0  0
    9.8175   13.6638   24.7358 C   0  0  0  0  0  0  0  0  0  0  0  0
  1  2  1  0
  2  3  1  0
  3  4  1  0
  4  5  2  0
  4  6  1  0
  6  7  1  0
  7  8  1  0
  8  9  1  1
  9 10  2  0
  9 11  1  0
 11 12  1  0
 12 13  1  0
 13 14  1  0
 14 15  1  0
 15 16  2  0
 16 17  1  0
 17 18  2  0
 13 19  1  0
 19 20  1  0
  8  3  1  0
 20 13  1  0
 18 14  1  0
M  END
>  <energy_score>  (290) 
-15.834944

>  <inchikey>  (290) 
None

>  <smiles>  (290) 
None

>  <ref_pdb>  (290) 
A2629a

>  <alias>  (290) 
None

>  <HIPPO Pose ID>  (290) 
498172

>  <name>  (290) 
P498172

>  <HIPPO Compound ID>  (290) 
291926

>  <ref_mols>  (290) 
A3956a,A2629a

>  <distance_score>  (290) 
1.689628

>  <inspiration_score>  (290) 
None

$$$$
P498174
     RDKit          3D

 21 23  0  0  0  0  0  0  0  0999 V2000
   13.0034   16.9711   16.1013 C   0  0  0  0  0  0  0  0  0  0  0  0
   12.4473   16.5034   17.4272 C   0  0  0  0  0  0  0  0  0  0  0  0
   13.3520   15.6303   18.2806 C   0  0  0  0  0  0  0  0  0  0  0  0
   13.4893   16.1315   19.6199 N   0  0  0  0  0  0  0  0  0  0  0  0
   14.1098   17.3779   19.7803 C   0  0  0  0  0  0  0  0  0  0  0  0
   14.7980   17.9865   18.9748 O   0  0  0  0  0  0  0  0  0  0  0  0
   13.6788   17.9079   21.0955 C   0  0  0  0  0  0  0  0  0  0  0  0
   12.2721   17.3417   21.1324 C   0  0  0  0  0  0  0  0  0  0  0  0
   12.4167   15.9376   20.5665 C   0  0  2  0  0  0  0  0  0  0  0  0
   12.4767   14.9410   21.7381 C   0  0  0  0  0  0  0  0  0  0  0  0
   13.4093   14.8324   22.5175 O   0  0  0  0  0  0  0  0  0  0  0  0
   11.3164   14.2165   21.8721 O   0  0  0  0  0  0  0  0  0  0  0  0
   11.3746   13.1748   22.8666 C   0  0  0  0  0  0  0  0  0  0  0  0
    9.9997   12.8205   23.4339 C   0  0  0  0  0  0  0  0  0  0  0  0
    9.7966   11.3759   23.7841 N   0  0  0  0  0  0  0  0  0  0  0  0
   10.0980   10.3416   22.9530 C   0  0  0  0  0  0  0  0  0  0  0  0
    9.4175    9.2494   23.4179 C   0  0  0  0  0  0  0  0  0  0  0  0
    8.6783    9.7512   24.4991 C   0  0  0  0  0  0  0  0  0  0  0  0
    8.9503   11.0239   24.7741 N   0  0  0  0  0  0  0  0  0  0  0  0
    9.4329   13.9115   24.3344 C   0  0  0  0  0  0  0  0  0  0  0  0
    8.7209   13.5810   23.0729 C   0  0  0  0  0  0  0  0  0  0  0  0
  1  2  1  0
  2  3  1  0
  3  4  1  0
  4  5  1  0
  5  6  2  0
  5  7  1  0
  7  8  1  0
  8  9  1  0
  9 10  1  1
 10 11  2  0
 10 12  1  0
 12 13  1  0
 13 14  1  0
 14 15  1  0
 15 16  1  0
 16 17  2  0
 17 18  1  0
 18 19  2  0
 14 20  1  0
 20 21  1  0
  9  4  1  0
 21 14  1  0
 19 15  1  0
M  END
>  <energy_score>  (291) 
-12.334364

>  <inchikey>  (291) 
None

>  <smiles>  (291) 
None

>  <ref_pdb>  (291) 
A2629a

>  <alias>  (291) 
None

>  <HIPPO Pose ID>  (291) 
498174

>  <name>  (291) 
P498174

>  <HIPPO Compound ID>  (291) 
291930

>  <ref_mols>  (291) 
A3956a,A2629a

>  <distance_score>  (291) 
1.810019

>  <inspiration_score>  (291) 
None

$$$$
P498179
     RDKit          3D

 18 19  0  0  0  0  0  0  0  0999 V2000
    9.0948    8.3683   22.8903 C   0  0  0  0  0  0  0  0  0  0  0  0
    8.2694    9.2087   23.7000 O   0  0  0  0  0  0  0  0  0  0  0  0
    8.9163   10.3499   24.0080 C   0  0  0  0  0  0  0  0  0  0  0  0
   10.0815   10.5826   23.7251 O   0  0  0  0  0  0  0  0  0  0  0  0
    8.0549   11.2905   24.7637 C   0  0  0  0  0  0  0  0  0  0  0  0
    7.0028   10.8419   25.5750 C   0  0  0  0  0  0  0  0  0  0  0  0
    6.3223   11.7747   26.3552 C   0  0  0  0  0  0  0  0  0  0  0  0
    5.1234   11.4848   27.1951 C   0  0  0  0  0  0  0  0  0  0  0  0
    5.1414   10.6176   28.4142 C   0  0  0  0  0  0  0  0  0  0  0  0
    5.0795   12.1048   28.5804 C   0  0  0  0  0  0  0  0  0  0  0  0
    6.6963   13.0697   26.3929 N   0  0  0  0  0  0  0  0  0  0  0  0
    7.6589   13.4815   25.5633 C   0  0  0  0  0  0  0  0  0  0  0  0
    8.3424   12.6598   24.6822 C   0  0  0  0  0  0  0  0  0  0  0  0
    9.2240   13.1880   23.7162 N   0  0  0  0  0  0  0  0  0  0  0  0
   10.5949   13.1686   24.1466 N   0  0  0  0  0  0  0  0  0  0  0  0
    8.7308   14.3952   23.0136 C   0  0  0  0  0  0  0  0  0  0  0  0
    7.3544   14.2114   22.3824 C   0  0  0  0  0  0  0  0  0  0  0  0
    9.6983   14.8058   21.9002 C   0  0  0  0  0  0  0  0  0  0  0  0
  1  2  1  0
  2  3  1  0
  3  4  2  0
  3  5  1  0
  5  6  2  0
  6  7  1  0
  7  8  1  0
  8  9  1  0
  9 10  1  0
  7 11  2  0
 11 12  1  0
 12 13  2  0
 13 14  1  0
 14 15  1  0
 14 16  1  0
 16 17  1  0
 16 18  1  0
 13  5  1  0
 10  8  1  0
M  END
>  <energy_score>  (292) 
-25.706418

>  <inchikey>  (292) 
None

>  <smiles>  (292) 
None

>  <ref_pdb>  (292) 
A0514a

>  <alias>  (292) 
None

>  <HIPPO Pose ID>  (292) 
498179

>  <name>  (292) 
P498179

>  <HIPPO Compound ID>  (292) 
292533

>  <ref_mols>  (292) 
A4331a,A0514a

>  <distance_score>  (292) 
1.473901

>  <inspiration_score>  (292) 
None

$$$$
P498182
     RDKit          3D

 19 20  0  0  0  0  0  0  0  0999 V2000
    9.3860    8.4559   23.1029 C   0  0  0  0  0  0  0  0  0  0  0  0
    8.6362    9.2656   24.0119 O   0  0  0  0  0  0  0  0  0  0  0  0
    8.7981   10.5925   23.8330 C   0  0  0  0  0  0  0  0  0  0  0  0
    9.5090   11.1175   22.9930 O   0  0  0  0  0  0  0  0  0  0  0  0
    7.9769   11.3611   24.7991 C   0  0  0  0  0  0  0  0  0  0  0  0
    6.9361   10.7519   25.5090 C   0  0  0  0  0  0  0  0  0  0  0  0
    6.2080   11.5132   26.4154 C   0  0  0  0  0  0  0  0  0  0  0  0
    5.1692   10.9237   27.3269 C   0  0  0  0  0  0  0  0  0  0  0  0
    3.9759   11.7591   27.7428 C   0  0  0  0  0  0  0  0  0  0  0  0
    5.0657   11.4881   28.7314 C   0  0  0  0  0  0  0  0  0  0  0  0
    6.4598   12.8328   26.5836 N   0  0  0  0  0  0  0  0  0  0  0  0
    7.4461   13.4031   25.8817 C   0  0  0  0  0  0  0  0  0  0  0  0
    8.2678   12.7175   25.0061 C   0  0  0  0  0  0  0  0  0  0  0  0
    9.3584   13.3629   24.3844 N   0  0  0  0  0  0  0  0  0  0  0  0
   10.2071   14.1136   25.2480 N   0  0  0  0  0  0  0  0  0  0  0  0
    8.9012   14.0234   23.1331 C   0  0  0  0  0  0  0  0  0  0  0  0
   10.0710   14.2972   22.1985 C   0  0  0  0  0  0  0  0  0  0  0  0
   11.0373   14.9953   22.8623 F   0  0  0  0  0  0  0  0  0  0  0  0
    9.6506   15.0800   21.1731 F   0  0  0  0  0  0  0  0  0  0  0  0
  1  2  1  0
  2  3  1  0
  3  4  2  0
  3  5  1  0
  5  6  2  0
  6  7  1  0
  7  8  1  0
  8  9  1  0
  9 10  1  0
  7 11  2  0
 11 12  1  0
 12 13  2  0
 13 14  1  0
 14 15  1  0
 14 16  1  0
 16 17  1  0
 17 18  1  0
 17 19  1  0
 13  5  1  0
 10  8  1  0
M  END
>  <energy_score>  (293) 
-38.931392

>  <inchikey>  (293) 
None

>  <smiles>  (293) 
None

>  <ref_pdb>  (293) 
A0514a

>  <alias>  (293) 
None

>  <HIPPO Pose ID>  (293) 
498182

>  <name>  (293) 
P498182

>  <HIPPO Compound ID>  (293) 
292542

>  <ref_mols>  (293) 
A4331a,A0514a

>  <distance_score>  (293) 
1.356384

>  <inspiration_score>  (293) 
None

$$$$
P498188
     RDKit          3D

 19 20  0  0  0  0  0  0  0  0999 V2000
   11.0325   15.1977   20.3011 C   0  0  0  0  0  0  0  0  0  0  0  0
   10.0129   14.8128   21.2653 C   0  0  0  0  0  0  0  0  0  0  0  0
    9.2174   14.4955   22.1027 C   0  0  0  0  0  0  0  0  0  0  0  0
    8.3181   14.1384   23.1942 C   0  0  0  0  0  0  0  0  0  0  0  0
    8.8163   12.9364   23.9088 N   0  0  0  0  0  0  0  0  0  0  0  0
   10.1891   12.8694   24.3087 N   0  0  0  0  0  0  0  0  0  0  0  0
    7.9175   12.4783   24.8900 C   0  0  0  0  0  0  0  0  0  0  0  0
    7.3101   13.3748   25.7642 C   0  0  0  0  0  0  0  0  0  0  0  0
    6.3821   13.0625   26.6810 N   0  0  0  0  0  0  0  0  0  0  0  0
    5.9637   11.7878   26.7659 C   0  0  0  0  0  0  0  0  0  0  0  0
    4.8897   11.4802   27.7634 C   0  0  0  0  0  0  0  0  0  0  0  0
    3.5949   12.2549   27.7016 C   0  0  0  0  0  0  0  0  0  0  0  0
    4.5553   12.5103   28.8228 C   0  0  0  0  0  0  0  0  0  0  0  0
    6.5361   10.8102   25.9774 C   0  0  0  0  0  0  0  0  0  0  0  0
    7.5518   11.1423   25.0635 C   0  0  0  0  0  0  0  0  0  0  0  0
    8.1407    9.9704   24.3869 C   0  0  0  0  0  0  0  0  0  0  0  0
    7.7504    8.8525   24.6910 O   0  0  0  0  0  0  0  0  0  0  0  0
    9.1163   10.2317   23.4977 O   0  0  0  0  0  0  0  0  0  0  0  0
    9.6685    9.0497   22.9151 C   0  0  0  0  0  0  0  0  0  0  0  0
  1  2  1  0
  2  3  3  0
  3  4  1  0
  4  5  1  0
  5  6  1  0
  5  7  1  0
  7  8  2  0
  8  9  1  0
  9 10  2  0
 10 11  1  0
 11 12  1  0
 12 13  1  0
 10 14  1  0
 14 15  2  0
 15 16  1  0
 16 17  2  0
 16 18  1  0
 18 19  1  0
 15  7  1  0
 13 11  1  0
M  END
>  <energy_score>  (294) 
-28.009583

>  <inchikey>  (294) 
None

>  <smiles>  (294) 
None

>  <ref_pdb>  (294) 
A0514a

>  <alias>  (294) 
None

>  <HIPPO Pose ID>  (294) 
498188

>  <name>  (294) 
P498188

>  <HIPPO Compound ID>  (294) 
292548

>  <ref_mols>  (294) 
A4331a,A0514a

>  <distance_score>  (294) 
1.357933

>  <inspiration_score>  (294) 
None

$$$$
P498189
     RDKit          3D

 19 20  0  0  0  0  0  0  0  0999 V2000
   10.8206   15.3488   20.2261 C   0  0  0  0  0  0  0  0  0  0  0  0
    9.6209   15.1129   21.1160 C   0  0  0  0  0  0  0  0  0  0  0  0
   10.0272   14.2222   22.2756 C   0  0  0  0  0  0  0  0  0  0  0  0
    8.8375   13.8851   23.1536 C   0  0  0  0  0  0  0  0  0  0  0  0
    9.2381   12.9470   24.2304 N   0  0  0  0  0  0  0  0  0  0  0  0
   10.3913   13.2702   24.9998 N   0  0  0  0  0  0  0  0  0  0  0  0
    8.1102   12.6068   25.0077 C   0  0  0  0  0  0  0  0  0  0  0  0
    7.4567   13.5904   25.7445 C   0  0  0  0  0  0  0  0  0  0  0  0
    6.3703   13.3968   26.5030 N   0  0  0  0  0  0  0  0  0  0  0  0
    5.8518   12.1580   26.5645 C   0  0  0  0  0  0  0  0  0  0  0  0
    4.6430   12.0007   27.4215 C   0  0  0  0  0  0  0  0  0  0  0  0
    4.6946   11.1984   28.6897 C   0  0  0  0  0  0  0  0  0  0  0  0
    4.6386   12.6953   28.7658 C   0  0  0  0  0  0  0  0  0  0  0  0
    6.4336   11.1009   25.8879 C   0  0  0  0  0  0  0  0  0  0  0  0
    7.5760   11.3197   25.1024 C   0  0  0  0  0  0  0  0  0  0  0  0
    8.1179   10.0982   24.4731 C   0  0  0  0  0  0  0  0  0  0  0  0
    7.6807    9.0042   24.8035 O   0  0  0  0  0  0  0  0  0  0  0  0
    9.0698   10.3117   23.5452 O   0  0  0  0  0  0  0  0  0  0  0  0
    9.6084    9.1066   22.9974 C   0  0  0  0  0  0  0  0  0  0  0  0
  1  2  1  0
  2  3  1  0
  3  4  1  0
  4  5  1  0
  5  6  1  0
  5  7  1  0
  7  8  2  0
  8  9  1  0
  9 10  2  0
 10 11  1  0
 11 12  1  0
 12 13  1  0
 10 14  1  0
 14 15  2  0
 15 16  1  0
 16 17  2  0
 16 18  1  0
 18 19  1  0
 15  7  1  0
 13 11  1  0
M  END
>  <energy_score>  (295) 
-34.7238

>  <inchikey>  (295) 
None

>  <smiles>  (295) 
None

>  <ref_pdb>  (295) 
A0514a

>  <alias>  (295) 
None

>  <HIPPO Pose ID>  (295) 
498189

>  <name>  (295) 
P498189

>  <HIPPO Compound ID>  (295) 
292550

>  <ref_mols>  (295) 
A4331a,A0514a

>  <distance_score>  (295) 
1.782796

>  <inspiration_score>  (295) 
None

$$$$
P498199
     RDKit          3D

 19 20  0  0  0  0  0  0  0  0999 V2000
    9.1134    8.5387   23.0468 C   0  0  0  0  0  0  0  0  0  0  0  0
    8.3073    9.3897   23.8728 O   0  0  0  0  0  0  0  0  0  0  0  0
    8.8802   10.6005   24.0616 C   0  0  0  0  0  0  0  0  0  0  0  0
    9.9685   10.9189   23.6132 O   0  0  0  0  0  0  0  0  0  0  0  0
    8.0231   11.4996   24.8858 C   0  0  0  0  0  0  0  0  0  0  0  0
    6.8966   11.0296   25.5722 C   0  0  0  0  0  0  0  0  0  0  0  0
    6.1725   11.9287   26.3543 C   0  0  0  0  0  0  0  0  0  0  0  0
    4.9481   11.5911   27.1340 C   0  0  0  0  0  0  0  0  0  0  0  0
    4.9139   10.5498   28.2089 C   0  0  0  0  0  0  0  0  0  0  0  0
    4.9359   11.9971   28.5951 C   0  0  0  0  0  0  0  0  0  0  0  0
    6.5288   13.2255   26.4705 N   0  0  0  0  0  0  0  0  0  0  0  0
    7.5946   13.6600   25.7961 C   0  0  0  0  0  0  0  0  0  0  0  0
    8.3861   12.8522   25.0003 C   0  0  0  0  0  0  0  0  0  0  0  0
    9.4754   13.4072   24.3031 N   0  0  0  0  0  0  0  0  0  0  0  0
   10.4144   14.1249   25.0843 N   0  0  0  0  0  0  0  0  0  0  0  0
    9.0099   14.0042   23.0401 C   0  0  0  0  0  0  0  0  0  0  0  0
   10.0659   13.8905   21.9572 C   0  0  0  0  0  0  0  0  0  0  0  0
   11.1716   14.9187   21.9145 C   0  0  0  0  0  0  0  0  0  0  0  0
   12.0741   14.8121   23.0044 O   0  0  0  0  0  0  0  0  0  0  0  0
  1  2  1  0
  2  3  1  0
  3  4  2  0
  3  5  1  0
  5  6  2  0
  6  7  1  0
  7  8  1  0
  8  9  1  0
  9 10  1  0
  7 11  2  0
 11 12  1  0
 12 13  2  0
 13 14  1  0
 14 15  1  0
 14 16  1  0
 16 17  1  0
 17 18  1  0
 18 19  1  0
 13  5  1  0
 10  8  1  0
M  END
>  <energy_score>  (296) 
-44.338933

>  <inchikey>  (296) 
None

>  <smiles>  (296) 
None

>  <ref_pdb>  (296) 
A0514a

>  <alias>  (296) 
None

>  <HIPPO Pose ID>  (296) 
498199

>  <name>  (296) 
P498199

>  <HIPPO Compound ID>  (296) 
292561

>  <ref_mols>  (296) 
A4331a,A0514a

>  <distance_score>  (296) 
1.811943

>  <inspiration_score>  (296) 
None

$$$$
P498200
     RDKit          3D

 19 20  0  0  0  0  0  0  0  0999 V2000
   10.5126   15.5776   20.3155 C   0  0  0  0  0  0  0  0  0  0  0  0
    9.4338   15.0829   21.0987 O   0  0  0  0  0  0  0  0  0  0  0  0
    9.9468   14.3206   22.1798 C   0  0  0  0  0  0  0  0  0  0  0  0
    8.7929   13.8319   23.0364 C   0  0  0  0  0  0  0  0  0  0  0  0
    9.2605   13.0810   24.2223 N   0  0  0  0  0  0  0  0  0  0  0  0
   10.4384   12.3282   24.1694 N   0  0  0  0  0  0  0  0  0  0  0  0
    8.1621   12.5586   24.9403 C   0  0  0  0  0  0  0  0  0  0  0  0
    7.4398   13.4866   25.6914 C   0  0  0  0  0  0  0  0  0  0  0  0
    6.4106   13.2101   26.5069 N   0  0  0  0  0  0  0  0  0  0  0  0
    5.9888   11.9372   26.5978 C   0  0  0  0  0  0  0  0  0  0  0  0
    4.8671   11.6425   27.5483 C   0  0  0  0  0  0  0  0  0  0  0  0
    3.6136   12.4814   27.4924 C   0  0  0  0  0  0  0  0  0  0  0  0
    4.5587   12.6421   28.6439 C   0  0  0  0  0  0  0  0  0  0  0  0
    6.6043   10.9437   25.8618 C   0  0  0  0  0  0  0  0  0  0  0  0
    7.7085   11.2376   25.0352 C   0  0  0  0  0  0  0  0  0  0  0  0
    8.2407   10.0249   24.3750 C   0  0  0  0  0  0  0  0  0  0  0  0
    7.8814    8.9208   24.7625 O   0  0  0  0  0  0  0  0  0  0  0  0
    9.0783   10.2337   23.3405 O   0  0  0  0  0  0  0  0  0  0  0  0
    9.6172    9.0105   22.8305 C   0  0  0  0  0  0  0  0  0  0  0  0
  1  2  1  0
  2  3  1  0
  3  4  1  0
  4  5  1  0
  5  6  1  0
  5  7  1  0
  7  8  2  0
  8  9  1  0
  9 10  2  0
 10 11  1  0
 11 12  1  0
 12 13  1  0
 10 14  1  0
 14 15  2  0
 15 16  1  0
 16 17  2  0
 16 18  1  0
 18 19  1  0
 15  7  1  0
 13 11  1  0
M  END
>  <energy_score>  (297) 
-42.023756

>  <inchikey>  (297) 
None

>  <smiles>  (297) 
None

>  <ref_pdb>  (297) 
A0514a

>  <alias>  (297) 
None

>  <HIPPO Pose ID>  (297) 
498200

>  <name>  (297) 
P498200

>  <HIPPO Compound ID>  (297) 
292562

>  <ref_mols>  (297) 
A4331a,A0514a

>  <distance_score>  (297) 
1.384638

>  <inspiration_score>  (297) 
None

$$$$
P498204
     RDKit          3D

 19 20  0  0  0  0  0  0  0  0999 V2000
   11.4437   14.6493   22.5914 C   0  0  0  0  0  0  0  0  0  0  0  0
   10.0219   14.4505   22.0850 C   0  0  0  0  0  0  0  0  0  0  0  0
    8.9370   14.1797   23.1477 C   0  0  1  0  0  0  0  0  0  0  0  0
    7.5802   14.3171   22.4405 C   0  0  0  0  0  0  0  0  0  0  0  0
    9.0595   12.8564   23.8187 N   0  0  0  0  0  0  0  0  0  0  0  0
   10.3312   12.3890   24.1956 N   0  0  0  0  0  0  0  0  0  0  0  0
    8.0599   12.5140   24.7518 C   0  0  0  0  0  0  0  0  0  0  0  0
    7.4503   13.4906   25.5383 C   0  0  0  0  0  0  0  0  0  0  0  0
    6.4581   13.2920   26.4195 N   0  0  0  0  0  0  0  0  0  0  0  0
    5.9731   12.0495   26.5605 C   0  0  0  0  0  0  0  0  0  0  0  0
    4.8239   11.8940   27.4986 C   0  0  0  0  0  0  0  0  0  0  0  0
    5.0024   11.2554   28.8450 C   0  0  0  0  0  0  0  0  0  0  0  0
    4.8100   12.7399   28.7543 C   0  0  0  0  0  0  0  0  0  0  0  0
    6.5343   10.9890   25.8753 C   0  0  0  0  0  0  0  0  0  0  0  0
    7.5997   11.2103   24.9812 C   0  0  0  0  0  0  0  0  0  0  0  0
    8.1228    9.9681   24.3708 C   0  0  0  0  0  0  0  0  0  0  0  0
    7.7482    8.8860   24.8006 O   0  0  0  0  0  0  0  0  0  0  0  0
    8.9927   10.1368   23.3599 O   0  0  0  0  0  0  0  0  0  0  0  0
    9.5585    8.9180   22.8838 C   0  0  0  0  0  0  0  0  0  0  0  0
  1  2  1  0
  2  3  1  0
  3  4  1  6
  3  5  1  0
  5  6  1  0
  5  7  1  0
  7  8  2  0
  8  9  1  0
  9 10  2  0
 10 11  1  0
 11 12  1  0
 12 13  1  0
 10 14  1  0
 14 15  2  0
 15 16  1  0
 16 17  2  0
 16 18  1  0
 18 19  1  0
 15  7  1  0
 13 11  1  0
M  END
>  <energy_score>  (298) 
-30.838698

>  <inchikey>  (298) 
None

>  <smiles>  (298) 
None

>  <ref_pdb>  (298) 
A0514a

>  <alias>  (298) 
None

>  <HIPPO Pose ID>  (298) 
498204

>  <name>  (298) 
P498204

>  <HIPPO Compound ID>  (298) 
292564

>  <ref_mols>  (298) 
A4331a,A0514a

>  <distance_score>  (298) 
1.524039

>  <inspiration_score>  (298) 
None

$$$$
P498209
     RDKit          3D

 20 21  0  0  0  0  0  0  0  0999 V2000
    9.3456    8.5915   23.0166 C   0  0  0  0  0  0  0  0  0  0  0  0
    8.4858    9.3705   23.8503 O   0  0  0  0  0  0  0  0  0  0  0  0
    8.9267   10.6363   24.0394 C   0  0  0  0  0  0  0  0  0  0  0  0
    9.9708   11.0768   23.5955 O   0  0  0  0  0  0  0  0  0  0  0  0
    7.9636   11.4203   24.8553 C   0  0  0  0  0  0  0  0  0  0  0  0
    6.9261   10.7589   25.5275 C   0  0  0  0  0  0  0  0  0  0  0  0
    6.0771   11.4907   26.3458 C   0  0  0  0  0  0  0  0  0  0  0  0
    5.0866   10.8448   27.2685 C   0  0  0  0  0  0  0  0  0  0  0  0
    5.1293   11.2121   28.7348 C   0  0  0  0  0  0  0  0  0  0  0  0
    3.9944   11.6971   27.8882 C   0  0  0  0  0  0  0  0  0  0  0  0
    6.1698   12.8349   26.4187 N   0  0  0  0  0  0  0  0  0  0  0  0
    7.1457   13.4572   25.7495 C   0  0  0  0  0  0  0  0  0  0  0  0
    8.1301   12.8063   25.0238 C   0  0  0  0  0  0  0  0  0  0  0  0
    9.2719   13.5185   24.5860 N   0  0  0  0  0  0  0  0  0  0  0  0
    9.8313   14.4529   25.5087 N   0  0  0  0  0  0  0  0  0  0  0  0
    9.1095   13.9844   23.1830 C   0  0  0  0  0  0  0  0  0  0  0  0
   10.4340   14.4897   22.6114 C   0  0  1  0  0  0  0  0  0  0  0  0
   11.5497   13.4776   22.6469 C   0  0  0  0  0  0  0  0  0  0  0  0
   10.2428   15.0267   21.2679 C   0  0  0  0  0  0  0  0  0  0  0  0
   10.1250   15.4754   20.2085 N   0  0  0  0  0  0  0  0  0  0  0  0
  1  2  1  0
  2  3  1  0
  3  4  2  0
  3  5  1  0
  5  6  2  0
  6  7  1  0
  7  8  1  0
  8  9  1  0
  9 10  1  0
  7 11  2  0
 11 12  1  0
 12 13  2  0
 13 14  1  0
 14 15  1  0
 14 16  1  0
 16 17  1  0
 17 18  1  6
 17 19  1  0
 19 20  3  0
 13  5  1  0
 10  8  1  0
M  END
>  <energy_score>  (299) 
-32.078382

>  <inchikey>  (299) 
None

>  <smiles>  (299) 
None

>  <ref_pdb>  (299) 
A0514a

>  <alias>  (299) 
None

>  <HIPPO Pose ID>  (299) 
498209

>  <name>  (299) 
P498209

>  <HIPPO Compound ID>  (299) 
292570

>  <ref_mols>  (299) 
A4331a,A0514a

>  <distance_score>  (299) 
1.467933

>  <inspiration_score>  (299) 
None

$$$$
P498210
     RDKit          3D

 20 21  0  0  0  0  0  0  0  0999 V2000
    9.3464    8.3984   22.9245 C   0  0  0  0  0  0  0  0  0  0  0  0
    8.4909    9.1718   23.7566 O   0  0  0  0  0  0  0  0  0  0  0  0
    8.9813   10.4042   23.9849 C   0  0  0  0  0  0  0  0  0  0  0  0
   10.0724   10.8252   23.6346 O   0  0  0  0  0  0  0  0  0  0  0  0
    7.9763   11.2149   24.6974 C   0  0  0  0  0  0  0  0  0  0  0  0
    7.0415   10.6367   25.5560 C   0  0  0  0  0  0  0  0  0  0  0  0
    6.1631   11.4667   26.2435 C   0  0  0  0  0  0  0  0  0  0  0  0
    5.2927   10.9595   27.3593 C   0  0  0  0  0  0  0  0  0  0  0  0
    4.0937   11.7588   27.8209 C   0  0  0  0  0  0  0  0  0  0  0  0
    5.3294   11.7312   28.6657 C   0  0  0  0  0  0  0  0  0  0  0  0
    6.1241   12.7998   26.0057 N   0  0  0  0  0  0  0  0  0  0  0  0
    6.9715   13.3278   25.1065 C   0  0  0  0  0  0  0  0  0  0  0  0
    7.9841   12.5985   24.5028 C   0  0  0  0  0  0  0  0  0  0  0  0
    8.8661   13.1853   23.5240 N   0  0  0  0  0  0  0  0  0  0  0  0
    9.6742   13.5026   24.8425 N   0  0  0  0  0  0  0  0  0  0  0  0
    8.7028   14.4280   22.6634 C   0  0  0  0  0  0  0  0  0  0  0  0
    7.8540   15.2401   22.6552 O   0  0  0  0  0  0  0  0  0  0  0  0
    9.9919   14.4384   21.8492 C   0  0  0  0  0  0  0  0  0  0  0  0
   10.0032   15.7031   20.5878 S   0  0  0  0  0  0  0  0  0  0  0  0
   11.4064   15.0943   19.6446 C   0  0  0  0  0  0  0  0  0  0  0  0
  1  2  1  0
  2  3  1  0
  3  4  2  0
  3  5  1  0
  5  6  2  0
  6  7  1  0
  7  8  1  0
  8  9  1  0
  9 10  1  0
  7 11  2  0
 11 12  1  0
 12 13  2  0
 13 14  1  0
 14 15  1  0
 14 16  1  0
 16 17  2  0
 16 18  1  0
 18 19  1  0
 19 20  1  0
 13  5  1  0
 10  8  1  0
M  END
>  <energy_score>  (300) 
-4.604222

>  <inchikey>  (300) 
None

>  <smiles>  (300) 
None

>  <ref_pdb>  (300) 
A0514a

>  <alias>  (300) 
None

>  <HIPPO Pose ID>  (300) 
498210

>  <name>  (300) 
P498210

>  <HIPPO Compound ID>  (300) 
292571

>  <ref_mols>  (300) 
A4331a,A0514a

>  <distance_score>  (300) 
1.794576

>  <inspiration_score>  (300) 
None

$$$$
P498214
     RDKit          3D

 20 21  0  0  0  0  0  0  0  0999 V2000
   10.6799   15.5120   20.3448 C   0  0  0  0  0  0  0  0  0  0  0  0
    9.5609   15.3058   21.1921 O   0  0  0  0  0  0  0  0  0  0  0  0
    9.8964   14.3739   22.2088 C   0  0  0  0  0  0  0  0  0  0  0  0
    8.7381   14.1616   23.2013 C   0  0  1  0  0  0  0  0  0  0  0  0
    7.3947   14.2109   22.4777 C   0  0  0  0  0  0  0  0  0  0  0  0
    8.9551   12.8781   23.9199 N   0  0  0  0  0  0  0  0  0  0  0  0
   10.2919   12.6234   24.3088 N   0  0  0  0  0  0  0  0  0  0  0  0
    7.9838   12.4723   24.8472 C   0  0  0  0  0  0  0  0  0  0  0  0
    7.3518   13.4007   25.6684 C   0  0  0  0  0  0  0  0  0  0  0  0
    6.4175   13.1181   26.5894 N   0  0  0  0  0  0  0  0  0  0  0  0
    5.9873   11.8498   26.7087 C   0  0  0  0  0  0  0  0  0  0  0  0
    4.9083   11.5754   27.7111 C   0  0  0  0  0  0  0  0  0  0  0  0
    3.6181   12.3547   27.6254 C   0  0  0  0  0  0  0  0  0  0  0  0
    4.5768   12.6340   28.7427 C   0  0  0  0  0  0  0  0  0  0  0  0
    6.5522   10.8475   25.9476 C   0  0  0  0  0  0  0  0  0  0  0  0
    7.5838   11.1455   25.0402 C   0  0  0  0  0  0  0  0  0  0  0  0
    8.1496    9.9481   24.3855 C   0  0  0  0  0  0  0  0  0  0  0  0
    7.7537    8.8417   24.7195 O   0  0  0  0  0  0  0  0  0  0  0  0
    9.1175   10.1771   23.4793 O   0  0  0  0  0  0  0  0  0  0  0  0
    9.6547    8.9807   22.9155 C   0  0  0  0  0  0  0  0  0  0  0  0
  1  2  1  0
  2  3  1  0
  3  4  1  0
  4  5  1  6
  4  6  1  0
  6  7  1  0
  6  8  1  0
  8  9  2  0
  9 10  1  0
 10 11  2  0
 11 12  1  0
 12 13  1  0
 13 14  1  0
 11 15  1  0
 15 16  2  0
 16 17  1  0
 17 18  2  0
 17 19  1  0
 19 20  1  0
 16  8  1  0
 14 12  1  0
M  END
>  <energy_score>  (301) 
-38.301586

>  <inchikey>  (301) 
None

>  <smiles>  (301) 
None

>  <ref_pdb>  (301) 
A0514a

>  <alias>  (301) 
None

>  <HIPPO Pose ID>  (301) 
498214

>  <name>  (301) 
P498214

>  <HIPPO Compound ID>  (301) 
292574

>  <ref_mols>  (301) 
A4331a,A0514a

>  <distance_score>  (301) 
1.426764

>  <inspiration_score>  (301) 
None

$$$$
P498216
     RDKit          3D

 20 21  0  0  0  0  0  0  0  0999 V2000
    9.4452    8.7311   23.0572 C   0  0  0  0  0  0  0  0  0  0  0  0
    8.5169    9.4563   23.8658 O   0  0  0  0  0  0  0  0  0  0  0  0
    8.8756   10.7428   24.0923 C   0  0  0  0  0  0  0  0  0  0  0  0
    9.9067   11.2583   23.7023 O   0  0  0  0  0  0  0  0  0  0  0  0
    7.8204   11.4353   24.8812 C   0  0  0  0  0  0  0  0  0  0  0  0
    6.8697   10.6667   25.5712 C   0  0  0  0  0  0  0  0  0  0  0  0
    5.9356   11.3032   26.3768 C   0  0  0  0  0  0  0  0  0  0  0  0
    5.1096   10.5719   27.3917 C   0  0  0  0  0  0  0  0  0  0  0  0
    3.9357   11.2532   28.0631 C   0  0  0  0  0  0  0  0  0  0  0  0
    5.2112   11.0650   28.8231 C   0  0  0  0  0  0  0  0  0  0  0  0
    5.8273   12.6457   26.3899 N   0  0  0  0  0  0  0  0  0  0  0  0
    6.7266   13.3630   25.7104 C   0  0  0  0  0  0  0  0  0  0  0  0
    7.8095   12.8327   25.0226 C   0  0  0  0  0  0  0  0  0  0  0  0
    8.8616   13.6843   24.6078 N   0  0  0  0  0  0  0  0  0  0  0  0
    9.1594   14.7745   25.4847 N   0  0  0  0  0  0  0  0  0  0  0  0
    8.7689   14.0110   23.1600 C   0  0  0  0  0  0  0  0  0  0  0  0
   10.1742   14.2614   22.5912 C   0  0  0  0  0  0  0  0  0  0  0  0
   10.2215   14.6079   21.1683 N   0  0  0  0  0  0  0  0  0  0  0  0
   11.6230   14.6924   20.7440 C   0  0  0  0  0  0  0  0  0  0  0  0
    9.5666   15.8550   20.8095 C   0  0  0  0  0  0  0  0  0  0  0  0
  1  2  1  0
  2  3  1  0
  3  4  2  0
  3  5  1  0
  5  6  2  0
  6  7  1  0
  7  8  1  0
  8  9  1  0
  9 10  1  0
  7 11  2  0
 11 12  1  0
 12 13  2  0
 13 14  1  0
 14 15  1  0
 14 16  1  0
 16 17  1  0
 17 18  1  0
 18 19  1  0
 18 20  1  0
 13  5  1  0
 10  8  1  0
M  END
>  <energy_score>  (302) 
-26.676831

>  <inchikey>  (302) 
None

>  <smiles>  (302) 
None

>  <ref_pdb>  (302) 
A0514a

>  <alias>  (302) 
None

>  <HIPPO Pose ID>  (302) 
498216

>  <name>  (302) 
P498216

>  <HIPPO Compound ID>  (302) 
292577

>  <ref_mols>  (302) 
A4331a,A0514a

>  <distance_score>  (302) 
1.596353

>  <inspiration_score>  (302) 
None

$$$$
P498225
     RDKit          3D

 20 21  0  0  0  0  0  0  0  0999 V2000
   10.8859   15.2698   20.1009 C   0  0  0  0  0  0  0  0  0  0  0  0
    9.7314   15.1590   21.0811 C   0  0  0  0  0  0  0  0  0  0  0  0
   10.1109   14.2647   22.2571 C   0  0  1  0  0  0  0  0  0  0  0  0
   11.1272   14.8913   23.0714 O   0  0  0  0  0  0  0  0  0  0  0  0
    8.8814   13.9331   23.1241 C   0  0  0  0  0  0  0  0  0  0  0  0
    9.2121   12.8656   24.1073 N   0  0  0  0  0  0  0  0  0  0  0  0
   10.4184   13.0289   24.8559 N   0  0  0  0  0  0  0  0  0  0  0  0
    8.1124   12.4996   24.9040 C   0  0  0  0  0  0  0  0  0  0  0  0
    7.4591   13.4477   25.6827 C   0  0  0  0  0  0  0  0  0  0  0  0
    6.4388   13.1956   26.5195 N   0  0  0  0  0  0  0  0  0  0  0  0
    5.9776   11.9339   26.6170 C   0  0  0  0  0  0  0  0  0  0  0  0
    4.8586   11.6761   27.5812 C   0  0  0  0  0  0  0  0  0  0  0  0
    3.6010   12.5050   27.4857 C   0  0  0  0  0  0  0  0  0  0  0  0
    4.5414   12.7198   28.6323 C   0  0  0  0  0  0  0  0  0  0  0  0
    6.5508   10.9183   25.8780 C   0  0  0  0  0  0  0  0  0  0  0  0
    7.6371   11.1927   25.0308 C   0  0  0  0  0  0  0  0  0  0  0  0
    8.2017    9.9936   24.3850 C   0  0  0  0  0  0  0  0  0  0  0  0
    7.8064    8.8867   24.7227 O   0  0  0  0  0  0  0  0  0  0  0  0
    9.1295   10.2301   23.4388 O   0  0  0  0  0  0  0  0  0  0  0  0
    9.6798    9.0294   22.9000 C   0  0  0  0  0  0  0  0  0  0  0  0
  1  2  1  0
  2  3  1  0
  3  4  1  1
  3  5  1  0
  5  6  1  0
  6  7  1  0
  6  8  1  0
  8  9  2  0
  9 10  1  0
 10 11  2  0
 11 12  1  0
 12 13  1  0
 13 14  1  0
 11 15  1  0
 15 16  2  0
 16 17  1  0
 17 18  2  0
 17 19  1  0
 19 20  1  0
 16  8  1  0
 14 12  1  0
M  END
>  <energy_score>  (303) 
-31.241178

>  <inchikey>  (303) 
None

>  <smiles>  (303) 
None

>  <ref_pdb>  (303) 
A0514a

>  <alias>  (303) 
None

>  <HIPPO Pose ID>  (303) 
498225

>  <name>  (303) 
P498225

>  <HIPPO Compound ID>  (303) 
292585

>  <ref_mols>  (303) 
A4331a,A0514a

>  <distance_score>  (303) 
1.357011

>  <inspiration_score>  (303) 
None

$$$$
P498227
     RDKit          3D

 20 22  0  0  0  0  0  0  0  0999 V2000
    9.4541    8.3767   23.3711 C   0  0  0  0  0  0  0  0  0  0  0  0
    8.6591    9.1915   24.2338 O   0  0  0  0  0  0  0  0  0  0  0  0
    8.7370   10.4851   23.8601 C   0  0  0  0  0  0  0  0  0  0  0  0
    9.3002   10.8874   22.8567 O   0  0  0  0  0  0  0  0  0  0  0  0
    8.0611   11.3780   24.8196 C   0  0  0  0  0  0  0  0  0  0  0  0
    6.9138   10.9846   25.5123 C   0  0  0  0  0  0  0  0  0  0  0  0
    6.2712   11.9333   26.3024 C   0  0  0  0  0  0  0  0  0  0  0  0
    5.0007   11.6912   27.0443 C   0  0  0  0  0  0  0  0  0  0  0  0
    4.8889   10.6988   28.1616 C   0  0  0  0  0  0  0  0  0  0  0  0
    4.9348   12.1620   28.4834 C   0  0  0  0  0  0  0  0  0  0  0  0
    6.7423   13.1937   26.4305 N   0  0  0  0  0  0  0  0  0  0  0  0
    7.8428   13.5398   25.7548 C   0  0  0  0  0  0  0  0  0  0  0  0
    8.5583   12.6799   24.9437 C   0  0  0  0  0  0  0  0  0  0  0  0
    9.7127   13.0941   24.2665 N   0  0  0  0  0  0  0  0  0  0  0  0
   10.9025   13.1008   25.0397 N   0  0  0  0  0  0  0  0  0  0  0  0
    9.5194   14.2108   23.3448 C   0  0  0  0  0  0  0  0  0  0  0  0
    8.2932   14.1682   22.4593 C   0  0  0  0  0  0  0  0  0  0  0  0
    8.6577   15.0773   21.2967 C   0  0  0  0  0  0  0  0  0  0  0  0
   10.1700   15.1252   21.1982 C   0  0  0  0  0  0  0  0  0  0  0  0
   10.6827   14.3061   22.3637 C   0  0  0  0  0  0  0  0  0  0  0  0
  1  2  1  0
  2  3  1  0
  3  4  2  0
  3  5  1  0
  5  6  2  0
  6  7  1  0
  7  8  1  0
  8  9  1  0
  9 10  1  0
  7 11  2  0
 11 12  1  0
 12 13  2  0
 13 14  1  0
 14 15  1  0
 14 16  1  0
 16 17  1  0
 17 18  1  0
 18 19  1  0
 19 20  1  0
 13  5  1  0
 20 16  1  0
 10  8  1  0
M  END
>  <energy_score>  (304) 
-57.391228

>  <inchikey>  (304) 
None

>  <smiles>  (304) 
None

>  <ref_pdb>  (304) 
A0514a

>  <alias>  (304) 
None

>  <HIPPO Pose ID>  (304) 
498227

>  <name>  (304) 
P498227

>  <HIPPO Compound ID>  (304) 
292588

>  <ref_mols>  (304) 
A4331a,A0514a

>  <distance_score>  (304) 
1.570875

>  <inspiration_score>  (304) 
None

$$$$
P498228
     RDKit          3D

 20 22  0  0  0  0  0  0  0  0999 V2000
    9.5172    8.5062   23.0228 C   0  0  0  0  0  0  0  0  0  0  0  0
    8.8300    9.4303   23.8595 O   0  0  0  0  0  0  0  0  0  0  0  0
    9.1969   10.7166   23.6793 C   0  0  0  0  0  0  0  0  0  0  0  0
   10.0465   11.1138   22.9056 O   0  0  0  0  0  0  0  0  0  0  0  0
    8.3879   11.6138   24.5264 C   0  0  0  0  0  0  0  0  0  0  0  0
    7.4079   11.0748   25.3798 C   0  0  0  0  0  0  0  0  0  0  0  0
    6.5889   11.9265   26.1070 C   0  0  0  0  0  0  0  0  0  0  0  0
    5.5841   11.4161   27.1070 C   0  0  0  0  0  0  0  0  0  0  0  0
    4.3344   12.2145   27.4045 C   0  0  0  0  0  0  0  0  0  0  0  0
    5.4407   12.1737   28.4126 C   0  0  0  0  0  0  0  0  0  0  0  0
    6.7092   13.2670   25.9739 N   0  0  0  0  0  0  0  0  0  0  0  0
    7.6069   13.7649   25.0987 C   0  0  0  0  0  0  0  0  0  0  0  0
    8.5121   12.9982   24.3906 C   0  0  0  0  0  0  0  0  0  0  0  0
    9.3713   13.6311   23.4781 N   0  0  0  0  0  0  0  0  0  0  0  0
    8.7850   14.4013   22.5115 N   0  0  0  0  0  0  0  0  0  0  0  0
    9.7688   14.9307   21.8482 C   0  0  0  0  0  0  0  0  0  0  0  0
    9.5946   15.9168   20.7651 C   0  0  0  0  0  0  0  0  0  0  0  0
   11.1244   14.5023   22.2861 C   0  0  0  0  0  0  0  0  0  0  0  0
   10.7725   13.7552   23.5231 C   0  0  0  0  0  0  0  0  0  0  0  0
   11.5789   13.4407   24.3797 O   0  0  0  0  0  0  0  0  0  0  0  0
  1  2  1  0
  2  3  1  0
  3  4  2  0
  3  5  1  0
  5  6  2  0
  6  7  1  0
  7  8  1  0
  8  9  1  0
  9 10  1  0
  7 11  2  0
 11 12  1  0
 12 13  2  0
 13 14  1  0
 14 15  1  0
 15 16  2  0
 16 17  1  0
 16 18  1  0
 18 19  1  0
 19 20  2  0
 13  5  1  0
 19 14  1  0
 10  8  1  0
M  END
>  <energy_score>  (305) 
-31.178193

>  <inchikey>  (305) 
None

>  <smiles>  (305) 
None

>  <ref_pdb>  (305) 
A0514a

>  <alias>  (305) 
None

>  <HIPPO Pose ID>  (305) 
498228

>  <name>  (305) 
P498228

>  <HIPPO Compound ID>  (305) 
292589

>  <ref_mols>  (305) 
A4331a,A0514a

>  <distance_score>  (305) 
1.810613

>  <inspiration_score>  (305) 
None

$$$$
P498229
     RDKit          3D

 20 22  0  0  0  0  0  0  0  0999 V2000
    9.4878    8.3750   23.3939 C   0  0  0  0  0  0  0  0  0  0  0  0
    8.6659    9.1769   24.2427 O   0  0  0  0  0  0  0  0  0  0  0  0
    8.7271   10.4678   23.8548 C   0  0  0  0  0  0  0  0  0  0  0  0
    9.2842   10.8643   22.8454 O   0  0  0  0  0  0  0  0  0  0  0  0
    8.0535   11.3644   24.8114 C   0  0  0  0  0  0  0  0  0  0  0  0
    6.9100   10.9738   25.5116 C   0  0  0  0  0  0  0  0  0  0  0  0
    6.2750   11.9241   26.3055 C   0  0  0  0  0  0  0  0  0  0  0  0
    5.0038   11.6885   27.0484 C   0  0  0  0  0  0  0  0  0  0  0  0
    4.8887   10.7025   28.1711 C   0  0  0  0  0  0  0  0  0  0  0  0
    4.9381   12.1672   28.4849 C   0  0  0  0  0  0  0  0  0  0  0  0
    6.7545   13.1808   26.4350 N   0  0  0  0  0  0  0  0  0  0  0  0
    7.8480   13.5266   25.7482 C   0  0  0  0  0  0  0  0  0  0  0  0
    8.5517   12.6666   24.9269 C   0  0  0  0  0  0  0  0  0  0  0  0
    9.6930   13.0815   24.2265 N   0  0  0  0  0  0  0  0  0  0  0  0
   10.8973   13.0834   24.9781 N   0  0  0  0  0  0  0  0  0  0  0  0
    9.4743   14.2072   23.3193 C   0  0  2  0  0  0  0  0  0  0  0  0
    8.2305   14.1953   22.4742 C   0  0  0  0  0  0  0  0  0  0  0  0
    8.6239   15.0999   21.3264 C   0  0  0  0  0  0  0  0  0  0  0  0
   10.0387   15.0765   21.1936 O   0  0  0  0  0  0  0  0  0  0  0  0
   10.5721   14.3226   22.2752 C   0  0  0  0  0  0  0  0  0  0  0  0
  1  2  1  0
  2  3  1  0
  3  4  2  0
  3  5  1  0
  5  6  2  0
  6  7  1  0
  7  8  1  0
  8  9  1  0
  9 10  1  0
  7 11  2  0
 11 12  1  0
 12 13  2  0
 13 14  1  0
 14 15  1  0
 16 14  1  6
 16 17  1  0
 17 18  1  0
 18 19  1  0
 19 20  1  0
 13  5  1  0
 20 16  1  0
 10  8  1  0
M  END
>  <energy_score>  (306) 
-32.055471

>  <inchikey>  (306) 
None

>  <smiles>  (306) 
None

>  <ref_pdb>  (306) 
A0514a

>  <alias>  (306) 
None

>  <HIPPO Pose ID>  (306) 
498229

>  <name>  (306) 
P498229

>  <HIPPO Compound ID>  (306) 
292593

>  <ref_mols>  (306) 
A4331a,A0514a

>  <distance_score>  (306) 
1.759962

>  <inspiration_score>  (306) 
None

$$$$
P498231
     RDKit          3D

 20 21  0  0  0  0  0  0  0  0999 V2000
   12.2922   15.2978   21.2352 C   0  0  0  0  0  0  0  0  0  0  0  0
   12.0430   14.3478   22.3707 C   0  0  0  0  0  0  0  0  0  0  0  0
   10.8624   14.7020   23.0793 O   0  0  0  0  0  0  0  0  0  0  0  0
    9.6723   14.4515   22.3041 C   0  0  0  0  0  0  0  0  0  0  0  0
    8.5280   14.1586   23.2710 C   0  0  0  0  0  0  0  0  0  0  0  0
    8.7536   12.8736   23.9724 N   0  0  0  0  0  0  0  0  0  0  0  0
   10.0335   12.6230   24.5354 N   0  0  0  0  0  0  0  0  0  0  0  0
    7.7175   12.4307   24.8045 C   0  0  0  0  0  0  0  0  0  0  0  0
    6.9435   13.3317   25.5275 C   0  0  0  0  0  0  0  0  0  0  0  0
    6.0144   13.0046   26.4380 N   0  0  0  0  0  0  0  0  0  0  0  0
    5.7660   11.7033   26.6666 C   0  0  0  0  0  0  0  0  0  0  0  0
    4.7830   11.3727   27.7473 C   0  0  0  0  0  0  0  0  0  0  0  0
    3.5191   12.1880   27.8753 C   0  0  0  0  0  0  0  0  0  0  0  0
    4.6127   12.3562   28.8871 C   0  0  0  0  0  0  0  0  0  0  0  0
    6.4375   10.7257   25.9614 C   0  0  0  0  0  0  0  0  0  0  0  0
    7.4369   11.0817   25.0416 C   0  0  0  0  0  0  0  0  0  0  0  0
    8.1074    9.9242   24.4116 C   0  0  0  0  0  0  0  0  0  0  0  0
    7.8142    8.7970   24.7811 O   0  0  0  0  0  0  0  0  0  0  0  0
    9.0090   10.2017   23.4485 O   0  0  0  0  0  0  0  0  0  0  0  0
    9.6233    9.0284   22.9122 C   0  0  0  0  0  0  0  0  0  0  0  0
  1  2  1  0
  2  3  1  0
  3  4  1  0
  4  5  1  0
  5  6  1  0
  6  7  1  0
  6  8  1  0
  8  9  2  0
  9 10  1  0
 10 11  2  0
 11 12  1  0
 12 13  1  0
 13 14  1  0
 11 15  1  0
 15 16  2  0
 16 17  1  0
 17 18  2  0
 17 19  1  0
 19 20  1  0
 16  8  1  0
 14 12  1  0
M  END
>  <energy_score>  (307) 
-35.60164

>  <inchikey>  (307) 
None

>  <smiles>  (307) 
None

>  <ref_pdb>  (307) 
A0514a

>  <alias>  (307) 
None

>  <HIPPO Pose ID>  (307) 
498231

>  <name>  (307) 
P498231

>  <HIPPO Compound ID>  (307) 
292594

>  <ref_mols>  (307) 
A4331a,A0514a

>  <distance_score>  (307) 
1.369543

>  <inspiration_score>  (307) 
None

$$$$
P498234
     RDKit          3D

 20 22  0  0  0  0  0  0  0  0999 V2000
    9.2114    8.5492   23.0277 C   0  0  0  0  0  0  0  0  0  0  0  0
    8.4669    9.4513   23.8511 O   0  0  0  0  0  0  0  0  0  0  0  0
    9.0228   10.6828   23.9172 C   0  0  0  0  0  0  0  0  0  0  0  0
   10.0745   10.9912   23.3815 O   0  0  0  0  0  0  0  0  0  0  0  0
    8.2153   11.6133   24.7493 C   0  0  0  0  0  0  0  0  0  0  0  0
    7.0686   11.1621   25.4252 C   0  0  0  0  0  0  0  0  0  0  0  0
    6.3331   12.0692   26.1833 C   0  0  0  0  0  0  0  0  0  0  0  0
    5.0773   11.7436   26.9178 C   0  0  0  0  0  0  0  0  0  0  0  0
    5.0049   10.7422   28.0301 C   0  0  0  0  0  0  0  0  0  0  0  0
    4.9802   12.2035   28.3594 C   0  0  0  0  0  0  0  0  0  0  0  0
    6.6987   13.3621   26.2848 N   0  0  0  0  0  0  0  0  0  0  0  0
    7.7711   13.7822   25.6070 C   0  0  0  0  0  0  0  0  0  0  0  0
    8.5925   12.9621   24.8515 C   0  0  0  0  0  0  0  0  0  0  0  0
    9.7082   13.5791   24.2471 N   0  0  0  0  0  0  0  0  0  0  0  0
   11.0004   13.1231   24.6386 N   0  0  0  0  0  0  0  0  0  0  0  0
    9.6079   14.0112   22.9409 C   0  0  0  0  0  0  0  0  0  0  0  0
    8.4826   14.0689   22.2488 N   0  0  0  0  0  0  0  0  0  0  0  0
    8.6315   14.7327   21.0523 N   0  0  0  0  0  0  0  0  0  0  0  0
    9.8654   15.1363   20.8555 C   0  0  0  0  0  0  0  0  0  0  0  0
   10.9679   14.6216   22.0448 S   0  0  0  0  0  0  0  0  0  0  0  0
  1  2  1  0
  2  3  1  0
  3  4  2  0
  3  5  1  0
  5  6  2  0
  6  7  1  0
  7  8  1  0
  8  9  1  0
  9 10  1  0
  7 11  2  0
 11 12  1  0
 12 13  2  0
 13 14  1  0
 14 15  1  0
 14 16  1  0
 16 17  2  0
 17 18  1  0
 18 19  2  0
 19 20  1  0
 13  5  1  0
 20 16  1  0
 10  8  1  0
M  END
>  <energy_score>  (308) 
-82.466455

>  <inchikey>  (308) 
None

>  <smiles>  (308) 
None

>  <ref_pdb>  (308) 
A0514a

>  <alias>  (308) 
None

>  <HIPPO Pose ID>  (308) 
498234

>  <name>  (308) 
P498234

>  <HIPPO Compound ID>  (308) 
292597

>  <ref_mols>  (308) 
A4331a,A0514a

>  <distance_score>  (308) 
1.699253

>  <inspiration_score>  (308) 
None

$$$$
P498235
     RDKit          3D

 20 22  0  0  0  0  0  0  0  0999 V2000
    9.3907    8.3916   23.2678 C   0  0  0  0  0  0  0  0  0  0  0  0
    8.6802    9.2967   24.1134 O   0  0  0  0  0  0  0  0  0  0  0  0
    8.8981   10.5864   23.7857 C   0  0  0  0  0  0  0  0  0  0  0  0
    9.5849   10.9646   22.8512 O   0  0  0  0  0  0  0  0  0  0  0  0
    8.2298   11.5116   24.7229 C   0  0  0  0  0  0  0  0  0  0  0  0
    7.0742   11.1087   25.4092 C   0  0  0  0  0  0  0  0  0  0  0  0
    6.4031   12.0423   26.1919 C   0  0  0  0  0  0  0  0  0  0  0  0
    5.1145   11.7774   26.8944 C   0  0  0  0  0  0  0  0  0  0  0  0
    4.9907   10.8204   28.0418 C   0  0  0  0  0  0  0  0  0  0  0  0
    4.9666   12.2944   28.3115 C   0  0  0  0  0  0  0  0  0  0  0  0
    6.8537   13.3073   26.3225 N   0  0  0  0  0  0  0  0  0  0  0  0
    7.9373   13.6777   25.6290 C   0  0  0  0  0  0  0  0  0  0  0  0
    8.6954   12.8288   24.8377 C   0  0  0  0  0  0  0  0  0  0  0  0
    9.8230   13.3874   24.1883 N   0  0  0  0  0  0  0  0  0  0  0  0
   11.0589   12.6921   24.2661 N   0  0  0  0  0  0  0  0  0  0  0  0
    9.6013   14.0280   22.9879 C   0  0  0  0  0  0  0  0  0  0  0  0
    8.4149   14.4160   22.5636 N   0  0  0  0  0  0  0  0  0  0  0  0
    8.5948   15.2175   21.4580 C   0  0  0  0  0  0  0  0  0  0  0  0
    9.7883   15.3582   20.9006 N   0  0  0  0  0  0  0  0  0  0  0  0
   10.8410   14.5141   21.8672 S   0  0  0  0  0  0  0  0  0  0  0  0
  1  2  1  0
  2  3  1  0
  3  4  2  0
  3  5  1  0
  5  6  2  0
  6  7  1  0
  7  8  1  0
  8  9  1  0
  9 10  1  0
  7 11  2  0
 11 12  1  0
 12 13  2  0
 13 14  1  0
 14 15  1  0
 14 16  1  0
 16 17  2  0
 17 18  1  0
 18 19  2  0
 19 20  1  0
 13  5  1  0
 20 16  1  0
 10  8  1  0
M  END
>  <energy_score>  (309) 
-80.606002

>  <inchikey>  (309) 
None

>  <smiles>  (309) 
None

>  <ref_pdb>  (309) 
A0514a

>  <alias>  (309) 
None

>  <HIPPO Pose ID>  (309) 
498235

>  <name>  (309) 
P498235

>  <HIPPO Compound ID>  (309) 
292598

>  <ref_mols>  (309) 
A4331a,A0514a

>  <distance_score>  (309) 
1.662258

>  <inspiration_score>  (309) 
None

$$$$
P498238
     RDKit          3D

 20 21  0  0  0  0  0  0  0  0999 V2000
   10.5241   15.9476   18.9795 C   0  0  0  0  0  0  0  0  0  0  0  0
   10.7680   15.2542   20.1946 O   0  0  0  0  0  0  0  0  0  0  0  0
    9.6200   15.2075   21.0333 C   0  0  0  0  0  0  0  0  0  0  0  0
   10.0044   14.3260   22.2022 C   0  0  0  0  0  0  0  0  0  0  0  0
    8.8227   13.9528   23.0832 C   0  0  0  0  0  0  0  0  0  0  0  0
    9.2673   13.0338   24.1729 N   0  0  0  0  0  0  0  0  0  0  0  0
   10.3426   13.5405   24.9777 N   0  0  0  0  0  0  0  0  0  0  0  0
    8.1447   12.6251   24.9389 C   0  0  0  0  0  0  0  0  0  0  0  0
    7.4755   13.5564   25.7288 C   0  0  0  0  0  0  0  0  0  0  0  0
    6.4491   13.2833   26.5514 N   0  0  0  0  0  0  0  0  0  0  0  0
    5.9862   12.0205   26.6132 C   0  0  0  0  0  0  0  0  0  0  0  0
    4.8580   11.7359   27.5587 C   0  0  0  0  0  0  0  0  0  0  0  0
    3.5890   12.5451   27.4518 C   0  0  0  0  0  0  0  0  0  0  0  0
    4.5086   12.7639   28.6144 C   0  0  0  0  0  0  0  0  0  0  0  0
    6.5659   11.0245   25.8536 C   0  0  0  0  0  0  0  0  0  0  0  0
    7.6637   11.3137   25.0234 C   0  0  0  0  0  0  0  0  0  0  0  0
    8.2249   10.1101   24.3788 C   0  0  0  0  0  0  0  0  0  0  0  0
    7.8164    9.0038   24.7075 O   0  0  0  0  0  0  0  0  0  0  0  0
    9.1724   10.3452   23.4544 O   0  0  0  0  0  0  0  0  0  0  0  0
    9.6966    9.1376   22.8971 C   0  0  0  0  0  0  0  0  0  0  0  0
  1  2  1  0
  2  3  1  0
  3  4  1  0
  4  5  1  0
  5  6  1  0
  6  7  1  0
  6  8  1  0
  8  9  2  0
  9 10  1  0
 10 11  2  0
 11 12  1  0
 12 13  1  0
 13 14  1  0
 11 15  1  0
 15 16  2  0
 16 17  1  0
 17 18  2  0
 17 19  1  0
 19 20  1  0
 16  8  1  0
 14 12  1  0
M  END
>  <energy_score>  (310) 
-25.19316

>  <inchikey>  (310) 
None

>  <smiles>  (310) 
None

>  <ref_pdb>  (310) 
A0514a

>  <alias>  (310) 
None

>  <HIPPO Pose ID>  (310) 
498238

>  <name>  (310) 
P498238

>  <HIPPO Compound ID>  (310) 
292603

>  <ref_mols>  (310) 
A4331a,A0514a

>  <distance_score>  (310) 
1.680436

>  <inspiration_score>  (310) 
None

$$$$
P498243
     RDKit          3D

 20 22  0  0  0  0  0  0  0  0999 V2000
    9.2758    8.4587   22.9434 C   0  0  0  0  0  0  0  0  0  0  0  0
    8.4348    9.2635   23.7682 O   0  0  0  0  0  0  0  0  0  0  0  0
    8.9420   10.4997   23.9711 C   0  0  0  0  0  0  0  0  0  0  0  0
   10.0181   10.8866   23.5501 O   0  0  0  0  0  0  0  0  0  0  0  0
    8.0114   11.3196   24.7884 C   0  0  0  0  0  0  0  0  0  0  0  0
    6.9847   10.7223   25.5285 C   0  0  0  0  0  0  0  0  0  0  0  0
    6.2042   11.5192   26.3579 C   0  0  0  0  0  0  0  0  0  0  0  0
    5.2032   10.9492   27.3233 C   0  0  0  0  0  0  0  0  0  0  0  0
    4.0063   11.7748   27.7461 C   0  0  0  0  0  0  0  0  0  0  0  0
    5.1365   11.5712   28.7057 C   0  0  0  0  0  0  0  0  0  0  0  0
    6.3853   12.8593   26.4118 N   0  0  0  0  0  0  0  0  0  0  0  0
    7.3526   13.4190   25.6752 C   0  0  0  0  0  0  0  0  0  0  0  0
    8.2197   12.7027   24.8720 C   0  0  0  0  0  0  0  0  0  0  0  0
    9.2680   13.3452   24.1909 N   0  0  0  0  0  0  0  0  0  0  0  0
   10.2388   13.9766   25.0208 N   0  0  0  0  0  0  0  0  0  0  0  0
    8.7753   14.0574   22.9976 C   0  0  0  0  0  0  0  0  0  0  0  0
    9.8628   14.1153   21.9710 C   0  0  1  0  0  0  0  0  0  0  0  0
    9.9889   15.3112   21.0557 C   0  0  0  0  0  0  0  0  0  0  0  0
   11.0456   15.0260   22.0852 C   0  0  2  0  0  0  0  0  0  0  0  0
   12.3837   14.5597   21.7017 C   0  0  0  0  0  0  0  0  0  0  0  0
  1  2  1  0
  2  3  1  0
  3  4  2  0
  3  5  1  0
  5  6  2  0
  6  7  1  0
  7  8  1  0
  8  9  1  0
  9 10  1  0
  7 11  2  0
 11 12  1  0
 12 13  2  0
 13 14  1  0
 14 15  1  0
 14 16  1  0
 17 16  1  1
 17 18  1  0
 18 19  1  0
 19 20  1  6
 13  5  1  0
 19 17  1  0
 10  8  1  0
M  END
>  <energy_score>  (311) 
-29.17369

>  <inchikey>  (311) 
None

>  <smiles>  (311) 
None

>  <ref_pdb>  (311) 
A0514a

>  <alias>  (311) 
None

>  <HIPPO Pose ID>  (311) 
498243

>  <name>  (311) 
P498243

>  <HIPPO Compound ID>  (311) 
292608

>  <ref_mols>  (311) 
A4331a,A0514a

>  <distance_score>  (311) 
1.566845

>  <inspiration_score>  (311) 
None

$$$$
P498247
     RDKit          3D

 20 21  0  0  0  0  0  0  0  0999 V2000
    9.6886    8.3384   23.3823 C   0  0  0  0  0  0  0  0  0  0  0  0
    8.7338    9.0492   24.1637 O   0  0  0  0  0  0  0  0  0  0  0  0
    8.7473   10.3553   23.8115 C   0  0  0  0  0  0  0  0  0  0  0  0
    9.4150   10.7967   22.8912 O   0  0  0  0  0  0  0  0  0  0  0  0
    7.9064   11.1744   24.7180 C   0  0  0  0  0  0  0  0  0  0  0  0
    6.9527   10.5772   25.5501 C   0  0  0  0  0  0  0  0  0  0  0  0
    6.2116   11.3797   26.4084 C   0  0  0  0  0  0  0  0  0  0  0  0
    5.2474   10.8254   27.4186 C   0  0  0  0  0  0  0  0  0  0  0  0
    4.0359   11.6382   27.8254 C   0  0  0  0  0  0  0  0  0  0  0  0
    5.1848   11.5030   28.7749 C   0  0  0  0  0  0  0  0  0  0  0  0
    6.3854   12.7192   26.4315 N   0  0  0  0  0  0  0  0  0  0  0  0
    7.2754   13.2743   25.5993 C   0  0  0  0  0  0  0  0  0  0  0  0
    8.0711   12.5669   24.7153 C   0  0  0  0  0  0  0  0  0  0  0  0
    8.9925   13.2141   23.8867 N   0  0  0  0  0  0  0  0  0  0  0  0
   10.3556   13.0233   24.2809 N   0  0  0  0  0  0  0  0  0  0  0  0
    8.5741   14.4538   23.1786 C   0  0  2  0  0  0  0  0  0  0  0  0
    7.2422   14.2991   22.4520 C   0  0  0  0  0  0  0  0  0  0  0  0
    9.6141   14.9032   22.1301 C   0  0  0  0  0  0  0  0  0  0  0  0
    9.7436   13.9821   21.1553 F   0  0  0  0  0  0  0  0  0  0  0  0
   10.8344   15.0285   22.7264 F   0  0  0  0  0  0  0  0  0  0  0  0
  1  2  1  0
  2  3  1  0
  3  4  2  0
  3  5  1  0
  5  6  2  0
  6  7  1  0
  7  8  1  0
  8  9  1  0
  9 10  1  0
  7 11  2  0
 11 12  1  0
 12 13  2  0
 13 14  1  0
 14 15  1  0
 14 16  1  0
 16 17  1  6
 16 18  1  0
 18 19  1  0
 18 20  1  0
 13  5  1  0
 10  8  1  0
M  END
>  <energy_score>  (312) 
-27.432135

>  <inchikey>  (312) 
None

>  <smiles>  (312) 
None

>  <ref_pdb>  (312) 
A0514a

>  <alias>  (312) 
None

>  <HIPPO Pose ID>  (312) 
498247

>  <name>  (312) 
P498247

>  <HIPPO Compound ID>  (312) 
292611

>  <ref_mols>  (312) 
A4331a,A0514a

>  <distance_score>  (312) 
1.385627

>  <inspiration_score>  (312) 
None

$$$$
P498251
     RDKit          3D

 20 22  0  0  0  0  0  0  0  0999 V2000
    9.2559    8.5371   22.9573 C   0  0  0  0  0  0  0  0  0  0  0  0
    8.5006    9.4882   23.7055 O   0  0  0  0  0  0  0  0  0  0  0  0
    9.1414   10.6691   23.8253 C   0  0  0  0  0  0  0  0  0  0  0  0
   10.2698   10.9122   23.4342 O   0  0  0  0  0  0  0  0  0  0  0  0
    8.3507   11.6608   24.5680 C   0  0  0  0  0  0  0  0  0  0  0  0
    7.2882   11.2730   25.3907 C   0  0  0  0  0  0  0  0  0  0  0  0
    6.6409   12.2538   26.1271 C   0  0  0  0  0  0  0  0  0  0  0  0
    5.3394   12.0137   26.8261 C   0  0  0  0  0  0  0  0  0  0  0  0
    5.2124   11.2359   28.1019 C   0  0  0  0  0  0  0  0  0  0  0  0
    5.0828   12.7293   28.1348 C   0  0  0  0  0  0  0  0  0  0  0  0
    7.1098   13.5258   26.1606 N   0  0  0  0  0  0  0  0  0  0  0  0
    8.0859   13.8902   25.3051 C   0  0  0  0  0  0  0  0  0  0  0  0
    8.7221   13.0085   24.4578 C   0  0  0  0  0  0  0  0  0  0  0  0
    9.3397   13.4866   23.2660 N   0  0  0  0  0  0  0  0  0  0  0  0
    8.4062   13.8402   22.2720 C   0  0  0  0  0  0  0  0  0  0  0  0
    7.3121   13.3236   22.0871 O   0  0  0  0  0  0  0  0  0  0  0  0
    8.9502   14.9829   21.4896 C   0  0  0  0  0  0  0  0  0  0  0  0
   10.4092   14.9198   21.8537 C   0  0  0  0  0  0  0  0  0  0  0  0
   10.4150   14.4219   23.2497 N   0  0  0  0  0  0  0  0  0  0  0  0
   11.7158   13.7808   23.4325 C   0  0  0  0  0  0  0  0  0  0  0  0
  1  2  1  0
  2  3  1  0
  3  4  2  0
  3  5  1  0
  5  6  2  0
  6  7  1  0
  7  8  1  0
  8  9  1  0
  9 10  1  0
  7 11  2  0
 11 12  1  0
 12 13  2  0
 13 14  1  0
 14 15  1  0
 15 16  2  0
 15 17  1  0
 17 18  1  0
 18 19  1  0
 19 20  1  0
 13  5  1  0
 19 14  1  0
 10  8  1  0
M  END
>  <energy_score>  (313) 
-26.735629

>  <inchikey>  (313) 
None

>  <smiles>  (313) 
None

>  <ref_pdb>  (313) 
A0514a

>  <alias>  (313) 
None

>  <HIPPO Pose ID>  (313) 
498251

>  <name>  (313) 
P498251

>  <HIPPO Compound ID>  (313) 
292618

>  <ref_mols>  (313) 
A4331a,A0514a

>  <distance_score>  (313) 
1.788884

>  <inspiration_score>  (313) 
None

$$$$
P498253
     RDKit          3D

 20 21  0  0  0  0  0  0  0  0999 V2000
    9.0977    8.3400   22.8463 C   0  0  0  0  0  0  0  0  0  0  0  0
    8.1801    9.1476   23.5840 O   0  0  0  0  0  0  0  0  0  0  0  0
    8.7878   10.2476   24.0728 C   0  0  0  0  0  0  0  0  0  0  0  0
    9.9784   10.4529   23.9601 O   0  0  0  0  0  0  0  0  0  0  0  0
    7.8048   11.1340   24.7452 C   0  0  0  0  0  0  0  0  0  0  0  0
    6.8887   10.4538   25.5758 C   0  0  0  0  0  0  0  0  0  0  0  0
    5.9719   11.1619   26.3352 C   0  0  0  0  0  0  0  0  0  0  0  0
    5.1875   10.5573   27.4604 C   0  0  0  0  0  0  0  0  0  0  0  0
    4.0157   11.3012   28.0666 C   0  0  0  0  0  0  0  0  0  0  0  0
    5.3112   11.2363   28.8133 C   0  0  0  0  0  0  0  0  0  0  0  0
    5.8342   12.4814   26.1669 N   0  0  0  0  0  0  0  0  0  0  0  0
    6.6765   13.1027   25.3320 C   0  0  0  0  0  0  0  0  0  0  0  0
    7.7787   12.5388   24.6744 C   0  0  0  0  0  0  0  0  0  0  0  0
    8.6815   13.4433   24.0697 N   0  0  0  0  0  0  0  0  0  0  0  0
    8.7609   14.7208   24.6815 N   0  0  0  0  0  0  0  0  0  0  0  0
    9.8803   12.9619   23.3631 C   0  0  0  0  0  0  0  0  0  0  0  0
   10.7297   13.9805   22.5865 C   0  0  0  0  0  0  0  0  0  0  0  0
   11.6656   14.6929   23.5391 C   0  0  0  0  0  0  0  0  0  0  0  0
    9.9225   14.8554   21.6327 C   0  0  0  0  0  0  0  0  0  0  0  0
   11.7066   13.2816   21.7910 O   0  0  0  0  0  0  0  0  0  0  0  0
  1  2  1  0
  2  3  1  0
  3  4  2  0
  3  5  1  0
  5  6  2  0
  6  7  1  0
  7  8  1  0
  8  9  1  0
  9 10  1  0
  7 11  2  0
 11 12  1  0
 12 13  2  0
 13 14  1  0
 14 15  1  0
 14 16  1  0
 16 17  1  0
 17 18  1  0
 17 19  1  0
 17 20  1  0
 13  5  1  0
 10  8  1  0
M  END
>  <energy_score>  (314) 
-27.781864

>  <inchikey>  (314) 
None

>  <smiles>  (314) 
None

>  <ref_pdb>  (314) 
A0514a

>  <alias>  (314) 
None

>  <HIPPO Pose ID>  (314) 
498253

>  <name>  (314) 
P498253

>  <HIPPO Compound ID>  (314) 
292620

>  <ref_mols>  (314) 
A4331a,A0514a

>  <distance_score>  (314) 
1.623524

>  <inspiration_score>  (314) 
None

$$$$
P498255
     RDKit          3D

 20 23  0  0  0  0  0  0  0  0999 V2000
    8.8914    8.0818   22.5852 C   0  0  0  0  0  0  0  0  0  0  0  0
    8.0622    8.9136   23.3888 O   0  0  0  0  0  0  0  0  0  0  0  0
    8.8497    9.7330   24.0868 C   0  0  0  0  0  0  0  0  0  0  0  0
   10.0575    9.6114   24.1812 O   0  0  0  0  0  0  0  0  0  0  0  0
    8.0910   10.8567   24.6388 C   0  0  0  0  0  0  0  0  0  0  0  0
    7.0159   10.6160   25.5082 C   0  0  0  0  0  0  0  0  0  0  0  0
    6.3626   11.7063   26.0655 C   0  0  0  0  0  0  0  0  0  0  0  0
    5.1984   11.6405   27.0008 C   0  0  0  0  0  0  0  0  0  0  0  0
    5.1950   10.8967   28.3003 C   0  0  0  0  0  0  0  0  0  0  0  0
    5.3313   12.3891   28.3148 C   0  0  0  0  0  0  0  0  0  0  0  0
    6.7420   12.9616   25.7670 N   0  0  0  0  0  0  0  0  0  0  0  0
    7.7261   13.1528   24.8704 C   0  0  0  0  0  0  0  0  0  0  0  0
    8.4682   12.1534   24.2640 C   0  0  0  0  0  0  0  0  0  0  0  0
    9.4746   12.4210   23.2871 N   0  0  0  0  0  0  0  0  0  0  0  0
   10.7746   11.9676   23.6324 N   0  0  0  0  0  0  0  0  0  0  0  0
    9.5640   13.6015   22.5576 C   0  0  0  0  0  0  0  0  0  0  0  0
    8.5072   14.5293   21.9708 C   0  0  0  0  0  0  0  0  0  0  0  0
    9.8551   15.3287   21.8065 C   0  0  0  0  0  0  0  0  0  0  0  0
   10.5023   13.9922   21.3901 C   0  0  0  0  0  0  0  0  0  0  0  0
   10.1971   14.7809   23.2536 C   0  0  0  0  0  0  0  0  0  0  0  0
  1  2  1  0
  2  3  1  0
  3  4  2  0
  3  5  1  0
  5  6  2  0
  6  7  1  0
  7  8  1  0
  8  9  1  0
  9 10  1  0
  7 11  2  0
 11 12  1  0
 12 13  2  0
 13 14  1  0
 14 15  1  0
 14 16  1  0
 16 17  1  0
 17 18  1  0
 18 19  1  0
 18 20  1  0
 13  5  1  0
 19 16  1  0
 10  8  1  0
 20 16  1  0
M  END
>  <energy_score>  (315) 
-24.557354

>  <inchikey>  (315) 
None

>  <smiles>  (315) 
None

>  <ref_pdb>  (315) 
A0514a

>  <alias>  (315) 
None

>  <HIPPO Pose ID>  (315) 
498255

>  <name>  (315) 
P498255

>  <HIPPO Compound ID>  (315) 
292624

>  <ref_mols>  (315) 
A4331a,A0514a

>  <distance_score>  (315) 
1.399567

>  <inspiration_score>  (315) 
None

$$$$
P498256
     RDKit          3D

 20 22  0  0  0  0  0  0  0  0999 V2000
    9.3233    8.6769   23.0364 C   0  0  0  0  0  0  0  0  0  0  0  0
    8.4505    9.4562   23.8600 O   0  0  0  0  0  0  0  0  0  0  0  0
    8.9197   10.7031   24.1076 C   0  0  0  0  0  0  0  0  0  0  0  0
    9.9883   11.1315   23.7104 O   0  0  0  0  0  0  0  0  0  0  0  0
    7.9784   11.4630   24.9733 C   0  0  0  0  0  0  0  0  0  0  0  0
    6.9373   10.7957   25.6311 C   0  0  0  0  0  0  0  0  0  0  0  0
    6.1282   11.5080   26.5066 C   0  0  0  0  0  0  0  0  0  0  0  0
    5.0658   10.8573   27.3414 C   0  0  0  0  0  0  0  0  0  0  0  0
    4.9866   11.2034   28.8105 C   0  0  0  0  0  0  0  0  0  0  0  0
    3.9360   11.7183   27.8764 C   0  0  0  0  0  0  0  0  0  0  0  0
    6.3090   12.8322   26.7069 N   0  0  0  0  0  0  0  0  0  0  0  0
    7.2806   13.4661   26.0410 C   0  0  0  0  0  0  0  0  0  0  0  0
    8.1647   12.8387   25.1843 C   0  0  0  0  0  0  0  0  0  0  0  0
    9.1617   13.6008   24.5381 N   0  0  0  0  0  0  0  0  0  0  0  0
   10.1746   14.1299   25.3585 N   0  0  0  0  0  0  0  0  0  0  0  0
    8.6561   14.4810   23.4548 C   0  0  2  0  0  0  0  0  0  0  0  0
    8.1804   13.7791   22.2367 C   0  0  0  0  0  0  0  0  0  0  0  0
    9.4158   14.6400   22.1395 C   0  0  0  0  0  0  0  0  0  0  0  0
    9.2389   15.7991   21.2025 C   0  0  0  0  0  0  0  0  0  0  0  0
   10.8132   14.0914   22.1078 C   0  0  0  0  0  0  0  0  0  0  0  0
  1  2  1  0
  2  3  1  0
  3  4  2  0
  3  5  1  0
  5  6  2  0
  6  7  1  0
  7  8  1  0
  8  9  1  0
  9 10  1  0
  7 11  2  0
 11 12  1  0
 12 13  2  0
 13 14  1  0
 14 15  1  0
 16 14  1  1
 16 17  1  0
 17 18  1  0
 18 19  1  0
 18 20  1  0
 13  5  1  0
 18 16  1  0
 10  8  1  0
M  END
>  <energy_score>  (316) 
-34.245276

>  <inchikey>  (316) 
None

>  <smiles>  (316) 
None

>  <ref_pdb>  (316) 
A0514a

>  <alias>  (316) 
None

>  <HIPPO Pose ID>  (316) 
498256

>  <name>  (316) 
P498256

>  <HIPPO Compound ID>  (316) 
292625

>  <ref_mols>  (316) 
A4331a,A0514a

>  <distance_score>  (316) 
1.642964

>  <inspiration_score>  (316) 
None

$$$$
P498259
     RDKit          3D

 20 22  0  0  0  0  0  0  0  0999 V2000
    9.5856    8.2436   23.3762 C   0  0  0  0  0  0  0  0  0  0  0  0
    8.7529    9.0301   24.2230 O   0  0  0  0  0  0  0  0  0  0  0  0
    8.7813   10.3070   23.7943 C   0  0  0  0  0  0  0  0  0  0  0  0
    9.3456   10.6649   22.7789 O   0  0  0  0  0  0  0  0  0  0  0  0
    8.0825   11.2245   24.7051 C   0  0  0  0  0  0  0  0  0  0  0  0
    6.9851   10.7739   25.4473 C   0  0  0  0  0  0  0  0  0  0  0  0
    6.3547   11.6612   26.3087 C   0  0  0  0  0  0  0  0  0  0  0  0
    5.2294   11.2519   27.2194 C   0  0  0  0  0  0  0  0  0  0  0  0
    4.0615   12.1918   27.4297 C   0  0  0  0  0  0  0  0  0  0  0  0
    5.0586   11.9999   28.5286 C   0  0  0  0  0  0  0  0  0  0  0  0
    6.7749   12.9446   26.4099 N   0  0  0  0  0  0  0  0  0  0  0  0
    7.8271   13.3535   25.6820 C   0  0  0  0  0  0  0  0  0  0  0  0
    8.5493   12.5387   24.8331 C   0  0  0  0  0  0  0  0  0  0  0  0
    9.7069   13.0219   24.1921 N   0  0  0  0  0  0  0  0  0  0  0  0
   10.7499   13.5295   24.9795 N   0  0  0  0  0  0  0  0  0  0  0  0
    9.6266   13.3848   22.7609 C   0  0  1  0  0  0  0  0  0  0  0  0
    8.6445   14.4546   22.3524 C   0  0  0  0  0  0  0  0  0  0  0  0
   10.0929   14.6585   22.1596 C   0  0  0  0  0  0  0  0  0  0  0  0
   11.0009   15.3046   22.9557 F   0  0  0  0  0  0  0  0  0  0  0  0
   10.5663   14.7193   20.8756 F   0  0  0  0  0  0  0  0  0  0  0  0
  1  2  1  0
  2  3  1  0
  3  4  2  0
  3  5  1  0
  5  6  2  0
  6  7  1  0
  7  8  1  0
  8  9  1  0
  9 10  1  0
  7 11  2  0
 11 12  1  0
 12 13  2  0
 13 14  1  0
 14 15  1  0
 16 14  1  1
 16 17  1  0
 17 18  1  0
 18 19  1  0
 18 20  1  0
 13  5  1  0
 18 16  1  0
 10  8  1  0
M  END
>  <energy_score>  (317) 
-31.856987

>  <inchikey>  (317) 
None

>  <smiles>  (317) 
None

>  <ref_pdb>  (317) 
A0514a

>  <alias>  (317) 
None

>  <HIPPO Pose ID>  (317) 
498259

>  <name>  (317) 
P498259

>  <HIPPO Compound ID>  (317) 
292626

>  <ref_mols>  (317) 
A4331a,A0514a

>  <distance_score>  (317) 
1.34094

>  <inspiration_score>  (317) 
None

$$$$
P498261
     RDKit          3D

 20 21  0  0  0  0  0  0  0  0999 V2000
    9.3497    8.5776   22.9728 C   0  0  0  0  0  0  0  0  0  0  0  0
    8.4533    9.3412   23.7790 O   0  0  0  0  0  0  0  0  0  0  0  0
    8.8546   10.6205   23.9632 C   0  0  0  0  0  0  0  0  0  0  0  0
    9.8893   11.0958   23.5278 O   0  0  0  0  0  0  0  0  0  0  0  0
    7.8881   11.3451   24.8303 C   0  0  0  0  0  0  0  0  0  0  0  0
    6.9300   10.6390   25.5735 C   0  0  0  0  0  0  0  0  0  0  0  0
    6.1559   11.3232   26.5018 C   0  0  0  0  0  0  0  0  0  0  0  0
    5.1842   10.6488   27.4253 C   0  0  0  0  0  0  0  0  0  0  0  0
    3.9718   11.4107   27.9216 C   0  0  0  0  0  0  0  0  0  0  0  0
    5.1136   11.1537   28.8539 C   0  0  0  0  0  0  0  0  0  0  0  0
    6.3219   12.6466   26.7002 N   0  0  0  0  0  0  0  0  0  0  0  0
    7.2142   13.3082   25.9572 C   0  0  0  0  0  0  0  0  0  0  0  0
    8.0055   12.7331   24.9799 C   0  0  0  0  0  0  0  0  0  0  0  0
    8.8932   13.5116   24.2246 N   0  0  0  0  0  0  0  0  0  0  0  0
   10.0613   13.9126   24.9537 N   0  0  0  0  0  0  0  0  0  0  0  0
    8.2986   14.4684   23.2221 C   0  0  0  0  0  0  0  0  0  0  0  0
    7.2142   13.8416   22.3667 C   0  0  0  0  0  0  0  0  0  0  0  0
    7.5309   15.6207   23.9008 C   0  0  0  0  0  0  0  0  0  0  0  0
    9.4329   14.8018   22.1896 C   0  0  0  0  0  0  0  0  0  0  0  0
    8.9913   15.5619   21.0757 O   0  0  0  0  0  0  0  0  0  0  0  0
  1  2  1  0
  2  3  1  0
  3  4  2  0
  3  5  1  0
  5  6  2  0
  6  7  1  0
  7  8  1  0
  8  9  1  0
  9 10  1  0
  7 11  2  0
 11 12  1  0
 12 13  2  0
 13 14  1  0
 14 15  1  0
 14 16  1  0
 16 17  1  0
 16 18  1  0
 16 19  1  0
 19 20  1  0
 13  5  1  0
 10  8  1  0
M  END
>  <energy_score>  (318) 
-26.064189

>  <inchikey>  (318) 
None

>  <smiles>  (318) 
None

>  <ref_pdb>  (318) 
A0514a

>  <alias>  (318) 
None

>  <HIPPO Pose ID>  (318) 
498261

>  <name>  (318) 
P498261

>  <HIPPO Compound ID>  (318) 
292628

>  <ref_mols>  (318) 
A4331a,A0514a

>  <distance_score>  (318) 
1.56272

>  <inspiration_score>  (318) 
None

$$$$
P498266
     RDKit          3D

 20 21  0  0  0  0  0  0  0  0999 V2000
    9.4211    8.4087   23.1443 C   0  0  0  0  0  0  0  0  0  0  0  0
    8.6437    9.2043   24.0396 O   0  0  0  0  0  0  0  0  0  0  0  0
    8.7380   10.5299   23.8086 C   0  0  0  0  0  0  0  0  0  0  0  0
    9.3958   11.0529   22.9268 O   0  0  0  0  0  0  0  0  0  0  0  0
    7.9217   11.2900   24.7800 C   0  0  0  0  0  0  0  0  0  0  0  0
    6.9090   10.6725   25.5208 C   0  0  0  0  0  0  0  0  0  0  0  0
    6.1896   11.4315   26.4362 C   0  0  0  0  0  0  0  0  0  0  0  0
    5.1202   10.8505   27.3144 C   0  0  0  0  0  0  0  0  0  0  0  0
    5.0630   11.2604   28.7683 C   0  0  0  0  0  0  0  0  0  0  0  0
    4.0230   11.7709   27.8204 C   0  0  0  0  0  0  0  0  0  0  0  0
    6.4534   12.7462   26.6192 N   0  0  0  0  0  0  0  0  0  0  0  0
    7.4042   13.3248   25.8784 C   0  0  0  0  0  0  0  0  0  0  0  0
    8.1790   12.6544   24.9464 C   0  0  0  0  0  0  0  0  0  0  0  0
    9.2145   13.3175   24.2583 N   0  0  0  0  0  0  0  0  0  0  0  0
   10.2492   13.7394   25.1771 N   0  0  0  0  0  0  0  0  0  0  0  0
    8.7363   14.3541   23.2888 C   0  0  2  0  0  0  0  0  0  0  0  0
    7.3716   14.1202   22.6415 C   0  0  0  0  0  0  0  0  0  0  0  0
    9.7267   14.5419   22.1163 C   0  0  0  0  0  0  0  0  0  0  0  0
   11.1108   14.7030   22.5368 C   0  0  0  0  0  0  0  0  0  0  0  0
   12.1760   14.7647   22.9919 N   0  0  0  0  0  0  0  0  0  0  0  0
  1  2  1  0
  2  3  1  0
  3  4  2  0
  3  5  1  0
  5  6  2  0
  6  7  1  0
  7  8  1  0
  8  9  1  0
  9 10  1  0
  7 11  2  0
 11 12  1  0
 12 13  2  0
 13 14  1  0
 14 15  1  0
 14 16  1  0
 16 17  1  6
 16 18  1  0
 18 19  1  0
 19 20  3  0
 13  5  1  0
 10  8  1  0
M  END
>  <energy_score>  (319) 
-39.222661

>  <inchikey>  (319) 
None

>  <smiles>  (319) 
None

>  <ref_pdb>  (319) 
A0514a

>  <alias>  (319) 
None

>  <HIPPO Pose ID>  (319) 
498266

>  <name>  (319) 
P498266

>  <HIPPO Compound ID>  (319) 
292633

>  <ref_mols>  (319) 
A4331a,A0514a

>  <distance_score>  (319) 
1.546858

>  <inspiration_score>  (319) 
None

$$$$
P498275
     RDKit          3D

 21 23  0  0  0  0  0  0  0  0999 V2000
    9.5537    8.6910   22.9766 C   0  0  0  0  0  0  0  0  0  0  0  0
    8.8141    9.6165   23.7673 O   0  0  0  0  0  0  0  0  0  0  0  0
    9.1937   10.9080   23.6272 C   0  0  0  0  0  0  0  0  0  0  0  0
   10.0893   11.3119   22.9122 O   0  0  0  0  0  0  0  0  0  0  0  0
    8.4096   11.7732   24.5295 C   0  0  0  0  0  0  0  0  0  0  0  0
    7.4458   11.1972   25.3807 C   0  0  0  0  0  0  0  0  0  0  0  0
    6.7432   12.0018   26.2647 C   0  0  0  0  0  0  0  0  0  0  0  0
    5.6735   11.4577   27.1766 C   0  0  0  0  0  0  0  0  0  0  0  0
    4.3925   12.2402   27.3666 C   0  0  0  0  0  0  0  0  0  0  0  0
    5.3940   12.1835   28.4776 C   0  0  0  0  0  0  0  0  0  0  0  0
    7.0277   13.3213   26.3576 N   0  0  0  0  0  0  0  0  0  0  0  0
    7.8919   13.8676   25.4775 C   0  0  0  0  0  0  0  0  0  0  0  0
    8.6227   13.1582   24.5394 C   0  0  0  0  0  0  0  0  0  0  0  0
    9.0570   13.9160   23.4162 N   0  0  0  0  0  0  0  0  0  0  0  0
   10.4059   14.1790   23.2523 N   0  0  0  0  0  0  0  0  0  0  0  0
   10.7778   14.7394   22.1303 C   0  0  0  0  0  0  0  0  0  0  0  0
   12.2298   14.8748   21.7904 C   0  0  0  0  0  0  0  0  0  0  0  0
    9.8618   15.3245   21.1052 C   0  0  0  0  0  0  0  0  0  0  0  0
    8.4226   15.0867   21.3960 C   0  0  0  0  0  0  0  0  0  0  0  0
    8.1587   14.0035   22.3691 C   0  0  0  0  0  0  0  0  0  0  0  0
    7.1495   13.3072   22.2582 O   0  0  0  0  0  0  0  0  0  0  0  0
  1  2  1  0
  2  3  1  0
  3  4  2  0
  3  5  1  0
  5  6  2  0
  6  7  1  0
  7  8  1  0
  8  9  1  0
  9 10  1  0
  7 11  2  0
 11 12  1  0
 12 13  2  0
 13 14  1  0
 14 15  1  0
 15 16  2  0
 16 17  1  0
 16 18  1  0
 18 19  1  0
 19 20  1  0
 20 21  2  0
 13  5  1  0
 20 14  1  0
 10  8  1  0
M  END
>  <energy_score>  (320) 
-22.126354

>  <inchikey>  (320) 
None

>  <smiles>  (320) 
None

>  <ref_pdb>  (320) 
A0514a

>  <alias>  (320) 
None

>  <HIPPO Pose ID>  (320) 
498275

>  <name>  (320) 
P498275

>  <HIPPO Compound ID>  (320) 
292639

>  <ref_mols>  (320) 
A4331a,A0514a

>  <distance_score>  (320) 
1.937078

>  <inspiration_score>  (320) 
None

$$$$
P498286
     RDKit          3D

 21 23  0  0  0  0  0  0  0  0999 V2000
    9.6677    8.5649   23.4074 C   0  0  0  0  0  0  0  0  0  0  0  0
    8.6886    9.2514   24.1892 O   0  0  0  0  0  0  0  0  0  0  0  0
    8.7255   10.5831   23.9536 C   0  0  0  0  0  0  0  0  0  0  0  0
    9.4045   11.1183   23.0955 O   0  0  0  0  0  0  0  0  0  0  0  0
    7.8584   11.3215   24.9037 C   0  0  0  0  0  0  0  0  0  0  0  0
    6.8413   10.6642   25.6023 C   0  0  0  0  0  0  0  0  0  0  0  0
    6.0789   11.3880   26.5112 C   0  0  0  0  0  0  0  0  0  0  0  0
    5.0823   10.7477   27.4329 C   0  0  0  0  0  0  0  0  0  0  0  0
    3.8746   11.5350   27.8975 C   0  0  0  0  0  0  0  0  0  0  0  0
    5.0011   11.2836   28.8497 C   0  0  0  0  0  0  0  0  0  0  0  0
    6.2628   12.7176   26.6822 N   0  0  0  0  0  0  0  0  0  0  0  0
    7.2336   13.3325   26.0004 C   0  0  0  0  0  0  0  0  0  0  0  0
    8.0921   12.6870   25.1303 C   0  0  0  0  0  0  0  0  0  0  0  0
    9.1548   13.3923   24.5276 N   0  0  0  0  0  0  0  0  0  0  0  0
    9.9359   14.2159   25.3992 N   0  0  0  0  0  0  0  0  0  0  0  0
    8.6697   14.0008   23.2588 C   0  0  0  0  0  0  0  0  0  0  0  0
    9.7396   14.4235   22.3074 C   0  0  0  0  0  0  0  0  0  0  0  0
    9.5051   15.2723   21.1861 C   0  0  0  0  0  0  0  0  0  0  0  0
   10.6422   15.4861   20.4462 C   0  0  0  0  0  0  0  0  0  0  0  0
   12.0196   14.8082   21.1903 S   0  0  0  0  0  0  0  0  0  0  0  0
   11.0666   14.0451   22.3697 C   0  0  0  0  0  0  0  0  0  0  0  0
  1  2  1  0
  2  3  1  0
  3  4  2  0
  3  5  1  0
  5  6  2  0
  6  7  1  0
  7  8  1  0
  8  9  1  0
  9 10  1  0
  7 11  2  0
 11 12  1  0
 12 13  2  0
 13 14  1  0
 14 15  1  0
 14 16  1  0
 16 17  1  0
 17 18  1  0
 18 19  2  0
 19 20  1  0
 20 21  1  0
 13  5  1  0
 21 17  2  0
 10  8  1  0
M  END
>  <energy_score>  (321) 
-41.045685

>  <inchikey>  (321) 
None

>  <smiles>  (321) 
None

>  <ref_pdb>  (321) 
A0514a

>  <alias>  (321) 
None

>  <HIPPO Pose ID>  (321) 
498286

>  <name>  (321) 
P498286

>  <HIPPO Compound ID>  (321) 
292658

>  <ref_mols>  (321) 
A4331a,A0514a

>  <distance_score>  (321) 
1.435738

>  <inspiration_score>  (321) 
None

$$$$
P498293
     RDKit          3D

 21 23  0  0  0  0  0  0  0  0999 V2000
    9.5687    9.2375   23.0619 C   0  0  0  0  0  0  0  0  0  0  0  0
    9.1064   10.4825   23.6024 O   0  0  0  0  0  0  0  0  0  0  0  0
    7.9830   10.3813   24.3391 C   0  0  0  0  0  0  0  0  0  0  0  0
    7.3294    9.3707   24.5517 O   0  0  0  0  0  0  0  0  0  0  0  0
    7.6352   11.6494   24.9979 C   0  0  0  0  0  0  0  0  0  0  0  0
    6.8641   11.4943   26.1498 C   0  0  0  0  0  0  0  0  0  0  0  0
    6.5492   12.5874   26.9376 C   0  0  0  0  0  0  0  0  0  0  0  0
    5.6224   12.4388   28.1008 C   0  0  0  0  0  0  0  0  0  0  0  0
    4.1373   12.3585   27.8425 C   0  0  0  0  0  0  0  0  0  0  0  0
    4.7167   13.5918   28.4669 C   0  0  0  0  0  0  0  0  0  0  0  0
    7.0442   13.8036   26.6619 N   0  0  0  0  0  0  0  0  0  0  0  0
    7.6702   13.9526   25.4821 C   0  0  0  0  0  0  0  0  0  0  0  0
    7.9670   12.9325   24.5805 C   0  0  0  0  0  0  0  0  0  0  0  0
    8.3031   13.2773   23.2451 N   0  0  0  0  0  0  0  0  0  0  0  0
    7.2533   14.0607   22.7014 N   0  0  0  0  0  0  0  0  0  0  0  0
    9.5834   13.7978   22.8425 C   0  0  0  0  0  0  0  0  0  0  0  0
   10.7127   13.5720   23.6024 C   0  0  0  0  0  0  0  0  0  0  0  0
   11.8833   14.1115   23.1296 C   0  0  0  0  0  0  0  0  0  0  0  0
   11.9766   14.8425   22.0126 N   0  0  0  0  0  0  0  0  0  0  0  0
   10.8413   14.9811   21.3182 C   0  0  0  0  0  0  0  0  0  0  0  0
    9.6436   14.5015   21.6843 N   0  0  0  0  0  0  0  0  0  0  0  0
  1  2  1  0
  2  3  1  0
  3  4  2  0
  3  5  1  0
  5  6  2  0
  6  7  1  0
  7  8  1  0
  8  9  1  0
  9 10  1  0
  7 11  2  0
 11 12  1  0
 12 13  2  0
 13 14  1  0
 14 15  1  0
 14 16  1  0
 16 17  2  0
 17 18  1  0
 18 19  2  0
 19 20  1  0
 20 21  2  0
 13  5  1  0
 21 16  1  0
 10  8  1  0
M  END
>  <energy_score>  (322) 
-29.47791

>  <inchikey>  (322) 
None

>  <smiles>  (322) 
None

>  <ref_pdb>  (322) 
A0514a

>  <alias>  (322) 
None

>  <HIPPO Pose ID>  (322) 
498293

>  <name>  (322) 
P498293

>  <HIPPO Compound ID>  (322) 
292665

>  <ref_mols>  (322) 
A4331a,A0514a

>  <distance_score>  (322) 
1.942439

>  <inspiration_score>  (322) 
None

$$$$
P498296
     RDKit          3D

 21 23  0  0  0  0  0  0  0  0999 V2000
    9.5837    9.0503   22.9911 C   0  0  0  0  0  0  0  0  0  0  0  0
    8.9762   10.2953   23.3319 O   0  0  0  0  0  0  0  0  0  0  0  0
    8.0776   10.2093   24.3301 C   0  0  0  0  0  0  0  0  0  0  0  0
    7.7605    9.1854   24.9204 O   0  0  0  0  0  0  0  0  0  0  0  0
    7.4607   11.5138   24.6812 C   0  0  0  0  0  0  0  0  0  0  0  0
    6.4435   11.4201   25.6283 C   0  0  0  0  0  0  0  0  0  0  0  0
    5.8685   12.5647   26.1421 C   0  0  0  0  0  0  0  0  0  0  0  0
    4.9061   12.4626   27.2903 C   0  0  0  0  0  0  0  0  0  0  0  0
    3.5864   13.1805   27.2258 C   0  0  0  0  0  0  0  0  0  0  0  0
    4.6565   13.6763   28.1553 C   0  0  0  0  0  0  0  0  0  0  0  0
    6.1947   13.7786   25.6552 N   0  0  0  0  0  0  0  0  0  0  0  0
    7.1555   13.8559   24.7126 C   0  0  0  0  0  0  0  0  0  0  0  0
    7.9202   12.7837   24.2751 C   0  0  0  0  0  0  0  0  0  0  0  0
    9.2693   12.9574   23.8919 N   0  0  0  0  0  0  0  0  0  0  0  0
   10.0438   12.7750   25.0809 N   0  0  0  0  0  0  0  0  0  0  0  0
    9.7721   14.1577   23.1879 C   0  0  2  0  0  0  0  0  0  0  0  0
    9.0637   14.5468   21.9001 C   0  0  0  0  0  0  0  0  0  0  0  0
   10.0625   14.8350   20.7900 C   0  0  0  0  0  0  0  0  0  0  0  0
   11.3375   15.5472   21.1909 C   0  0  0  0  0  0  0  0  0  0  0  0
   11.8471   15.2170   22.4748 O   0  0  0  0  0  0  0  0  0  0  0  0
   11.3010   14.0098   22.9678 C   0  0  0  0  0  0  0  0  0  0  0  0
  1  2  1  0
  2  3  1  0
  3  4  2  0
  3  5  1  0
  5  6  2  0
  6  7  1  0
  7  8  1  0
  8  9  1  0
  9 10  1  0
  7 11  2  0
 11 12  1  0
 12 13  2  0
 13 14  1  0
 14 15  1  0
 16 14  1  6
 16 17  1  0
 17 18  1  0
 18 19  1  0
 19 20  1  0
 20 21  1  0
 13  5  1  0
 21 16  1  0
 10  8  1  0
M  END
>  <energy_score>  (323) 
-12.558411

>  <inchikey>  (323) 
None

>  <smiles>  (323) 
None

>  <ref_pdb>  (323) 
A0514a

>  <alias>  (323) 
None

>  <HIPPO Pose ID>  (323) 
498296

>  <name>  (323) 
P498296

>  <HIPPO Compound ID>  (323) 
292670

>  <ref_mols>  (323) 
A4331a,A0514a

>  <distance_score>  (323) 
1.847241

>  <inspiration_score>  (323) 
None

$$$$
P498301
     RDKit          3D

 21 23  0  0  0  0  0  0  0  0999 V2000
    9.3148    8.5099   22.9404 C   0  0  0  0  0  0  0  0  0  0  0  0
    8.5248    9.3461   23.7851 O   0  0  0  0  0  0  0  0  0  0  0  0
    9.0118   10.6025   23.9013 C   0  0  0  0  0  0  0  0  0  0  0  0
   10.0527   10.9916   23.3974 O   0  0  0  0  0  0  0  0  0  0  0  0
    8.1258   11.4297   24.7660 C   0  0  0  0  0  0  0  0  0  0  0  0
    7.0776   10.8229   25.4777 C   0  0  0  0  0  0  0  0  0  0  0  0
    6.2815   11.5977   26.3133 C   0  0  0  0  0  0  0  0  0  0  0  0
    5.2643   11.0028   27.2473 C   0  0  0  0  0  0  0  0  0  0  0  0
    4.0672   11.8216   27.6836 C   0  0  0  0  0  0  0  0  0  0  0  0
    5.1854   11.5808   28.6481 C   0  0  0  0  0  0  0  0  0  0  0  0
    6.4577   12.9347   26.3969 N   0  0  0  0  0  0  0  0  0  0  0  0
    7.4351   13.5070   25.6798 C   0  0  0  0  0  0  0  0  0  0  0  0
    8.3434   12.8102   24.9005 C   0  0  0  0  0  0  0  0  0  0  0  0
    9.3983   13.5588   24.3195 N   0  0  0  0  0  0  0  0  0  0  0  0
   10.6897   13.1458   24.7039 N   0  0  0  0  0  0  0  0  0  0  0  0
    9.2192   13.9532   23.0136 C   0  0  0  0  0  0  0  0  0  0  0  0
    8.0776   13.9009   22.3433 N   0  0  0  0  0  0  0  0  0  0  0  0
    8.2387   14.5461   21.1496 N   0  0  0  0  0  0  0  0  0  0  0  0
    9.4749   14.9631   21.0858 C   0  0  0  0  0  0  0  0  0  0  0  0
   10.1501   14.5465   22.1906 N   0  0  0  0  0  0  0  0  0  0  0  0
   11.5583   14.7429   22.3561 C   0  0  0  0  0  0  0  0  0  0  0  0
  1  2  1  0
  2  3  1  0
  3  4  2  0
  3  5  1  0
  5  6  2  0
  6  7  1  0
  7  8  1  0
  8  9  1  0
  9 10  1  0
  7 11  2  0
 11 12  1  0
 12 13  2  0
 13 14  1  0
 14 15  1  0
 14 16  1  0
 16 17  2  0
 17 18  1  0
 18 19  2  0
 19 20  1  0
 20 21  1  0
 13  5  1  0
 20 16  1  0
 10  8  1  0
M  END
>  <energy_score>  (324) 
-25.200963

>  <inchikey>  (324) 
None

>  <smiles>  (324) 
None

>  <ref_pdb>  (324) 
A0514a

>  <alias>  (324) 
None

>  <HIPPO Pose ID>  (324) 
498301

>  <name>  (324) 
P498301

>  <HIPPO Compound ID>  (324) 
292674

>  <ref_mols>  (324) 
A4331a,A0514a

>  <distance_score>  (324) 
1.436591

>  <inspiration_score>  (324) 
None

$$$$
P498302
     RDKit          3D

 21 23  0  0  0  0  0  0  0  0999 V2000
    9.2500    8.5628   22.9578 C   0  0  0  0  0  0  0  0  0  0  0  0
    8.3644    9.4548   23.6342 O   0  0  0  0  0  0  0  0  0  0  0  0
    8.9238   10.6651   23.8561 C   0  0  0  0  0  0  0  0  0  0  0  0
   10.0811   10.9570   23.6240 O   0  0  0  0  0  0  0  0  0  0  0  0
    7.9707   11.5710   24.5172 C   0  0  0  0  0  0  0  0  0  0  0  0
    7.2472   11.0240   25.5870 C   0  0  0  0  0  0  0  0  0  0  0  0
    6.4169   11.8234   26.3590 C   0  0  0  0  0  0  0  0  0  0  0  0
    5.6186   11.2787   27.5111 C   0  0  0  0  0  0  0  0  0  0  0  0
    4.2794   11.8930   27.8501 C   0  0  0  0  0  0  0  0  0  0  0  0
    5.4577   12.1466   28.7417 C   0  0  0  0  0  0  0  0  0  0  0  0
    6.3196   13.1346   26.1131 N   0  0  0  0  0  0  0  0  0  0  0  0
    6.9348   13.6077   25.0179 C   0  0  0  0  0  0  0  0  0  0  0  0
    7.7843   12.9062   24.1541 C   0  0  0  0  0  0  0  0  0  0  0  0
    8.2534   13.5468   22.9931 N   0  0  0  0  0  0  0  0  0  0  0  0
    7.3709   14.5215   22.5040 N   0  0  0  0  0  0  0  0  0  0  0  0
    9.7076   13.6220   22.6478 C   0  0  1  0  0  0  0  0  0  0  0  0
    9.9591   14.6663   21.5372 C   0  0  0  0  0  0  0  0  0  0  0  0
   11.3944   14.7615   21.0596 C   0  0  0  0  0  0  0  0  0  0  0  0
   12.3798   15.0475   22.1622 C   0  0  0  0  0  0  0  0  0  0  0  0
   12.3207   13.8367   23.5211 S   0  0  0  0  0  0  0  0  0  0  0  0
   10.5621   13.8623   23.8863 C   0  0  0  0  0  0  0  0  0  0  0  0
  1  2  1  0
  2  3  1  0
  3  4  2  0
  3  5  1  0
  5  6  2  0
  6  7  1  0
  7  8  1  0
  8  9  1  0
  9 10  1  0
  7 11  2  0
 11 12  1  0
 12 13  2  0
 13 14  1  0
 14 15  1  0
 16 14  1  1
 16 17  1  0
 17 18  1  0
 18 19  1  0
 19 20  1  0
 20 21  1  0
 13  5  1  0
 21 16  1  0
 10  8  1  0
M  END
>  <energy_score>  (325) 
-43.75715

>  <inchikey>  (325) 
None

>  <smiles>  (325) 
None

>  <ref_pdb>  (325) 
A0514a

>  <alias>  (325) 
None

>  <HIPPO Pose ID>  (325) 
498302

>  <name>  (325) 
P498302

>  <HIPPO Compound ID>  (325) 
292676

>  <ref_mols>  (325) 
A4331a,A0514a

>  <distance_score>  (325) 
1.893868

>  <inspiration_score>  (325) 
None

$$$$
P498303
     RDKit          3D

 21 23  0  0  0  0  0  0  0  0999 V2000
    9.2166    8.3437   22.8867 C   0  0  0  0  0  0  0  0  0  0  0  0
    8.3897    9.1538   23.7168 O   0  0  0  0  0  0  0  0  0  0  0  0
    8.9850   10.3247   23.9976 C   0  0  0  0  0  0  0  0  0  0  0  0
   10.1296   10.6384   23.7040 O   0  0  0  0  0  0  0  0  0  0  0  0
    8.0849   11.2548   24.7036 C   0  0  0  0  0  0  0  0  0  0  0  0
    6.9691   10.8024   25.4045 C   0  0  0  0  0  0  0  0  0  0  0  0
    6.2147   11.7363   26.0997 C   0  0  0  0  0  0  0  0  0  0  0  0
    5.1744   11.3337   27.1100 C   0  0  0  0  0  0  0  0  0  0  0  0
    4.0207   12.2583   27.4275 C   0  0  0  0  0  0  0  0  0  0  0  0
    5.1339   12.1051   28.4166 C   0  0  0  0  0  0  0  0  0  0  0  0
    6.4655   13.0639   25.9785 N   0  0  0  0  0  0  0  0  0  0  0  0
    7.5256   13.4823   25.2674 C   0  0  0  0  0  0  0  0  0  0  0  0
    8.4376   12.6120   24.7190 C   0  0  0  0  0  0  0  0  0  0  0  0
    9.7136   13.0504   24.3368 N   0  0  0  0  0  0  0  0  0  0  0  0
   10.0132   13.7936   23.2311 C   0  0  0  0  0  0  0  0  0  0  0  0
    9.2703   14.3526   22.3339 N   0  0  0  0  0  0  0  0  0  0  0  0
   10.1671   14.9474   21.4462 N   0  0  0  0  0  0  0  0  0  0  0  0
    9.7491   15.7437   20.3416 C   0  0  0  0  0  0  0  0  0  0  0  0
   11.4998   14.8308   21.7818 C   0  0  0  0  0  0  0  0  0  0  0  0
   12.4917   15.2961   21.2545 O   0  0  0  0  0  0  0  0  0  0  0  0
   11.4878   13.9880   22.9904 C   0  0  0  0  0  0  0  0  0  0  0  0
  1  2  1  0
  2  3  1  0
  3  4  2  0
  3  5  1  0
  5  6  2  0
  6  7  1  0
  7  8  1  0
  8  9  1  0
  9 10  1  0
  7 11  2  0
 11 12  1  0
 12 13  2  0
 13 14  1  0
 14 15  1  0
 15 16  2  0
 16 17  1  0
 17 18  1  0
 17 19  1  0
 19 20  2  0
 19 21  1  0
 13  5  1  0
 21 15  1  0
 10  8  1  0
M  END
>  <energy_score>  (326) 
-13.49978

>  <inchikey>  (326) 
None

>  <smiles>  (326) 
None

>  <ref_pdb>  (326) 
A0514a

>  <alias>  (326) 
None

>  <HIPPO Pose ID>  (326) 
498303

>  <name>  (326) 
P498303

>  <HIPPO Compound ID>  (326) 
292678

>  <ref_mols>  (326) 
A4331a,A0514a

>  <distance_score>  (326) 
1.614172

>  <inspiration_score>  (326) 
None

$$$$
P498307
     RDKit          3D

 21 23  0  0  0  0  0  0  0  0999 V2000
    9.2421    8.4538   22.9120 C   0  0  0  0  0  0  0  0  0  0  0  0
    8.4513    9.3472   23.6948 O   0  0  0  0  0  0  0  0  0  0  0  0
    9.1017   10.5009   23.9582 C   0  0  0  0  0  0  0  0  0  0  0  0
   10.2403   10.7512   23.6024 O   0  0  0  0  0  0  0  0  0  0  0  0
    8.2475   11.4427   24.7255 C   0  0  0  0  0  0  0  0  0  0  0  0
    7.1462   10.9214   25.4271 C   0  0  0  0  0  0  0  0  0  0  0  0
    6.3743   11.7658   26.2128 C   0  0  0  0  0  0  0  0  0  0  0  0
    5.2957   11.2564   27.1302 C   0  0  0  0  0  0  0  0  0  0  0  0
    4.1117   12.1362   27.4701 C   0  0  0  0  0  0  0  0  0  0  0  0
    5.1754   11.9046   28.4968 C   0  0  0  0  0  0  0  0  0  0  0  0
    6.6326   13.0911   26.2584 N   0  0  0  0  0  0  0  0  0  0  0  0
    7.6800   13.5791   25.5744 C   0  0  0  0  0  0  0  0  0  0  0  0
    8.5565   12.8153   24.8179 C   0  0  0  0  0  0  0  0  0  0  0  0
    9.6821   13.5004   24.2692 N   0  0  0  0  0  0  0  0  0  0  0  0
   10.9321   13.0083   24.7948 N   0  0  0  0  0  0  0  0  0  0  0  0
    9.5923   13.5626   22.7782 C   0  0  1  0  0  0  0  0  0  0  0  0
    8.3907   14.3326   22.2595 C   0  0  0  0  0  0  0  0  0  0  0  0
    8.7782   14.8161   20.9764 O   0  0  0  0  0  0  0  0  0  0  0  0
   10.1680   15.1607   21.0537 C   0  0  0  0  0  0  0  0  0  0  0  0
   10.7821   14.2783   22.1278 C   0  0  1  0  0  0  0  0  0  0  0  0
   11.5405   15.0132   23.0892 O   0  0  0  0  0  0  0  0  0  0  0  0
  1  2  1  0
  2  3  1  0
  3  4  2  0
  3  5  1  0
  5  6  2  0
  6  7  1  0
  7  8  1  0
  8  9  1  0
  9 10  1  0
  7 11  2  0
 11 12  1  0
 12 13  2  0
 13 14  1  0
 14 15  1  0
 16 14  1  1
 16 17  1  0
 17 18  1  0
 18 19  1  0
 19 20  1  0
 20 21  1  1
 13  5  1  0
 20 16  1  0
 10  8  1  0
M  END
>  <energy_score>  (327) 
-53.712989

>  <inchikey>  (327) 
None

>  <smiles>  (327) 
None

>  <ref_pdb>  (327) 
A0514a

>  <alias>  (327) 
None

>  <HIPPO Pose ID>  (327) 
498307

>  <name>  (327) 
P498307

>  <HIPPO Compound ID>  (327) 
292679

>  <ref_mols>  (327) 
A4331a,A0514a

>  <distance_score>  (327) 
1.405141

>  <inspiration_score>  (327) 
None

$$$$
P498309
     RDKit          3D

 21 23  0  0  0  0  0  0  0  0999 V2000
    9.5883    8.2083   23.4102 C   0  0  0  0  0  0  0  0  0  0  0  0
    8.7119    8.9286   24.2737 O   0  0  0  0  0  0  0  0  0  0  0  0
    8.6797   10.2069   23.8584 C   0  0  0  0  0  0  0  0  0  0  0  0
    9.1894   10.5877   22.8204 O   0  0  0  0  0  0  0  0  0  0  0  0
    7.9998   11.1052   24.8071 C   0  0  0  0  0  0  0  0  0  0  0  0
    6.8813   10.6659   25.5175 C   0  0  0  0  0  0  0  0  0  0  0  0
    6.2552   11.5560   26.3807 C   0  0  0  0  0  0  0  0  0  0  0  0
    5.1195   11.1563   27.2816 C   0  0  0  0  0  0  0  0  0  0  0  0
    3.9678   12.1154   27.4991 C   0  0  0  0  0  0  0  0  0  0  0  0
    4.9569   11.8929   28.5989 C   0  0  0  0  0  0  0  0  0  0  0  0
    6.6842   12.8366   26.4986 N   0  0  0  0  0  0  0  0  0  0  0  0
    7.7589   13.2329   25.8012 C   0  0  0  0  0  0  0  0  0  0  0  0
    8.4991   12.4064   24.9807 C   0  0  0  0  0  0  0  0  0  0  0  0
    9.6938   12.8465   24.3865 N   0  0  0  0  0  0  0  0  0  0  0  0
   10.6626   13.5085   25.1688 N   0  0  0  0  0  0  0  0  0  0  0  0
    9.5469   13.1295   22.9482 C   0  0  0  0  0  0  0  0  0  0  0  0
    9.7255   14.5868   22.6269 C   0  0  1  0  0  0  0  0  0  0  0  0
   11.0991   14.9549   21.9942 C   0  0  0  0  0  0  0  0  0  0  0  0
   10.3977   14.8439   20.6268 C   0  0  2  0  0  0  0  0  0  0  0  0
   10.6298   15.7595   19.4560 C   0  0  0  0  0  0  0  0  0  0  0  0
    9.0574   15.0829   21.3353 C   0  0  0  0  0  0  0  0  0  0  0  0
  1  2  1  0
  2  3  1  0
  3  4  2  0
  3  5  1  0
  5  6  2  0
  6  7  1  0
  7  8  1  0
  8  9  1  0
  9 10  1  0
  7 11  2  0
 11 12  1  0
 12 13  2  0
 13 14  1  0
 14 15  1  0
 14 16  1  0
 17 16  1  6
 17 18  1  0
 18 19  1  0
 19 20  1  6
 19 21  1  0
 13  5  1  0
 21 17  1  0
 10  8  1  0
M  END
>  <energy_score>  (328) 
-21.614505

>  <inchikey>  (328) 
None

>  <smiles>  (328) 
None

>  <ref_pdb>  (328) 
A0514a

>  <alias>  (328) 
None

>  <HIPPO Pose ID>  (328) 
498309

>  <name>  (328) 
P498309

>  <HIPPO Compound ID>  (328) 
292680

>  <ref_mols>  (328) 
A4331a,A0514a

>  <distance_score>  (328) 
1.266603

>  <inspiration_score>  (328) 
None

$$$$
P498310
     RDKit          3D

 21 23  0  0  0  0  0  0  0  0999 V2000
    9.2379    8.8419   23.1468 C   0  0  0  0  0  0  0  0  0  0  0  0
    8.4340    9.7890   23.8619 O   0  0  0  0  0  0  0  0  0  0  0  0
    9.0083   11.0125   23.9595 C   0  0  0  0  0  0  0  0  0  0  0  0
   10.1364   11.2788   23.5831 O   0  0  0  0  0  0  0  0  0  0  0  0
    8.0771   11.9984   24.5721 C   0  0  0  0  0  0  0  0  0  0  0  0
    6.9554   11.5663   25.2845 C   0  0  0  0  0  0  0  0  0  0  0  0
    6.1290   12.5062   25.8957 C   0  0  0  0  0  0  0  0  0  0  0  0
    4.9698   12.1437   26.7675 C   0  0  0  0  0  0  0  0  0  0  0  0
    5.0557   11.1474   27.8879 C   0  0  0  0  0  0  0  0  0  0  0  0
    5.0327   12.6111   28.2077 C   0  0  0  0  0  0  0  0  0  0  0  0
    6.3381   13.8276   25.7559 N   0  0  0  0  0  0  0  0  0  0  0  0
    7.4191   14.2212   25.0745 C   0  0  0  0  0  0  0  0  0  0  0  0
    8.3570   13.3707   24.5125 C   0  0  0  0  0  0  0  0  0  0  0  0
    9.6285   13.9101   24.2467 N   0  0  0  0  0  0  0  0  0  0  0  0
   10.5785   13.5225   25.2388 N   0  0  0  0  0  0  0  0  0  0  0  0
   10.2226   14.2949   23.0212 C   0  0  0  0  0  0  0  0  0  0  0  0
    9.5024   14.6366   21.8933 C   0  0  0  0  0  0  0  0  0  0  0  0
   10.2134   15.0546   20.7779 C   0  0  0  0  0  0  0  0  0  0  0  0
   11.5914   15.0446   20.8289 C   0  0  0  0  0  0  0  0  0  0  0  0
   12.2757   14.7694   21.9485 N   0  0  0  0  0  0  0  0  0  0  0  0
   11.5828   14.4174   23.0449 N   0  0  0  0  0  0  0  0  0  0  0  0
  1  2  1  0
  2  3  1  0
  3  4  2  0
  3  5  1  0
  5  6  2  0
  6  7  1  0
  7  8  1  0
  8  9  1  0
  9 10  1  0
  7 11  2  0
 11 12  1  0
 12 13  2  0
 13 14  1  0
 14 15  1  0
 14 16  1  0
 16 17  2  0
 17 18  1  0
 18 19  2  0
 19 20  1  0
 20 21  2  0
 13  5  1  0
 21 16  1  0
 10  8  1  0
M  END
>  <energy_score>  (329) 
-49.17876

>  <inchikey>  (329) 
None

>  <smiles>  (329) 
None

>  <ref_pdb>  (329) 
A0514a

>  <alias>  (329) 
None

>  <HIPPO Pose ID>  (329) 
498310

>  <name>  (329) 
P498310

>  <HIPPO Compound ID>  (329) 
292682

>  <ref_mols>  (329) 
A4331a,A0514a

>  <distance_score>  (329) 
1.632912

>  <inspiration_score>  (329) 
None

$$$$
P498314
     RDKit          3D

 21 23  0  0  0  0  0  0  0  0999 V2000
    9.7745    8.9559   22.9890 C   0  0  0  0  0  0  0  0  0  0  0  0
    8.9083   10.0233   23.3545 O   0  0  0  0  0  0  0  0  0  0  0  0
    9.4979   11.2232   23.5730 C   0  0  0  0  0  0  0  0  0  0  0  0
   10.6815   11.4827   23.5001 O   0  0  0  0  0  0  0  0  0  0  0  0
    8.4362   12.1538   23.9918 C   0  0  0  0  0  0  0  0  0  0  0  0
    7.4918   11.5889   24.8887 C   0  0  0  0  0  0  0  0  0  0  0  0
    6.5488   12.3865   25.5062 C   0  0  0  0  0  0  0  0  0  0  0  0
    5.6588   11.8462   26.5984 C   0  0  0  0  0  0  0  0  0  0  0  0
    4.4669   12.6320   27.0929 C   0  0  0  0  0  0  0  0  0  0  0  0
    5.6972   12.5455   27.9425 C   0  0  0  0  0  0  0  0  0  0  0  0
    6.4896   13.6972   25.2008 N   0  0  0  0  0  0  0  0  0  0  0  0
    7.3938   14.2134   24.3207 C   0  0  0  0  0  0  0  0  0  0  0  0
    8.4335   13.5257   23.6880 C   0  0  0  0  0  0  0  0  0  0  0  0
    9.5079   14.3131   23.2078 N   0  0  0  0  0  0  0  0  0  0  0  0
   10.4308   14.2945   24.2494 N   0  0  0  0  0  0  0  0  0  0  0  0
   11.6110   14.2199   23.7456 C   0  0  0  0  0  0  0  0  0  0  0  0
   11.7192   14.3386   22.2873 C   0  0  0  0  0  0  0  0  0  0  0  0
   10.2691   14.1492   21.8934 C   0  0  2  0  0  0  0  0  0  0  0  0
    9.9328   15.0542   20.6490 C   0  0  0  0  0  0  0  0  0  0  0  0
   11.0072   14.9394   19.5246 C   0  0  0  0  0  0  0  0  0  0  0  0
    9.7808   16.5541   20.8147 C   0  0  0  0  0  0  0  0  0  0  0  0
  1  2  1  0
  2  3  1  0
  3  4  2  0
  3  5  1  0
  5  6  2  0
  6  7  1  0
  7  8  1  0
  8  9  1  0
  9 10  1  0
  7 11  2  0
 11 12  1  0
 12 13  2  0
 13 14  1  0
 14 15  1  0
 15 16  2  0
 16 17  1  0
 17 18  1  0
 18 19  1  6
 19 20  1  0
 19 21  1  0
 13  5  1  0
 18 14  1  0
 10  8  1  0
M  END
>  <energy_score>  (330) 
-22.986528

>  <inchikey>  (330) 
None

>  <smiles>  (330) 
None

>  <ref_pdb>  (330) 
A0514a

>  <alias>  (330) 
None

>  <HIPPO Pose ID>  (330) 
498314

>  <name>  (330) 
P498314

>  <HIPPO Compound ID>  (330) 
292692

>  <ref_mols>  (330) 
A4331a,A0514a

>  <distance_score>  (330) 
1.870355

>  <inspiration_score>  (330) 
None

$$$$
P498316
     RDKit          3D

 21 23  0  0  0  0  0  0  0  0999 V2000
    9.2098    8.3280   22.8400 C   0  0  0  0  0  0  0  0  0  0  0  0
    8.3501    9.1215   23.6508 O   0  0  0  0  0  0  0  0  0  0  0  0
    8.9102   10.3105   23.9464 C   0  0  0  0  0  0  0  0  0  0  0  0
   10.0394   10.6464   23.6327 O   0  0  0  0  0  0  0  0  0  0  0  0
    7.9667   11.1370   24.7393 C   0  0  0  0  0  0  0  0  0  0  0  0
    6.9772   10.5188   25.5176 C   0  0  0  0  0  0  0  0  0  0  0  0
    6.1823   11.2958   26.3500 C   0  0  0  0  0  0  0  0  0  0  0  0
    5.1723   10.7167   27.2970 C   0  0  0  0  0  0  0  0  0  0  0  0
    5.2131   11.1386   28.7485 C   0  0  0  0  0  0  0  0  0  0  0  0
    4.1026   11.6292   27.8740 C   0  0  0  0  0  0  0  0  0  0  0  0
    6.3397   12.6334   26.4055 N   0  0  0  0  0  0  0  0  0  0  0  0
    7.2450   13.2106   25.6076 C   0  0  0  0  0  0  0  0  0  0  0  0
    8.1013   12.5310   24.7503 C   0  0  0  0  0  0  0  0  0  0  0  0
    9.0764   13.2132   23.9896 N   0  0  0  0  0  0  0  0  0  0  0  0
   10.3877   13.0802   24.5142 N   0  0  0  0  0  0  0  0  0  0  0  0
    8.6973   14.5653   23.5771 C   0  0  0  0  0  0  0  0  0  0  0  0
    9.2029   15.0449   22.2098 C   0  0  2  0  0  0  0  0  0  0  0  0
    8.5583   14.3002   21.1087 C   0  0  0  0  0  0  0  0  0  0  0  0
   10.6572   15.2664   21.8568 C   0  0  0  0  0  0  0  0  0  0  0  0
   11.8958   15.0964   22.6964 C   0  0  0  0  0  0  0  0  0  0  0  0
   11.5951   14.1052   21.6333 C   0  0  0  0  0  0  0  0  0  0  0  0
  1  2  1  0
  2  3  1  0
  3  4  2  0
  3  5  1  0
  5  6  2  0
  6  7  1  0
  7  8  1  0
  8  9  1  0
  9 10  1  0
  7 11  2  0
 11 12  1  0
 12 13  2  0
 13 14  1  0
 14 15  1  0
 14 16  1  0
 16 17  1  0
 17 18  1  6
 17 19  1  0
 19 20  1  0
 20 21  1  0
 13  5  1  0
 21 19  1  0
 10  8  1  0
M  END
>  <energy_score>  (331) 
-16.063915

>  <inchikey>  (331) 
None

>  <smiles>  (331) 
None

>  <ref_pdb>  (331) 
A0514a

>  <alias>  (331) 
None

>  <HIPPO Pose ID>  (331) 
498316

>  <name>  (331) 
P498316

>  <HIPPO Compound ID>  (331) 
292696

>  <ref_mols>  (331) 
A4331a,A0514a

>  <distance_score>  (331) 
1.65545

>  <inspiration_score>  (331) 
None

$$$$
P498319
     RDKit          3D

 21 22  0  0  0  0  0  0  0  0999 V2000
    9.4346    8.4063   23.1975 C   0  0  0  0  0  0  0  0  0  0  0  0
    8.6745    9.1924   24.1167 O   0  0  0  0  0  0  0  0  0  0  0  0
    8.7407   10.5156   23.8669 C   0  0  0  0  0  0  0  0  0  0  0  0
    9.3666   11.0357   22.9606 O   0  0  0  0  0  0  0  0  0  0  0  0
    7.9101   11.2914   24.8164 C   0  0  0  0  0  0  0  0  0  0  0  0
    6.9055   10.6670   25.5613 C   0  0  0  0  0  0  0  0  0  0  0  0
    6.1190   11.4441   26.3979 C   0  0  0  0  0  0  0  0  0  0  0  0
    5.1523   10.8589   27.3861 C   0  0  0  0  0  0  0  0  0  0  0  0
    3.9521   11.6633   27.8383 C   0  0  0  0  0  0  0  0  0  0  0  0
    5.1117   11.4849   28.7677 C   0  0  0  0  0  0  0  0  0  0  0  0
    6.2519   12.7886   26.4231 N   0  0  0  0  0  0  0  0  0  0  0  0
    7.2060   13.3746   25.6919 C   0  0  0  0  0  0  0  0  0  0  0  0
    8.1229   12.6770   24.9245 C   0  0  0  0  0  0  0  0  0  0  0  0
    9.2201   13.2930   24.2906 N   0  0  0  0  0  0  0  0  0  0  0  0
    8.8245   14.1425   23.1707 C   0  0  0  0  0  0  0  0  0  0  0  0
   10.0438   14.3961   22.2944 C   0  0  0  0  0  0  0  0  0  0  0  0
    9.7236   15.2210   21.0689 C   0  0  0  0  0  0  0  0  0  0  0  0
   10.8775   15.2536   20.2478 O   0  0  0  0  0  0  0  0  0  0  0  0
   10.0839   13.8766   25.1811 N   0  0  0  0  0  0  0  0  0  0  0  0
   11.2095   13.3771   25.2206 O   0  0  0  0  0  0  0  0  0  0  0  0
    9.6787   14.8245   25.8617 O   0  0  0  0  0  0  0  0  0  0  0  0
  1  2  1  0
  2  3  1  0
  3  4  2  0
  3  5  1  0
  5  6  2  0
  6  7  1  0
  7  8  1  0
  8  9  1  0
  9 10  1  0
  7 11  2  0
 11 12  1  0
 12 13  2  0
 13 14  1  0
 14 15  1  0
 15 16  1  0
 16 17  1  0
 17 18  1  0
 14 19  1  0
 19 20  2  0
 19 21  1  0
 13  5  1  0
 10  8  1  0
M  CHG  2  19   1  21  -1
M  END
>  <energy_score>  (332) 
-30.472603

>  <inchikey>  (332) 
None

>  <smiles>  (332) 
None

>  <ref_pdb>  (332) 
A0514a

>  <alias>  (332) 
None

>  <HIPPO Pose ID>  (332) 
498319

>  <name>  (332) 
P498319

>  <HIPPO Compound ID>  (332) 
292698

>  <ref_mols>  (332) 
A4331a,A0514a

>  <distance_score>  (332) 
1.841822

>  <inspiration_score>  (332) 
None

$$$$
P498323
     RDKit          3D

 21 23  0  0  0  0  0  0  0  0999 V2000
    9.4379    8.6170   22.9304 C   0  0  0  0  0  0  0  0  0  0  0  0
    8.5822    9.5293   23.6117 O   0  0  0  0  0  0  0  0  0  0  0  0
    9.1843   10.7022   23.9147 C   0  0  0  0  0  0  0  0  0  0  0  0
   10.3569   10.9631   23.7173 O   0  0  0  0  0  0  0  0  0  0  0  0
    8.1992   11.6192   24.5324 C   0  0  0  0  0  0  0  0  0  0  0  0
    7.1529   11.0304   25.2711 C   0  0  0  0  0  0  0  0  0  0  0  0
    6.2864   11.8329   25.9979 C   0  0  0  0  0  0  0  0  0  0  0  0
    5.3326   11.2641   27.0141 C   0  0  0  0  0  0  0  0  0  0  0  0
    4.1628   12.0828   27.5154 C   0  0  0  0  0  0  0  0  0  0  0  0
    5.3536   11.8832   28.3996 C   0  0  0  0  0  0  0  0  0  0  0  0
    6.3649   13.1764   25.9150 N   0  0  0  0  0  0  0  0  0  0  0  0
    7.3645   13.7220   25.1948 C   0  0  0  0  0  0  0  0  0  0  0  0
    8.3608   13.0142   24.5290 C   0  0  0  0  0  0  0  0  0  0  0  0
    9.5245   13.7485   24.2152 N   0  0  0  0  0  0  0  0  0  0  0  0
   10.4737   13.5765   25.2828 N   0  0  0  0  0  0  0  0  0  0  0  0
   10.0778   13.7061   22.8297 C   0  0  2  0  0  0  0  0  0  0  0  0
   11.5257   14.2474   22.8079 C   0  0  0  0  0  0  0  0  0  0  0  0
   11.7179   15.0335   21.5354 C   0  0  0  0  0  0  0  0  0  0  0  0
   10.4565   14.8004   20.7522 C   0  0  2  0  0  0  0  0  0  0  0  0
   10.2459   15.8575   19.7006 C   0  0  0  0  0  0  0  0  0  0  0  0
    9.3471   14.5537   21.7864 C   0  0  0  0  0  0  0  0  0  0  0  0
  1  2  1  0
  2  3  1  0
  3  4  2  0
  3  5  1  0
  5  6  2  0
  6  7  1  0
  7  8  1  0
  8  9  1  0
  9 10  1  0
  7 11  2  0
 11 12  1  0
 12 13  2  0
 13 14  1  0
 14 15  1  0
 16 14  1  1
 16 17  1  0
 17 18  1  0
 18 19  1  0
 19 20  1  1
 19 21  1  0
 13  5  1  0
 21 16  1  0
 10  8  1  0
M  END
>  <energy_score>  (333) 
-21.527285

>  <inchikey>  (333) 
None

>  <smiles>  (333) 
None

>  <ref_pdb>  (333) 
A0514a

>  <alias>  (333) 
None

>  <HIPPO Pose ID>  (333) 
498323

>  <name>  (333) 
P498323

>  <HIPPO Compound ID>  (333) 
292701

>  <ref_mols>  (333) 
A4331a,A0514a

>  <distance_score>  (333) 
1.57487

>  <inspiration_score>  (333) 
None

$$$$
P498331
     RDKit          3D

 21 22  0  0  0  0  0  0  0  0999 V2000
    9.6898    8.5958   23.3976 C   0  0  0  0  0  0  0  0  0  0  0  0
    8.6854    9.2563   24.1690 O   0  0  0  0  0  0  0  0  0  0  0  0
    8.7319   10.5993   23.9920 C   0  0  0  0  0  0  0  0  0  0  0  0
    9.4788   11.1594   23.2088 O   0  0  0  0  0  0  0  0  0  0  0  0
    7.7674   11.2974   24.8815 C   0  0  0  0  0  0  0  0  0  0  0  0
    6.7990   10.5758   25.5888 C   0  0  0  0  0  0  0  0  0  0  0  0
    5.9478   11.2565   26.4516 C   0  0  0  0  0  0  0  0  0  0  0  0
    5.0644   10.5602   27.4436 C   0  0  0  0  0  0  0  0  0  0  0  0
    3.8773   11.2829   28.0455 C   0  0  0  0  0  0  0  0  0  0  0  0
    5.1083   11.0733   28.8709 C   0  0  0  0  0  0  0  0  0  0  0  0
    5.9592   12.6034   26.5309 N   0  0  0  0  0  0  0  0  0  0  0  0
    6.8894   13.2771   25.8508 C   0  0  0  0  0  0  0  0  0  0  0  0
    7.8627   12.6850   25.0639 C   0  0  0  0  0  0  0  0  0  0  0  0
    8.9308   13.4574   24.5681 N   0  0  0  0  0  0  0  0  0  0  0  0
    9.5071   14.3439   25.5176 N   0  0  0  0  0  0  0  0  0  0  0  0
    8.6331   13.9719   23.2093 C   0  0  0  0  0  0  0  0  0  0  0  0
    9.9451   14.2186   22.4866 C   0  0  0  0  0  0  0  0  0  0  0  0
    9.7316   14.7510   21.1908 O   0  0  0  0  0  0  0  0  0  0  0  0
   10.8684   15.4556   20.6608 C   0  0  0  0  0  0  0  0  0  0  0  0
   12.2279   14.9822   21.1819 C   0  0  0  0  0  0  0  0  0  0  0  0
   10.8340   15.3531   19.1416 C   0  0  0  0  0  0  0  0  0  0  0  0
  1  2  1  0
  2  3  1  0
  3  4  2  0
  3  5  1  0
  5  6  2  0
  6  7  1  0
  7  8  1  0
  8  9  1  0
  9 10  1  0
  7 11  2  0
 11 12  1  0
 12 13  2  0
 13 14  1  0
 14 15  1  0
 14 16  1  0
 16 17  1  0
 17 18  1  0
 18 19  1  0
 19 20  1  0
 19 21  1  0
 13  5  1  0
 10  8  1  0
M  END
>  <energy_score>  (334) 
-31.743928

>  <inchikey>  (334) 
None

>  <smiles>  (334) 
None

>  <ref_pdb>  (334) 
A0514a

>  <alias>  (334) 
None

>  <HIPPO Pose ID>  (334) 
498331

>  <name>  (334) 
P498331

>  <HIPPO Compound ID>  (334) 
292707

>  <ref_mols>  (334) 
A4331a,A0514a

>  <distance_score>  (334) 
1.414065

>  <inspiration_score>  (334) 
None

$$$$
P498332
     RDKit          3D

 21 23  0  0  0  0  0  0  0  0999 V2000
    9.7323    8.3019   23.3598 C   0  0  0  0  0  0  0  0  0  0  0  0
    8.8181    9.0799   24.1235 O   0  0  0  0  0  0  0  0  0  0  0  0
    8.8887   10.3669   23.7236 C   0  0  0  0  0  0  0  0  0  0  0  0
    9.6001   10.7667   22.8187 O   0  0  0  0  0  0  0  0  0  0  0  0
    8.0376   11.2481   24.5500 C   0  0  0  0  0  0  0  0  0  0  0  0
    7.0573   10.7150   25.3947 C   0  0  0  0  0  0  0  0  0  0  0  0
    6.2904   11.5830   26.1582 C   0  0  0  0  0  0  0  0  0  0  0  0
    5.3409   11.1035   27.2222 C   0  0  0  0  0  0  0  0  0  0  0  0
    4.1503   11.9506   27.6161 C   0  0  0  0  0  0  0  0  0  0  0  0
    5.3257   11.8588   28.5384 C   0  0  0  0  0  0  0  0  0  0  0  0
    6.4322   12.9220   26.0319 N   0  0  0  0  0  0  0  0  0  0  0  0
    7.3485   13.4169   25.1825 C   0  0  0  0  0  0  0  0  0  0  0  0
    8.2291   12.6360   24.4576 C   0  0  0  0  0  0  0  0  0  0  0  0
    9.3258   13.2079   23.7580 N   0  0  0  0  0  0  0  0  0  0  0  0
   10.5881   12.9343   24.3603 N   0  0  0  0  0  0  0  0  0  0  0  0
    9.2870   14.4680   23.0570 C   0  0  0  0  0  0  0  0  0  0  0  0
   10.6437   14.7915   22.3681 C   0  0  0  0  0  0  0  0  0  0  0  0
    9.8241   15.5286   21.0083 S   0  0  0  0  0  0  0  0  0  0  0  0
   10.4399   15.0275   19.8064 O   0  0  0  0  0  0  0  0  0  0  0  0
    9.4480   16.9131   21.1337 O   0  0  0  0  0  0  0  0  0  0  0  0
    8.5436   14.5109   21.7133 C   0  0  0  0  0  0  0  0  0  0  0  0
  1  2  1  0
  2  3  1  0
  3  4  2  0
  3  5  1  0
  5  6  2  0
  6  7  1  0
  7  8  1  0
  8  9  1  0
  9 10  1  0
  7 11  2  0
 11 12  1  0
 12 13  2  0
 13 14  1  0
 14 15  1  0
 14 16  1  0
 16 17  1  0
 17 18  1  0
 18 19  2  0
 18 20  2  0
 18 21  1  0
 13  5  1  0
 21 16  1  0
 10  8  1  0
M  END
>  <energy_score>  (335) 
-37.204356

>  <inchikey>  (335) 
None

>  <smiles>  (335) 
None

>  <ref_pdb>  (335) 
A0514a

>  <alias>  (335) 
None

>  <HIPPO Pose ID>  (335) 
498332

>  <name>  (335) 
P498332

>  <HIPPO Compound ID>  (335) 
292708

>  <ref_mols>  (335) 
A4331a,A0514a

>  <distance_score>  (335) 
1.350894

>  <inspiration_score>  (335) 
None

$$$$
P498336
     RDKit          3D

 21 23  0  0  0  0  0  0  0  0999 V2000
    9.3947    8.5856   23.0085 C   0  0  0  0  0  0  0  0  0  0  0  0
    8.5379    9.3581   23.8504 O   0  0  0  0  0  0  0  0  0  0  0  0
    8.9296   10.6472   23.9822 C   0  0  0  0  0  0  0  0  0  0  0  0
    9.9185   11.1312   23.4624 O   0  0  0  0  0  0  0  0  0  0  0  0
    7.9881   11.3843   24.8682 C   0  0  0  0  0  0  0  0  0  0  0  0
    6.9650   10.7059   25.5472 C   0  0  0  0  0  0  0  0  0  0  0  0
    6.1418   11.4122   26.4175 C   0  0  0  0  0  0  0  0  0  0  0  0
    5.1653   10.7432   27.3410 C   0  0  0  0  0  0  0  0  0  0  0  0
    3.9725   11.5136   27.8697 C   0  0  0  0  0  0  0  0  0  0  0  0
    5.1286   11.2325   28.7767 C   0  0  0  0  0  0  0  0  0  0  0  0
    6.2599   12.7500   26.5611 N   0  0  0  0  0  0  0  0  0  0  0  0
    7.2166   13.3868   25.8820 C   0  0  0  0  0  0  0  0  0  0  0  0
    8.1492   12.7619   25.0655 C   0  0  0  0  0  0  0  0  0  0  0  0
    9.1999   13.5113   24.5008 N   0  0  0  0  0  0  0  0  0  0  0  0
   10.0689   14.1080   25.4816 N   0  0  0  0  0  0  0  0  0  0  0  0
    8.7883   14.4262   23.3886 C   0  0  2  0  0  0  0  0  0  0  0  0
    7.5294   13.9943   22.6407 C   0  0  0  0  0  0  0  0  0  0  0  0
    9.9848   14.7032   22.4145 C   0  0  0  0  0  0  0  0  0  0  0  0
   11.3855   14.4395   22.9160 C   0  0  0  0  0  0  0  0  0  0  0  0
    9.8341   15.8410   21.3860 C   0  0  0  0  0  0  0  0  0  0  0  0
    9.8298   14.4419   20.9429 C   0  0  0  0  0  0  0  0  0  0  0  0
  1  2  1  0
  2  3  1  0
  3  4  2  0
  3  5  1  0
  5  6  2  0
  6  7  1  0
  7  8  1  0
  8  9  1  0
  9 10  1  0
  7 11  2  0
 11 12  1  0
 12 13  2  0
 13 14  1  0
 14 15  1  0
 14 16  1  0
 16 17  1  6
 16 18  1  0
 18 19  1  0
 18 20  1  0
 20 21  1  0
 13  5  1  0
 21 18  1  0
 10  8  1  0
M  END
>  <energy_score>  (336) 
-19.429671

>  <inchikey>  (336) 
None

>  <smiles>  (336) 
None

>  <ref_pdb>  (336) 
A0514a

>  <alias>  (336) 
None

>  <HIPPO Pose ID>  (336) 
498336

>  <name>  (336) 
P498336

>  <HIPPO Compound ID>  (336) 
292711

>  <ref_mols>  (336) 
A4331a,A0514a

>  <distance_score>  (336) 
1.565811

>  <inspiration_score>  (336) 
None

$$$$
P498339
     RDKit          3D

 21 22  0  0  0  0  0  0  0  0999 V2000
    7.0718   15.4986   22.3872 C   0  0  0  0  0  0  0  0  0  0  0  0
    7.6370   14.0859   22.4461 C   0  0  0  0  0  0  0  0  0  0  0  0
    9.0642   14.0520   23.0345 C   0  0  2  0  0  0  0  0  0  0  0  0
   10.0655   14.0811   21.8602 C   0  0  0  0  0  0  0  0  0  0  0  0
    9.9385   14.7573   20.8499 O   0  0  0  0  0  0  0  0  0  0  0  0
   11.1255   13.2538   21.9891 O   0  0  0  0  0  0  0  0  0  0  0  0
    9.2974   12.8838   23.9647 N   0  0  0  0  0  0  0  0  0  0  0  0
   10.5794   12.8337   24.6043 N   0  0  0  0  0  0  0  0  0  0  0  0
    8.2514   12.5883   24.8567 C   0  0  0  0  0  0  0  0  0  0  0  0
    7.6626   13.5954   25.6153 C   0  0  0  0  0  0  0  0  0  0  0  0
    6.5992   13.4426   26.4182 N   0  0  0  0  0  0  0  0  0  0  0  0
    6.0325   12.2250   26.5021 C   0  0  0  0  0  0  0  0  0  0  0  0
    4.8005   12.1199   27.3358 C   0  0  0  0  0  0  0  0  0  0  0  0
    4.8163   11.3939   28.6504 C   0  0  0  0  0  0  0  0  0  0  0  0
    4.7488   12.8925   28.6348 C   0  0  0  0  0  0  0  0  0  0  0  0
    6.5760   11.1387   25.8432 C   0  0  0  0  0  0  0  0  0  0  0  0
    7.7023   11.3114   25.0234 C   0  0  0  0  0  0  0  0  0  0  0  0
    8.1873   10.0599   24.4054 C   0  0  0  0  0  0  0  0  0  0  0  0
    7.7252    8.9872   24.7695 O   0  0  0  0  0  0  0  0  0  0  0  0
    9.1229   10.2267   23.4535 O   0  0  0  0  0  0  0  0  0  0  0  0
    9.6237    8.9979   22.9283 C   0  0  0  0  0  0  0  0  0  0  0  0
  1  2  1  0
  3  2  1  6
  3  4  1  0
  4  5  2  0
  4  6  1  0
  3  7  1  0
  7  8  1  0
  7  9  1  0
  9 10  2  0
 10 11  1  0
 11 12  2  0
 12 13  1  0
 13 14  1  0
 14 15  1  0
 12 16  1  0
 16 17  2  0
 17 18  1  0
 18 19  2  0
 18 20  1  0
 20 21  1  0
 17  9  1  0
 15 13  1  0
M  END
>  <energy_score>  (337) 
-44.059094

>  <inchikey>  (337) 
None

>  <smiles>  (337) 
None

>  <ref_pdb>  (337) 
A0514a

>  <alias>  (337) 
None

>  <HIPPO Pose ID>  (337) 
498339

>  <name>  (337) 
P498339

>  <HIPPO Compound ID>  (337) 
292715

>  <ref_mols>  (337) 
A4331a,A0514a

>  <distance_score>  (337) 
1.735116

>  <inspiration_score>  (337) 
None

$$$$
P498345
     RDKit          3D

 22 23  0  0  0  0  0  0  0  0999 V2000
   12.3323   15.3482   21.1825 C   0  0  0  0  0  0  0  0  0  0  0  0
   11.9956   14.2406   22.1286 C   0  0  0  0  0  0  0  0  0  0  0  0
   10.8518   14.5595   22.9162 O   0  0  0  0  0  0  0  0  0  0  0  0
    9.6463   14.4272   22.2767 C   0  0  0  0  0  0  0  0  0  0  0  0
    9.4838   14.4090   21.0674 O   0  0  0  0  0  0  0  0  0  0  0  0
    8.5560   14.2128   23.3260 C   0  0  1  0  0  0  0  0  0  0  0  0
    7.2094   14.3342   22.6181 C   0  0  0  0  0  0  0  0  0  0  0  0
    8.7603   12.8787   23.9803 N   0  0  0  0  0  0  0  0  0  0  0  0
   10.0634   12.5252   24.4422 N   0  0  0  0  0  0  0  0  0  0  0  0
    7.7807   12.4368   24.8792 C   0  0  0  0  0  0  0  0  0  0  0  0
    7.1189   13.3330   25.7111 C   0  0  0  0  0  0  0  0  0  0  0  0
    6.1832   13.0113   26.6147 N   0  0  0  0  0  0  0  0  0  0  0  0
    5.8057   11.7242   26.7200 C   0  0  0  0  0  0  0  0  0  0  0  0
    4.7158   11.4055   27.6954 C   0  0  0  0  0  0  0  0  0  0  0  0
    4.6619   12.1405   29.0117 C   0  0  0  0  0  0  0  0  0  0  0  0
    3.6511   12.4519   27.9498 C   0  0  0  0  0  0  0  0  0  0  0  0
    6.4228   10.7472   25.9663 C   0  0  0  0  0  0  0  0  0  0  0  0
    7.4413   11.0919   25.0638 C   0  0  0  0  0  0  0  0  0  0  0  0
    8.0713    9.9241   24.4093 C   0  0  0  0  0  0  0  0  0  0  0  0
    7.7521    8.8016   24.7700 O   0  0  0  0  0  0  0  0  0  0  0  0
    8.9927   10.1892   23.4619 O   0  0  0  0  0  0  0  0  0  0  0  0
    9.5902    9.0099   22.9163 C   0  0  0  0  0  0  0  0  0  0  0  0
  1  2  1  0
  2  3  1  0
  3  4  1  0
  4  5  2  0
  4  6  1  0
  6  7  1  6
  6  8  1  0
  8  9  1  0
  8 10  1  0
 10 11  2  0
 11 12  1  0
 12 13  2  0
 13 14  1  0
 14 15  1  0
 15 16  1  0
 13 17  1  0
 17 18  2  0
 18 19  1  0
 19 20  2  0
 19 21  1  0
 21 22  1  0
 18 10  1  0
 16 14  1  0
M  END
>  <energy_score>  (338) 
-39.180746

>  <inchikey>  (338) 
None

>  <smiles>  (338) 
None

>  <ref_pdb>  (338) 
A0514a

>  <alias>  (338) 
None

>  <HIPPO Pose ID>  (338) 
498345

>  <name>  (338) 
P498345

>  <HIPPO Compound ID>  (338) 
292720

>  <ref_mols>  (338) 
A4331a,A0514a

>  <distance_score>  (338) 
1.614783

>  <inspiration_score>  (338) 
None

$$$$
P498346
     RDKit          3D

 22 25  0  0  0  0  0  0  0  0999 V2000
    9.1201    8.3014   22.7693 C   0  0  0  0  0  0  0  0  0  0  0  0
    8.3473    9.2170   23.5367 O   0  0  0  0  0  0  0  0  0  0  0  0
    9.1053   10.2598   23.9233 C   0  0  0  0  0  0  0  0  0  0  0  0
   10.2982   10.3647   23.7185 O   0  0  0  0  0  0  0  0  0  0  0  0
    8.3227   11.2490   24.6800 C   0  0  0  0  0  0  0  0  0  0  0  0
    7.2385   10.7688   25.4443 C   0  0  0  0  0  0  0  0  0  0  0  0
    6.5254   11.6391   26.2551 C   0  0  0  0  0  0  0  0  0  0  0  0
    5.4094   11.1911   27.1604 C   0  0  0  0  0  0  0  0  0  0  0  0
    4.2377   12.1156   27.4194 C   0  0  0  0  0  0  0  0  0  0  0  0
    5.2518   11.8935   28.4964 C   0  0  0  0  0  0  0  0  0  0  0  0
    6.8712   12.9401   26.3197 N   0  0  0  0  0  0  0  0  0  0  0  0
    7.8685   13.3855   25.5392 C   0  0  0  0  0  0  0  0  0  0  0  0
    8.6549   12.6090   24.6872 C   0  0  0  0  0  0  0  0  0  0  0  0
    9.5425   13.3077   23.8626 N   0  0  0  0  0  0  0  0  0  0  0  0
   10.9290   12.9077   23.5841 C   0  0  0  0  0  0  0  0  0  0  0  0
   11.7655   14.1363   23.2398 C   0  0  0  0  0  0  0  0  0  0  0  0
   11.2764   14.7152   21.9229 C   0  0  0  0  0  0  0  0  0  0  0  0
    9.7953   14.7847   21.9126 C   0  0  0  0  0  0  0  0  0  0  0  0
    9.0457   15.5642   21.1727 N   0  0  0  0  0  0  0  0  0  0  0  0
    7.7827   15.3502   21.6285 C   0  0  0  0  0  0  0  0  0  0  0  0
    7.7278   14.3271   22.5336 C   0  0  0  0  0  0  0  0  0  0  0  0
    9.0342   14.0550   22.8000 N   0  0  0  0  0  0  0  0  0  0  0  0
  1  2  1  0
  2  3  1  0
  3  4  2  0
  3  5  1  0
  5  6  2  0
  6  7  1  0
  7  8  1  0
  8  9  1  0
  9 10  1  0
  7 11  2  0
 11 12  1  0
 12 13  2  0
 13 14  1  0
 14 15  1  0
 15 16  1  0
 16 17  1  0
 17 18  1  0
 18 19  2  0
 19 20  1  0
 20 21  2  0
 21 22  1  0
 13  5  1  0
 22 14  1  0
 10  8  1  0
 22 18  1  0
M  END
>  <energy_score>  (339) 
-21.212969

>  <inchikey>  (339) 
None

>  <smiles>  (339) 
None

>  <ref_pdb>  (339) 
A0514a

>  <alias>  (339) 
None

>  <HIPPO Pose ID>  (339) 
498346

>  <name>  (339) 
P498346

>  <HIPPO Compound ID>  (339) 
292721

>  <ref_mols>  (339) 
A4331a,A0514a

>  <distance_score>  (339) 
1.869443

>  <inspiration_score>  (339) 
None

$$$$
P498353
     RDKit          3D

 22 22  0  0  0  0  0  0  0  0999 V2000
    9.4667    8.3918   23.1103 C   0  0  0  0  0  0  0  0  0  0  0  0
    8.7123    9.1758   24.0309 O   0  0  0  0  0  0  0  0  0  0  0  0
    8.7981   10.5027   23.8142 C   0  0  0  0  0  0  0  0  0  0  0  0
    9.4403   11.0432   22.9331 O   0  0  0  0  0  0  0  0  0  0  0  0
    7.9671   11.2459   24.7883 C   0  0  0  0  0  0  0  0  0  0  0  0
    6.9838   10.5881   25.5305 C   0  0  0  0  0  0  0  0  0  0  0  0
    6.2176   11.3346   26.4139 C   0  0  0  0  0  0  0  0  0  0  0  0
    5.2316   10.6753   27.3371 C   0  0  0  0  0  0  0  0  0  0  0  0
    4.1830   11.4867   27.6469 F   0  0  0  0  0  0  0  0  0  0  0  0
    4.6874    9.5427   26.8195 F   0  0  0  0  0  0  0  0  0  0  0  0
    5.7962   10.3098   28.5234 F   0  0  0  0  0  0  0  0  0  0  0  0
    6.3728   12.6736   26.5534 N   0  0  0  0  0  0  0  0  0  0  0  0
    7.2927   13.2901   25.8019 C   0  0  0  0  0  0  0  0  0  0  0  0
    8.1560   12.6309   24.9311 C   0  0  0  0  0  0  0  0  0  0  0  0
    9.1736   13.3073   24.2139 N   0  0  0  0  0  0  0  0  0  0  0  0
    8.6066   14.3057   23.3138 C   0  0  0  0  0  0  0  0  0  0  0  0
    9.4480   14.5499   22.0572 C   0  0  0  0  0  0  0  0  0  0  0  0
   10.9342   14.2287   22.0805 C   0  0  0  0  0  0  0  0  0  0  0  0
   11.6628   15.0148   23.0026 O   0  0  0  0  0  0  0  0  0  0  0  0
   10.1299   13.7787   25.0901 N   0  0  0  0  0  0  0  0  0  0  0  0
    9.8525   14.7613   25.7884 O   0  0  0  0  0  0  0  0  0  0  0  0
   11.1615   13.1066   25.1557 O   0  0  0  0  0  0  0  0  0  0  0  0
  1  2  1  0
  2  3  1  0
  3  4  2  0
  3  5  1  0
  5  6  2  0
  6  7  1  0
  7  8  1  0
  8  9  1  0
  8 10  1  0
  8 11  1  0
  7 12  2  0
 12 13  1  0
 13 14  2  0
 14 15  1  0
 15 16  1  0
 16 17  1  0
 17 18  1  0
 18 19  1  0
 15 20  1  0
 20 21  2  0
 20 22  1  0
 14  5  1  0
M  CHG  2  20   1  22  -1
M  END
>  <energy_score>  (340) 
-46.616469

>  <inchikey>  (340) 
None

>  <smiles>  (340) 
None

>  <ref_pdb>  (340) 
A0514a

>  <alias>  (340) 
None

>  <HIPPO Pose ID>  (340) 
498353

>  <name>  (340) 
P498353

>  <HIPPO Compound ID>  (340) 
292730

>  <ref_mols>  (340) 
A4331a,A0514a

>  <distance_score>  (340) 
1.008015

>  <inspiration_score>  (340) 
None

$$$$
P498356
     RDKit          3D

 22 22  0  0  0  0  0  0  0  0999 V2000
   12.6303   15.5039   21.5298 C   0  0  0  0  0  0  0  0  0  0  0  0
   11.7972   14.6147   20.6404 C   0  0  0  0  0  0  0  0  0  0  0  0
   10.5386   14.3289   21.2638 O   0  0  0  0  0  0  0  0  0  0  0  0
   10.6252   13.5446   22.3716 C   0  0  0  0  0  0  0  0  0  0  0  0
   11.6535   13.0287   22.8033 O   0  0  0  0  0  0  0  0  0  0  0  0
    9.2741   13.4828   23.0694 C   0  0  0  0  0  0  0  0  0  0  0  0
    9.4786   13.0368   24.4757 N   0  0  0  0  0  0  0  0  0  0  0  0
   10.2971   13.9394   25.2516 N   0  0  0  0  0  0  0  0  0  0  0  0
    8.2537   12.6377   25.0625 C   0  0  0  0  0  0  0  0  0  0  0  0
    7.5133   13.5536   25.8098 C   0  0  0  0  0  0  0  0  0  0  0  0
    6.4479   13.2501   26.5756 N   0  0  0  0  0  0  0  0  0  0  0  0
    6.0210   11.9670   26.5843 C   0  0  0  0  0  0  0  0  0  0  0  0
    4.9318   11.5894   27.5486 C   0  0  0  0  0  0  0  0  0  0  0  0
    3.8309   12.3762   27.4303 F   0  0  0  0  0  0  0  0  0  0  0  0
    5.3291   11.6805   28.8512 F   0  0  0  0  0  0  0  0  0  0  0  0
    4.4806   10.3100   27.4043 F   0  0  0  0  0  0  0  0  0  0  0  0
    6.6171   11.0002   25.8044 C   0  0  0  0  0  0  0  0  0  0  0  0
    7.7478   11.3258   25.0405 C   0  0  0  0  0  0  0  0  0  0  0  0
    8.3250   10.1345   24.3836 C   0  0  0  0  0  0  0  0  0  0  0  0
    7.9345    9.0205   24.7080 O   0  0  0  0  0  0  0  0  0  0  0  0
    9.2307   10.3905   23.4248 O   0  0  0  0  0  0  0  0  0  0  0  0
    9.7421    9.1814   22.8560 C   0  0  0  0  0  0  0  0  0  0  0  0
  1  2  1  0
  2  3  1  0
  3  4  1  0
  4  5  2  0
  4  6  1  0
  6  7  1  0
  7  8  1  0
  7  9  1  0
  9 10  2  0
 10 11  1  0
 11 12  2  0
 12 13  1  0
 13 14  1  0
 13 15  1  0
 13 16  1  0
 12 17  1  0
 17 18  2  0
 18 19  1  0
 19 20  2  0
 19 21  1  0
 21 22  1  0
 18  9  1  0
M  END
>  <energy_score>  (341) 
-45.308765

>  <inchikey>  (341) 
None

>  <smiles>  (341) 
None

>  <ref_pdb>  (341) 
A0514a

>  <alias>  (341) 
None

>  <HIPPO Pose ID>  (341) 
498356

>  <name>  (341) 
P498356

>  <HIPPO Compound ID>  (341) 
292732

>  <ref_mols>  (341) 
A4331a,A0514a

>  <distance_score>  (341) 
1.369983

>  <inspiration_score>  (341) 
None

$$$$
P498357
     RDKit          3D

 22 23  0  0  0  0  0  0  0  0999 V2000
    9.1356    8.4897   22.9224 C   0  0  0  0  0  0  0  0  0  0  0  0
    8.2741    9.4029   23.6093 O   0  0  0  0  0  0  0  0  0  0  0  0
    8.8828   10.5864   23.8369 C   0  0  0  0  0  0  0  0  0  0  0  0
   10.0440   10.8312   23.5768 O   0  0  0  0  0  0  0  0  0  0  0  0
    7.9904   11.5260   24.5435 C   0  0  0  0  0  0  0  0  0  0  0  0
    7.1829   11.0016   25.5504 C   0  0  0  0  0  0  0  0  0  0  0  0
    6.4806   11.8690   26.3761 C   0  0  0  0  0  0  0  0  0  0  0  0
    5.4980   11.3138   27.3782 C   0  0  0  0  0  0  0  0  0  0  0  0
    4.4014   12.1021   27.5479 F   0  0  0  0  0  0  0  0  0  0  0  0
    6.0409   11.1460   28.6185 F   0  0  0  0  0  0  0  0  0  0  0  0
    5.0110   10.0886   27.0274 F   0  0  0  0  0  0  0  0  0  0  0  0
    6.6626   13.2076   26.3304 N   0  0  0  0  0  0  0  0  0  0  0  0
    7.3881   13.6833   25.3032 C   0  0  0  0  0  0  0  0  0  0  0  0
    8.0082   12.9095   24.3207 C   0  0  0  0  0  0  0  0  0  0  0  0
    8.4273   13.4882   23.0732 N   0  0  0  0  0  0  0  0  0  0  0  0
    7.2819   14.2944   22.5811 C   0  0  0  0  0  0  0  0  0  0  0  0
    9.6562   14.2454   23.0903 N   0  0  0  0  0  0  0  0  0  0  0  0
    9.9699   14.7312   21.7029 C   0  0  0  0  0  0  0  0  0  0  0  0
   11.4718   14.8879   21.4061 C   0  0  0  0  0  0  0  0  0  0  0  0
   12.1942   15.2567   22.5827 O   0  0  0  0  0  0  0  0  0  0  0  0
   12.0304   14.2883   23.6181 C   0  0  0  0  0  0  0  0  0  0  0  0
   10.7945   13.4213   23.4954 C   0  0  0  0  0  0  0  0  0  0  0  0
  1  2  1  0
  2  3  1  0
  3  4  2  0
  3  5  1  0
  5  6  2  0
  6  7  1  0
  7  8  1  0
  8  9  1  0
  8 10  1  0
  8 11  1  0
  7 12  2  0
 12 13  1  0
 13 14  2  0
 14 15  1  0
 15 16  1  0
 15 17  1  0
 17 18  1  0
 18 19  1  0
 19 20  1  0
 20 21  1  0
 21 22  1  0
 14  5  1  0
 22 17  1  0
M  END
>  <energy_score>  (342) 
-33.50365

>  <inchikey>  (342) 
None

>  <smiles>  (342) 
None

>  <ref_pdb>  (342) 
A0514a

>  <alias>  (342) 
None

>  <HIPPO Pose ID>  (342) 
498357

>  <name>  (342) 
P498357

>  <HIPPO Compound ID>  (342) 
292733

>  <ref_mols>  (342) 
A4331a,A0514a

>  <distance_score>  (342) 
1.836928

>  <inspiration_score>  (342) 
None

$$$$
P498358
     RDKit          3D

 22 23  0  0  0  0  0  0  0  0999 V2000
    9.5141    8.7333   22.9553 C   0  0  0  0  0  0  0  0  0  0  0  0
    8.5733    9.5832   23.6064 O   0  0  0  0  0  0  0  0  0  0  0  0
    9.0616   10.8119   23.9086 C   0  0  0  0  0  0  0  0  0  0  0  0
   10.2075   11.1717   23.7366 O   0  0  0  0  0  0  0  0  0  0  0  0
    7.9641   11.5826   24.5427 C   0  0  0  0  0  0  0  0  0  0  0  0
    7.1057   10.8680   25.3921 C   0  0  0  0  0  0  0  0  0  0  0  0
    6.1041   11.5331   26.0921 C   0  0  0  0  0  0  0  0  0  0  0  0
    5.3179   10.8213   27.1588 C   0  0  0  0  0  0  0  0  0  0  0  0
    4.2418   11.5339   27.5981 F   0  0  0  0  0  0  0  0  0  0  0  0
    4.8331    9.6160   26.7607 F   0  0  0  0  0  0  0  0  0  0  0  0
    6.0598   10.5652   28.2768 F   0  0  0  0  0  0  0  0  0  0  0  0
    5.8281   12.8339   25.8884 N   0  0  0  0  0  0  0  0  0  0  0  0
    6.6109   13.4745   25.0165 C   0  0  0  0  0  0  0  0  0  0  0  0
    7.7897   12.9622   24.4479 C   0  0  0  0  0  0  0  0  0  0  0  0
    8.7787   13.9406   24.1541 N   0  0  0  0  0  0  0  0  0  0  0  0
    9.0863   14.6229   25.4250 C   0  0  0  0  0  0  0  0  0  0  0  0
    9.7064   13.7912   23.0932 N   0  0  0  0  0  0  0  0  0  0  0  0
    9.2952   14.5943   21.9291 C   0  0  0  0  0  0  0  0  0  0  0  0
   10.3744   14.8666   20.8768 C   0  0  0  0  0  0  0  0  0  0  0  0
   11.7742   15.0953   21.3965 C   0  0  0  0  0  0  0  0  0  0  0  0
   12.1068   14.0259   22.4067 C   0  0  0  0  0  0  0  0  0  0  0  0
   11.0915   13.9982   23.5204 C   0  0  0  0  0  0  0  0  0  0  0  0
  1  2  1  0
  2  3  1  0
  3  4  2  0
  3  5  1  0
  5  6  2  0
  6  7  1  0
  7  8  1  0
  8  9  1  0
  8 10  1  0
  8 11  1  0
  7 12  2  0
 12 13  1  0
 13 14  2  0
 14 15  1  0
 15 16  1  0
 15 17  1  0
 17 18  1  0
 18 19  1  0
 19 20  1  0
 20 21  1  0
 21 22  1  0
 14  5  1  0
 22 17  1  0
M  END
>  <energy_score>  (343) 
-32.916748

>  <inchikey>  (343) 
None

>  <smiles>  (343) 
None

>  <ref_pdb>  (343) 
A0514a

>  <alias>  (343) 
None

>  <HIPPO Pose ID>  (343) 
498358

>  <name>  (343) 
P498358

>  <HIPPO Compound ID>  (343) 
292734

>  <ref_mols>  (343) 
A4331a,A0514a

>  <distance_score>  (343) 
1.556483

>  <inspiration_score>  (343) 
None

$$$$
P498359
     RDKit          3D

 22 23  0  0  0  0  0  0  0  0999 V2000
    9.3753    8.7068   22.9774 C   0  0  0  0  0  0  0  0  0  0  0  0
    8.5058    9.5962   23.6802 O   0  0  0  0  0  0  0  0  0  0  0  0
    9.0233   10.8353   23.8350 C   0  0  0  0  0  0  0  0  0  0  0  0
   10.1286   11.1995   23.4841 O   0  0  0  0  0  0  0  0  0  0  0  0
    8.0982   11.6928   24.5966 C   0  0  0  0  0  0  0  0  0  0  0  0
    7.2958   11.1051   25.5736 C   0  0  0  0  0  0  0  0  0  0  0  0
    6.4950   11.9122   26.3728 C   0  0  0  0  0  0  0  0  0  0  0  0
    5.5174   11.2774   27.3341 C   0  0  0  0  0  0  0  0  0  0  0  0
    4.3865   12.0108   27.5147 F   0  0  0  0  0  0  0  0  0  0  0  0
    6.0481   11.0801   28.5745 F   0  0  0  0  0  0  0  0  0  0  0  0
    5.0948   10.0487   26.9199 F   0  0  0  0  0  0  0  0  0  0  0  0
    6.5580   13.2606   26.3185 N   0  0  0  0  0  0  0  0  0  0  0  0
    7.2686   13.7913   25.3109 C   0  0  0  0  0  0  0  0  0  0  0  0
    8.0186   13.0702   24.3827 C   0  0  0  0  0  0  0  0  0  0  0  0
    8.3452   13.6925   23.1530 N   0  0  0  0  0  0  0  0  0  0  0  0
    7.2126   14.0272   22.3935 N   0  0  0  0  0  0  0  0  0  0  0  0
    9.6043   14.1560   22.6848 C   0  0  0  0  0  0  0  0  0  0  0  0
   10.7758   13.9833   23.4078 C   0  0  0  0  0  0  0  0  0  0  0  0
   11.9655   14.4005   22.8447 C   0  0  0  0  0  0  0  0  0  0  0  0
   12.0509   15.0500   21.6723 N   0  0  0  0  0  0  0  0  0  0  0  0
   10.9289   15.2621   20.9680 N   0  0  0  0  0  0  0  0  0  0  0  0
    9.7534   14.8137   21.4604 C   0  0  0  0  0  0  0  0  0  0  0  0
  1  2  1  0
  2  3  1  0
  3  4  2  0
  3  5  1  0
  5  6  2  0
  6  7  1  0
  7  8  1  0
  8  9  1  0
  8 10  1  0
  8 11  1  0
  7 12  2  0
 12 13  1  0
 13 14  2  0
 14 15  1  0
 15 16  1  0
 15 17  1  0
 17 18  2  0
 18 19  1  0
 19 20  2  0
 20 21  1  0
 21 22  2  0
 14  5  1  0
 22 17  1  0
M  END
>  <energy_score>  (344) 
-38.873171

>  <inchikey>  (344) 
None

>  <smiles>  (344) 
None

>  <ref_pdb>  (344) 
A0514a

>  <alias>  (344) 
None

>  <HIPPO Pose ID>  (344) 
498359

>  <name>  (344) 
P498359

>  <HIPPO Compound ID>  (344) 
292736

>  <ref_mols>  (344) 
A4331a,A0514a

>  <distance_score>  (344) 
1.428051

>  <inspiration_score>  (344) 
None

$$$$
P498360
     RDKit          3D

 22 23  0  0  0  0  0  0  0  0999 V2000
    9.3649    8.4946   23.1919 C   0  0  0  0  0  0  0  0  0  0  0  0
    8.6975    9.4426   24.0277 O   0  0  0  0  0  0  0  0  0  0  0  0
    8.9872   10.7291   23.7295 C   0  0  0  0  0  0  0  0  0  0  0  0
    9.7664   11.0916   22.8674 O   0  0  0  0  0  0  0  0  0  0  0  0
    8.1738   11.6689   24.5321 C   0  0  0  0  0  0  0  0  0  0  0  0
    7.0542   11.2335   25.2362 C   0  0  0  0  0  0  0  0  0  0  0  0
    6.3073   12.1638   25.9541 C   0  0  0  0  0  0  0  0  0  0  0  0
    5.1858   11.7074   26.8512 C   0  0  0  0  0  0  0  0  0  0  0  0
    5.3953   12.0465   28.1532 F   0  0  0  0  0  0  0  0  0  0  0  0
    3.9675   12.2251   26.5304 F   0  0  0  0  0  0  0  0  0  0  0  0
    5.0217   10.3513   26.8615 F   0  0  0  0  0  0  0  0  0  0  0  0
    6.5863   13.4870   25.9349 N   0  0  0  0  0  0  0  0  0  0  0  0
    7.6734   13.8695   25.2486 C   0  0  0  0  0  0  0  0  0  0  0  0
    8.5490   13.0142   24.5892 C   0  0  0  0  0  0  0  0  0  0  0  0
    9.8568   13.4026   24.3061 N   0  0  0  0  0  0  0  0  0  0  0  0
   10.5786   13.6762   25.4932 N   0  0  0  0  0  0  0  0  0  0  0  0
   10.2373   14.2037   23.1263 C   0  0  2  0  0  0  0  0  0  0  0  0
    9.1742   14.4644   22.0745 C   0  0  0  0  0  0  0  0  0  0  0  0
    9.6516   15.3736   20.9390 C   0  0  0  0  0  0  0  0  0  0  0  0
   11.0188   15.0898   20.3403 C   0  0  0  0  0  0  0  0  0  0  0  0
   12.3093   15.0119   21.5922 S   0  0  0  0  0  0  0  0  0  0  0  0
   11.5588   13.6952   22.5659 C   0  0  0  0  0  0  0  0  0  0  0  0
  1  2  1  0
  2  3  1  0
  3  4  2  0
  3  5  1  0
  5  6  2  0
  6  7  1  0
  7  8  1  0
  8  9  1  0
  8 10  1  0
  8 11  1  0
  7 12  2  0
 12 13  1  0
 13 14  2  0
 14 15  1  0
 15 16  1  0
 17 15  1  1
 17 18  1  0
 18 19  1  0
 19 20  1  0
 20 21  1  0
 21 22  1  0
 14  5  1  0
 22 17  1  0
M  END
>  <energy_score>  (345) 
-32.567696

>  <inchikey>  (345) 
None

>  <smiles>  (345) 
None

>  <ref_pdb>  (345) 
A0514a

>  <alias>  (345) 
None

>  <HIPPO Pose ID>  (345) 
498360

>  <name>  (345) 
P498360

>  <HIPPO Compound ID>  (345) 
292737

>  <ref_mols>  (345) 
A4331a,A0514a

>  <distance_score>  (345) 
1.639602

>  <inspiration_score>  (345) 
None

$$$$
P498362
     RDKit          3D

 22 23  0  0  0  0  0  0  0  0999 V2000
    9.5238    8.7355   22.9551 C   0  0  0  0  0  0  0  0  0  0  0  0
    8.6574    9.6774   23.5828 O   0  0  0  0  0  0  0  0  0  0  0  0
    9.2408   10.8696   23.8420 C   0  0  0  0  0  0  0  0  0  0  0  0
   10.4062   11.1560   23.6364 O   0  0  0  0  0  0  0  0  0  0  0  0
    8.2377   11.7792   24.4435 C   0  0  0  0  0  0  0  0  0  0  0  0
    7.2355   11.1981   25.2274 C   0  0  0  0  0  0  0  0  0  0  0  0
    6.3693   12.0091   25.9501 C   0  0  0  0  0  0  0  0  0  0  0  0
    5.4396   11.3743   26.9549 C   0  0  0  0  0  0  0  0  0  0  0  0
    4.2706   12.0465   27.1340 F   0  0  0  0  0  0  0  0  0  0  0  0
    5.0872   10.0985   26.6220 F   0  0  0  0  0  0  0  0  0  0  0  0
    6.0032   11.2717   28.1952 F   0  0  0  0  0  0  0  0  0  0  0  0
    6.4087   13.3555   25.8674 N   0  0  0  0  0  0  0  0  0  0  0  0
    7.3732   13.8861   25.0923 C   0  0  0  0  0  0  0  0  0  0  0  0
    8.3592   13.1752   24.4027 C   0  0  0  0  0  0  0  0  0  0  0  0
    9.5302   13.8904   24.0783 N   0  0  0  0  0  0  0  0  0  0  0  0
   10.4861   13.6285   25.1121 N   0  0  0  0  0  0  0  0  0  0  0  0
   10.0289   13.9096   22.6537 C   0  0  0  0  0  0  0  0  0  0  0  0
    9.1289   14.7945   21.7780 C   0  0  0  0  0  0  0  0  0  0  0  0
    9.8417   15.6870   20.7658 C   0  0  0  0  0  0  0  0  0  0  0  0
   11.1783   15.9954   21.1001 O   0  0  0  0  0  0  0  0  0  0  0  0
   11.9622   14.8452   21.3165 C   0  0  0  0  0  0  0  0  0  0  0  0
   11.5210   14.2933   22.6373 C   0  0  0  0  0  0  0  0  0  0  0  0
  1  2  1  0
  2  3  1  0
  3  4  2  0
  3  5  1  0
  5  6  2  0
  6  7  1  0
  7  8  1  0
  8  9  1  0
  8 10  1  0
  8 11  1  0
  7 12  2  0
 12 13  1  0
 13 14  2  0
 14 15  1  0
 15 16  1  0
 15 17  1  0
 17 18  1  0
 18 19  1  0
 19 20  1  0
 20 21  1  0
 21 22  1  0
 14  5  1  0
 22 17  1  0
M  END
>  <energy_score>  (346) 
-25.683638

>  <inchikey>  (346) 
None

>  <smiles>  (346) 
None

>  <ref_pdb>  (346) 
A0514a

>  <alias>  (346) 
None

>  <HIPPO Pose ID>  (346) 
498362

>  <name>  (346) 
P498362

>  <HIPPO Compound ID>  (346) 
292739

>  <ref_mols>  (346) 
A4331a,A0514a

>  <distance_score>  (346) 
1.758189

>  <inspiration_score>  (346) 
None

$$$$
P498363
     RDKit          3D

 22 23  0  0  0  0  0  0  0  0999 V2000
    9.4338    8.7394   22.9883 C   0  0  0  0  0  0  0  0  0  0  0  0
    8.5551    9.6250   23.6839 O   0  0  0  0  0  0  0  0  0  0  0  0
    9.0506   10.8754   23.8188 C   0  0  0  0  0  0  0  0  0  0  0  0
   10.1428   11.2618   23.4494 O   0  0  0  0  0  0  0  0  0  0  0  0
    8.1208   11.7226   24.5858 C   0  0  0  0  0  0  0  0  0  0  0  0
    7.3126   11.1227   25.5515 C   0  0  0  0  0  0  0  0  0  0  0  0
    6.4978   11.9182   26.3481 C   0  0  0  0  0  0  0  0  0  0  0  0
    5.5215   11.2689   27.2996 C   0  0  0  0  0  0  0  0  0  0  0  0
    4.3824   11.9896   27.4840 F   0  0  0  0  0  0  0  0  0  0  0  0
    5.1110   10.0375   26.8790 F   0  0  0  0  0  0  0  0  0  0  0  0
    6.0481   11.0679   28.5421 F   0  0  0  0  0  0  0  0  0  0  0  0
    6.5463   13.2669   26.3005 N   0  0  0  0  0  0  0  0  0  0  0  0
    7.2580   13.8064   25.2969 C   0  0  0  0  0  0  0  0  0  0  0  0
    8.0407   13.1012   24.3839 C   0  0  0  0  0  0  0  0  0  0  0  0
    8.4122   13.7557   23.1926 N   0  0  0  0  0  0  0  0  0  0  0  0
    7.3336   13.8770   22.2922 N   0  0  0  0  0  0  0  0  0  0  0  0
    9.6765   14.1677   22.6986 C   0  0  0  0  0  0  0  0  0  0  0  0
   10.8427   14.0229   23.4277 C   0  0  0  0  0  0  0  0  0  0  0  0
   12.0470   14.3837   22.8401 C   0  0  0  0  0  0  0  0  0  0  0  0
   12.0396   14.9351   21.5763 C   0  0  0  0  0  0  0  0  0  0  0  0
   10.8998   15.1403   20.9031 N   0  0  0  0  0  0  0  0  0  0  0  0
    9.7193   14.7491   21.4687 N   0  0  0  0  0  0  0  0  0  0  0  0
  1  2  1  0
  2  3  1  0
  3  4  2  0
  3  5  1  0
  5  6  2  0
  6  7  1  0
  7  8  1  0
  8  9  1  0
  8 10  1  0
  8 11  1  0
  7 12  2  0
 12 13  1  0
 13 14  2  0
 14 15  1  0
 15 16  1  0
 15 17  1  0
 17 18  2  0
 18 19  1  0
 19 20  2  0
 20 21  1  0
 21 22  2  0
 14  5  1  0
 22 17  1  0
M  END
>  <energy_score>  (347) 
-41.064397

>  <inchikey>  (347) 
None

>  <smiles>  (347) 
None

>  <ref_pdb>  (347) 
A0514a

>  <alias>  (347) 
None

>  <HIPPO Pose ID>  (347) 
498363

>  <name>  (347) 
P498363

>  <HIPPO Compound ID>  (347) 
292740

>  <ref_mols>  (347) 
A4331a,A0514a

>  <distance_score>  (347) 
1.613977

>  <inspiration_score>  (347) 
None

$$$$
P498365
     RDKit          3D

 22 23  0  0  0  0  0  0  0  0999 V2000
    9.5686    8.4105   23.3902 C   0  0  0  0  0  0  0  0  0  0  0  0
    8.8523    9.2770   24.2700 O   0  0  0  0  0  0  0  0  0  0  0  0
    8.8819   10.5517   23.8305 C   0  0  0  0  0  0  0  0  0  0  0  0
    9.4003   10.9065   22.7936 O   0  0  0  0  0  0  0  0  0  0  0  0
    8.1302   11.4588   24.7144 C   0  0  0  0  0  0  0  0  0  0  0  0
    7.0448   10.9124   25.4034 C   0  0  0  0  0  0  0  0  0  0  0  0
    6.2756   11.7257   26.2227 C   0  0  0  0  0  0  0  0  0  0  0  0
    5.2883   11.1083   27.1763 C   0  0  0  0  0  0  0  0  0  0  0  0
    4.1647   11.8544   27.3512 F   0  0  0  0  0  0  0  0  0  0  0  0
    4.8634    9.8728   26.7910 F   0  0  0  0  0  0  0  0  0  0  0  0
    5.8194   10.9295   28.4225 F   0  0  0  0  0  0  0  0  0  0  0  0
    6.4537   13.0591   26.2795 N   0  0  0  0  0  0  0  0  0  0  0  0
    7.4821   13.5550   25.5787 C   0  0  0  0  0  0  0  0  0  0  0  0
    8.4463   12.8124   24.8864 C   0  0  0  0  0  0  0  0  0  0  0  0
    9.7105   13.3977   24.6423 N   0  0  0  0  0  0  0  0  0  0  0  0
   10.1305   14.3594   25.6061 N   0  0  0  0  0  0  0  0  0  0  0  0
   10.1796   13.6123   23.2433 C   0  0  0  0  0  0  0  0  0  0  0  0
    9.0970   14.3111   22.4281 C   0  0  0  0  0  0  0  0  0  0  0  0
    9.5721   14.6638   21.0512 C   0  0  0  0  0  0  0  0  0  0  0  0
   11.0369   15.6602   20.9914 S   0  0  0  0  0  0  0  0  0  0  0  0
   12.1375   14.5577   21.8689 C   0  0  0  0  0  0  0  0  0  0  0  0
   11.5841   14.2525   23.2406 C   0  0  0  0  0  0  0  0  0  0  0  0
  1  2  1  0
  2  3  1  0
  3  4  2  0
  3  5  1  0
  5  6  2  0
  6  7  1  0
  7  8  1  0
  8  9  1  0
  8 10  1  0
  8 11  1  0
  7 12  2  0
 12 13  1  0
 13 14  2  0
 14 15  1  0
 15 16  1  0
 15 17  1  0
 17 18  1  0
 18 19  1  0
 19 20  1  0
 20 21  1  0
 21 22  1  0
 14  5  1  0
 22 17  1  0
M  END
>  <energy_score>  (348) 
-35.515805

>  <inchikey>  (348) 
None

>  <smiles>  (348) 
None

>  <ref_pdb>  (348) 
A0514a

>  <alias>  (348) 
None

>  <HIPPO Pose ID>  (348) 
498365

>  <name>  (348) 
P498365

>  <HIPPO Compound ID>  (348) 
292744

>  <ref_mols>  (348) 
A4331a,A0514a

>  <distance_score>  (348) 
1.761378

>  <inspiration_score>  (348) 
None

$$$$
P498370
     RDKit          3D

 22 23  0  0  0  0  0  0  0  0999 V2000
    9.4435    8.7348   22.9534 C   0  0  0  0  0  0  0  0  0  0  0  0
    8.5391    9.6323   23.5941 O   0  0  0  0  0  0  0  0  0  0  0  0
    9.0775   10.8453   23.8544 C   0  0  0  0  0  0  0  0  0  0  0  0
   10.2176   11.1837   23.6019 O   0  0  0  0  0  0  0  0  0  0  0  0
    8.1198   11.6879   24.5914 C   0  0  0  0  0  0  0  0  0  0  0  0
    7.3067   11.0165   25.5196 C   0  0  0  0  0  0  0  0  0  0  0  0
    6.4566   11.7323   26.3517 C   0  0  0  0  0  0  0  0  0  0  0  0
    5.4913   11.0147   27.2575 C   0  0  0  0  0  0  0  0  0  0  0  0
    4.3638   11.7306   27.5242 F   0  0  0  0  0  0  0  0  0  0  0  0
    5.0621    9.8277   26.7440 F   0  0  0  0  0  0  0  0  0  0  0  0
    6.0333   10.7052   28.4722 F   0  0  0  0  0  0  0  0  0  0  0  0
    6.4734   13.0721   26.3886 N   0  0  0  0  0  0  0  0  0  0  0  0
    7.1745   13.6738   25.4139 C   0  0  0  0  0  0  0  0  0  0  0  0
    7.9909   13.0681   24.4384 C   0  0  0  0  0  0  0  0  0  0  0  0
    8.4090   13.8790   23.3810 N   0  0  0  0  0  0  0  0  0  0  0  0
    7.3661   14.7016   22.9195 N   0  0  0  0  0  0  0  0  0  0  0  0
    9.7113   13.8393   22.6634 C   0  0  1  0  0  0  0  0  0  0  0  0
    9.7166   14.8083   21.4667 C   0  0  0  0  0  0  0  0  0  0  0  0
   11.0771   15.0129   20.8361 C   0  0  0  0  0  0  0  0  0  0  0  0
   12.2198   14.7489   21.7923 C   0  0  0  0  0  0  0  0  0  0  0  0
   11.8466   15.0313   23.1387 O   0  0  0  0  0  0  0  0  0  0  0  0
   10.8922   14.0882   23.6218 C   0  0  0  0  0  0  0  0  0  0  0  0
  1  2  1  0
  2  3  1  0
  3  4  2  0
  3  5  1  0
  5  6  2  0
  6  7  1  0
  7  8  1  0
  8  9  1  0
  8 10  1  0
  8 11  1  0
  7 12  2  0
 12 13  1  0
 13 14  2  0
 14 15  1  0
 15 16  1  0
 17 15  1  1
 17 18  1  0
 18 19  1  0
 19 20  1  0
 20 21  1  0
 21 22  1  0
 14  5  1  0
 22 17  1  0
M  END
>  <energy_score>  (349) 
-20.965274

>  <inchikey>  (349) 
None

>  <smiles>  (349) 
None

>  <ref_pdb>  (349) 
A0514a

>  <alias>  (349) 
None

>  <HIPPO Pose ID>  (349) 
498370

>  <name>  (349) 
P498370

>  <HIPPO Compound ID>  (349) 
292748

>  <ref_mols>  (349) 
A4331a,A0514a

>  <distance_score>  (349) 
1.764521

>  <inspiration_score>  (349) 
None

$$$$
P498371
     RDKit          3D

 22 23  0  0  0  0  0  0  0  0999 V2000
    9.3433    8.8344   23.1069 C   0  0  0  0  0  0  0  0  0  0  0  0
    8.5106    9.7473   23.8312 O   0  0  0  0  0  0  0  0  0  0  0  0
    9.0507   10.9846   23.9559 C   0  0  0  0  0  0  0  0  0  0  0  0
   10.1739   11.2939   23.6039 O   0  0  0  0  0  0  0  0  0  0  0  0
    8.0685   11.9124   24.5774 C   0  0  0  0  0  0  0  0  0  0  0  0
    7.0168   11.4131   25.3483 C   0  0  0  0  0  0  0  0  0  0  0  0
    6.1636   12.3082   25.9969 C   0  0  0  0  0  0  0  0  0  0  0  0
    5.1729   11.8196   27.0223 C   0  0  0  0  0  0  0  0  0  0  0  0
    5.0187   10.4718   27.0124 F   0  0  0  0  0  0  0  0  0  0  0  0
    5.5619   12.1152   28.2984 F   0  0  0  0  0  0  0  0  0  0  0  0
    3.9156   12.3263   26.8825 F   0  0  0  0  0  0  0  0  0  0  0  0
    6.2508   13.6456   25.8267 N   0  0  0  0  0  0  0  0  0  0  0  0
    7.2486   14.0956   25.0566 C   0  0  0  0  0  0  0  0  0  0  0  0
    8.2447   13.2984   24.5041 C   0  0  0  0  0  0  0  0  0  0  0  0
    9.5015   13.8999   24.2838 N   0  0  0  0  0  0  0  0  0  0  0  0
   10.2719   13.9857   25.4785 N   0  0  0  0  0  0  0  0  0  0  0  0
   10.1121   14.1585   23.0268 C   0  0  0  0  0  0  0  0  0  0  0  0
   11.5103   14.1231   22.9204 C   0  0  0  0  0  0  0  0  0  0  0  0
   12.2112   14.5556   21.8564 N   0  0  0  0  0  0  0  0  0  0  0  0
   11.4488   14.9742   20.8325 C   0  0  0  0  0  0  0  0  0  0  0  0
   10.0667   15.0089   20.9047 C   0  0  0  0  0  0  0  0  0  0  0  0
    9.3637   14.5851   21.9856 N   0  0  0  0  0  0  0  0  0  0  0  0
  1  2  1  0
  2  3  1  0
  3  4  2  0
  3  5  1  0
  5  6  2  0
  6  7  1  0
  7  8  1  0
  8  9  1  0
  8 10  1  0
  8 11  1  0
  7 12  2  0
 12 13  1  0
 13 14  2  0
 14 15  1  0
 15 16  1  0
 15 17  1  0
 17 18  2  0
 18 19  1  0
 19 20  2  0
 20 21  1  0
 21 22  2  0
 14  5  1  0
 22 17  1  0
M  END
>  <energy_score>  (350) 
-6.565343

>  <inchikey>  (350) 
None

>  <smiles>  (350) 
None

>  <ref_pdb>  (350) 
A0514a

>  <alias>  (350) 
None

>  <HIPPO Pose ID>  (350) 
498371

>  <name>  (350) 
P498371

>  <HIPPO Compound ID>  (350) 
292752

>  <ref_mols>  (350) 
A4331a,A0514a

>  <distance_score>  (350) 
1.550656

>  <inspiration_score>  (350) 
None

$$$$
P498372
     RDKit          3D

 22 23  0  0  0  0  0  0  0  0999 V2000
    9.5426    8.7937   22.9875 C   0  0  0  0  0  0  0  0  0  0  0  0
    8.6797    9.7062   23.6645 O   0  0  0  0  0  0  0  0  0  0  0  0
    9.2067   10.9410   23.8350 C   0  0  0  0  0  0  0  0  0  0  0  0
   10.3214   11.2927   23.4953 O   0  0  0  0  0  0  0  0  0  0  0  0
    8.2384   11.8056   24.5540 C   0  0  0  0  0  0  0  0  0  0  0  0
    7.2018   11.2050   25.2701 C   0  0  0  0  0  0  0  0  0  0  0  0
    6.3711   11.9916   26.0594 C   0  0  0  0  0  0  0  0  0  0  0  0
    5.4077   11.3186   27.0050 C   0  0  0  0  0  0  0  0  0  0  0  0
    4.2394   11.9929   27.1772 F   0  0  0  0  0  0  0  0  0  0  0  0
    5.9347   11.1584   28.2557 F   0  0  0  0  0  0  0  0  0  0  0  0
    5.0590   10.0607   26.6080 F   0  0  0  0  0  0  0  0  0  0  0  0
    6.4782   13.3380   26.1039 N   0  0  0  0  0  0  0  0  0  0  0  0
    7.4700   13.8920   25.3849 C   0  0  0  0  0  0  0  0  0  0  0  0
    8.4209   13.1900   24.6504 C   0  0  0  0  0  0  0  0  0  0  0  0
    9.6184   13.8611   24.3325 N   0  0  0  0  0  0  0  0  0  0  0  0
   10.6843   13.5171   25.2279 N   0  0  0  0  0  0  0  0  0  0  0  0
   10.0645   14.2629   23.0432 C   0  0  0  0  0  0  0  0  0  0  0  0
    9.1889   14.4891   22.0603 N   0  0  0  0  0  0  0  0  0  0  0  0
    9.7174   14.9769   20.9246 C   0  0  0  0  0  0  0  0  0  0  0  0
   11.0573   15.1668   20.6987 C   0  0  0  0  0  0  0  0  0  0  0  0
   11.8730   14.9221   21.7642 C   0  0  0  0  0  0  0  0  0  0  0  0
   11.4034   14.5106   22.9498 N   0  0  0  0  0  0  0  0  0  0  0  0
  1  2  1  0
  2  3  1  0
  3  4  2  0
  3  5  1  0
  5  6  2  0
  6  7  1  0
  7  8  1  0
  8  9  1  0
  8 10  1  0
  8 11  1  0
  7 12  2  0
 12 13  1  0
 13 14  2  0
 14 15  1  0
 15 16  1  0
 15 17  1  0
 17 18  2  0
 18 19  1  0
 19 20  2  0
 20 21  1  0
 21 22  2  0
 14  5  1  0
 22 17  1  0
M  END
>  <energy_score>  (351) 
-50.928504

>  <inchikey>  (351) 
None

>  <smiles>  (351) 
None

>  <ref_pdb>  (351) 
A0514a

>  <alias>  (351) 
None

>  <HIPPO Pose ID>  (351) 
498372

>  <name>  (351) 
P498372

>  <HIPPO Compound ID>  (351) 
292753

>  <ref_mols>  (351) 
A4331a,A0514a

>  <distance_score>  (351) 
1.876526

>  <inspiration_score>  (351) 
None

$$$$
P498373
     RDKit          3D

 22 23  0  0  0  0  0  0  0  0999 V2000
    9.6249    8.7092   22.9403 C   0  0  0  0  0  0  0  0  0  0  0  0
    8.8902    9.6198   23.7494 O   0  0  0  0  0  0  0  0  0  0  0  0
    9.2432   10.9201   23.6174 C   0  0  0  0  0  0  0  0  0  0  0  0
   10.1263   11.3482   22.9042 O   0  0  0  0  0  0  0  0  0  0  0  0
    8.4283   11.7488   24.5288 C   0  0  0  0  0  0  0  0  0  0  0  0
    7.4675   11.1173   25.3418 C   0  0  0  0  0  0  0  0  0  0  0  0
    6.6947   11.8817   26.2025 C   0  0  0  0  0  0  0  0  0  0  0  0
    5.6069   11.2298   27.0243 C   0  0  0  0  0  0  0  0  0  0  0  0
    4.4870   11.9915   27.1572 F   0  0  0  0  0  0  0  0  0  0  0  0
    5.1894   10.0412   26.5016 F   0  0  0  0  0  0  0  0  0  0  0  0
    6.0138   10.9382   28.2944 F   0  0  0  0  0  0  0  0  0  0  0  0
    6.9114   13.2115   26.3490 N   0  0  0  0  0  0  0  0  0  0  0  0
    7.7851   13.8058   25.5024 C   0  0  0  0  0  0  0  0  0  0  0  0
    8.5759   13.1432   24.5682 C   0  0  0  0  0  0  0  0  0  0  0  0
    9.0098   13.9401   23.4682 N   0  0  0  0  0  0  0  0  0  0  0  0
   10.3659   14.1613   23.2839 N   0  0  0  0  0  0  0  0  0  0  0  0
   10.7411   14.7180   22.1598 C   0  0  0  0  0  0  0  0  0  0  0  0
   12.1936   14.8278   21.8090 C   0  0  0  0  0  0  0  0  0  0  0  0
    9.8276   15.3213   21.1409 C   0  0  0  0  0  0  0  0  0  0  0  0
    8.3865   15.0946   21.4339 C   0  0  0  0  0  0  0  0  0  0  0  0
    8.1241   14.0098   22.4059 C   0  0  0  0  0  0  0  0  0  0  0  0
    7.1326   13.2902   22.2805 O   0  0  0  0  0  0  0  0  0  0  0  0
  1  2  1  0
  2  3  1  0
  3  4  2  0
  3  5  1  0
  5  6  2  0
  6  7  1  0
  7  8  1  0
  8  9  1  0
  8 10  1  0
  8 11  1  0
  7 12  2  0
 12 13  1  0
 13 14  2  0
 14 15  1  0
 15 16  1  0
 16 17  2  0
 17 18  1  0
 17 19  1  0
 19 20  1  0
 20 21  1  0
 21 22  2  0
 14  5  1  0
 21 15  1  0
M  END
>  <energy_score>  (352) 
-11.809037

>  <inchikey>  (352) 
None

>  <smiles>  (352) 
None

>  <ref_pdb>  (352) 
A0514a

>  <alias>  (352) 
None

>  <HIPPO Pose ID>  (352) 
498373

>  <name>  (352) 
P498373

>  <HIPPO Compound ID>  (352) 
292755

>  <ref_mols>  (352) 
A4331a,A0514a

>  <distance_score>  (352) 
1.996724

>  <inspiration_score>  (352) 
None

$$$$
P498377
     RDKit          3D

 22 23  0  0  0  0  0  0  0  0999 V2000
   12.2702   15.1117   20.9660 C   0  0  0  0  0  0  0  0  0  0  0  0
   11.0177   15.0378   20.1085 C   0  0  0  0  0  0  0  0  0  0  0  0
    9.5289   15.1946   21.0801 S   0  0  0  0  0  0  0  0  0  0  0  0
    8.4173   14.4366   20.5587 O   0  0  0  0  0  0  0  0  0  0  0  0
    9.3473   16.6007   21.3271 O   0  0  0  0  0  0  0  0  0  0  0  0
    9.9626   14.3194   22.5397 C   0  0  0  0  0  0  0  0  0  0  0  0
    8.7524   13.9603   23.3593 C   0  0  0  0  0  0  0  0  0  0  0  0
    9.1690   12.9965   24.4102 N   0  0  0  0  0  0  0  0  0  0  0  0
   10.2809   13.3503   25.2198 N   0  0  0  0  0  0  0  0  0  0  0  0
    8.0407   12.5610   25.1382 C   0  0  0  0  0  0  0  0  0  0  0  0
    7.3429   13.4645   25.9324 C   0  0  0  0  0  0  0  0  0  0  0  0
    6.3034   13.1589   26.7195 N   0  0  0  0  0  0  0  0  0  0  0  0
    5.8548   11.8891   26.7333 C   0  0  0  0  0  0  0  0  0  0  0  0
    4.7115   11.5755   27.6490 C   0  0  0  0  0  0  0  0  0  0  0  0
    3.4566   12.4106   27.5653 C   0  0  0  0  0  0  0  0  0  0  0  0
    4.3645   12.5591   28.7476 C   0  0  0  0  0  0  0  0  0  0  0  0
    6.4564   10.9205   25.9541 C   0  0  0  0  0  0  0  0  0  0  0  0
    7.5673   11.2467   25.1587 C   0  0  0  0  0  0  0  0  0  0  0  0
    8.1548   10.0843   24.4648 C   0  0  0  0  0  0  0  0  0  0  0  0
    7.7691    8.9589   24.7515 O   0  0  0  0  0  0  0  0  0  0  0  0
    9.0916   10.3720   23.5409 O   0  0  0  0  0  0  0  0  0  0  0  0
    9.6533    9.1945   22.9545 C   0  0  0  0  0  0  0  0  0  0  0  0
  1  2  1  0
  2  3  1  0
  3  4  2  0
  3  5  2  0
  3  6  1  0
  6  7  1  0
  7  8  1  0
  8  9  1  0
  8 10  1  0
 10 11  2  0
 11 12  1  0
 12 13  2  0
 13 14  1  0
 14 15  1  0
 15 16  1  0
 13 17  1  0
 17 18  2  0
 18 19  1  0
 19 20  2  0
 19 21  1  0
 21 22  1  0
 18 10  1  0
 16 14  1  0
M  END
>  <energy_score>  (353) 
-32.637617

>  <inchikey>  (353) 
None

>  <smiles>  (353) 
None

>  <ref_pdb>  (353) 
A0514a

>  <alias>  (353) 
None

>  <HIPPO Pose ID>  (353) 
498377

>  <name>  (353) 
P498377

>  <HIPPO Compound ID>  (353) 
292764

>  <ref_mols>  (353) 
A4331a,A0514a

>  <distance_score>  (353) 
1.456875

>  <inspiration_score>  (353) 
None

$$$$
P498381
     RDKit          3D

 22 24  0  0  0  0  0  0  0  0999 V2000
    9.5316    8.7199   23.0160 C   0  0  0  0  0  0  0  0  0  0  0  0
    8.6295    9.5744   23.7139 O   0  0  0  0  0  0  0  0  0  0  0  0
    9.1067   10.8301   23.8885 C   0  0  0  0  0  0  0  0  0  0  0  0
   10.2282   11.2076   23.6114 O   0  0  0  0  0  0  0  0  0  0  0  0
    8.0389   11.6752   24.4613 C   0  0  0  0  0  0  0  0  0  0  0  0
    7.0843   11.0892   25.2972 C   0  0  0  0  0  0  0  0  0  0  0  0
    6.1456   11.8898   25.9349 C   0  0  0  0  0  0  0  0  0  0  0  0
    5.2707   11.3473   27.0298 C   0  0  0  0  0  0  0  0  0  0  0  0
    5.4941   11.8407   28.4410 C   0  0  0  0  0  0  0  0  0  0  0  0
    4.2611   12.2556   27.7020 C   0  0  0  0  0  0  0  0  0  0  0  0
    6.0356   13.1974   25.6362 N   0  0  0  0  0  0  0  0  0  0  0  0
    6.9250   13.7299   24.7870 C   0  0  0  0  0  0  0  0  0  0  0  0
    8.0478   13.0634   24.3102 C   0  0  0  0  0  0  0  0  0  0  0  0
    9.2735   13.7797   24.2730 N   0  0  0  0  0  0  0  0  0  0  0  0
    9.5314   14.5035   25.4861 N   0  0  0  0  0  0  0  0  0  0  0  0
   10.1235   14.1073   23.1690 C   0  0  0  0  0  0  0  0  0  0  0  0
   11.4850   14.1337   23.4452 C   0  0  0  0  0  0  0  0  0  0  0  0
   12.3093   14.6483   22.4876 C   0  0  0  0  0  0  0  0  0  0  0  0
   11.8727   15.1311   21.3361 N   0  0  0  0  0  0  0  0  0  0  0  0
   10.5552   15.0459   21.1254 C   0  0  0  0  0  0  0  0  0  0  0  0
   10.0926   15.7058   19.8784 C   0  0  0  0  0  0  0  0  0  0  0  0
    9.6380   14.5295   21.9881 N   0  0  0  0  0  0  0  0  0  0  0  0
  1  2  1  0
  2  3  1  0
  3  4  2  0
  3  5  1  0
  5  6  2  0
  6  7  1  0
  7  8  1  0
  8  9  1  0
  9 10  1  0
  7 11  2  0
 11 12  1  0
 12 13  2  0
 13 14  1  0
 14 15  1  0
 14 16  1  0
 16 17  2  0
 17 18  1  0
 18 19  2  0
 19 20  1  0
 20 21  1  0
 20 22  2  0
 13  5  1  0
 22 16  1  0
 10  8  1  0
M  END
>  <energy_score>  (354) 
-9.337431

>  <inchikey>  (354) 
None

>  <smiles>  (354) 
None

>  <ref_pdb>  (354) 
A0514a

>  <alias>  (354) 
None

>  <HIPPO Pose ID>  (354) 
498381

>  <name>  (354) 
P498381

>  <HIPPO Compound ID>  (354) 
292773

>  <ref_mols>  (354) 
A4331a,A0514a

>  <distance_score>  (354) 
1.523071

>  <inspiration_score>  (354) 
None

$$$$
P498384
     RDKit          3D

 22 24  0  0  0  0  0  0  0  0999 V2000
    9.3304    8.8067   23.0687 C   0  0  0  0  0  0  0  0  0  0  0  0
    8.4952    9.7648   23.7239 O   0  0  0  0  0  0  0  0  0  0  0  0
    9.1215   10.9418   23.9602 C   0  0  0  0  0  0  0  0  0  0  0  0
   10.2992   11.1659   23.7546 O   0  0  0  0  0  0  0  0  0  0  0  0
    8.1708   11.9217   24.5241 C   0  0  0  0  0  0  0  0  0  0  0  0
    7.2683   11.4496   25.4859 C   0  0  0  0  0  0  0  0  0  0  0  0
    6.4920   12.3528   26.2015 C   0  0  0  0  0  0  0  0  0  0  0  0
    5.7970   11.9946   27.4778 C   0  0  0  0  0  0  0  0  0  0  0  0
    4.8887   10.8159   27.6250 C   0  0  0  0  0  0  0  0  0  0  0  0
    4.3067   12.2003   27.5397 C   0  0  0  0  0  0  0  0  0  0  0  0
    6.4428   13.6490   25.8600 N   0  0  0  0  0  0  0  0  0  0  0  0
    7.2813   14.0747   24.9044 C   0  0  0  0  0  0  0  0  0  0  0  0
    8.2681   13.3003   24.2968 C   0  0  0  0  0  0  0  0  0  0  0  0
    9.4267   14.0099   23.8982 N   0  0  0  0  0  0  0  0  0  0  0  0
   10.3000   14.1703   25.0232 N   0  0  0  0  0  0  0  0  0  0  0  0
   10.0403   13.7538   22.5545 C   0  0  2  0  0  0  0  0  0  0  0  0
   11.5590   13.6273   22.5993 C   0  0  0  0  0  0  0  0  0  0  0  0
   12.2059   14.9601   22.4120 C   0  0  0  0  0  0  0  0  0  0  0  0
   11.9453   15.4152   21.1142 O   0  0  0  0  0  0  0  0  0  0  0  0
   10.5826   15.6554   20.8008 C   0  0  1  0  0  0  0  0  0  0  0  0
   10.5295   15.5539   19.2797 C   0  0  0  0  0  0  0  0  0  0  0  0
    9.5397   14.7704   21.5159 C   0  0  0  0  0  0  0  0  0  0  0  0
  1  2  1  0
  2  3  1  0
  3  4  2  0
  3  5  1  0
  5  6  2  0
  6  7  1  0
  7  8  1  0
  8  9  1  0
  9 10  1  0
  7 11  2  0
 11 12  1  0
 12 13  2  0
 13 14  1  0
 14 15  1  0
 16 14  1  1
 16 17  1  0
 17 18  1  0
 18 19  1  0
 19 20  1  0
 20 21  1  6
 20 22  1  0
 13  5  1  0
 22 16  1  0
 10  8  1  0
M  END
>  <energy_score>  (355) 
-22.579431

>  <inchikey>  (355) 
None

>  <smiles>  (355) 
None

>  <ref_pdb>  (355) 
A0514a

>  <alias>  (355) 
None

>  <HIPPO Pose ID>  (355) 
498384

>  <name>  (355) 
P498384

>  <HIPPO Compound ID>  (355) 
292781

>  <ref_mols>  (355) 
A4331a,A0514a

>  <distance_score>  (355) 
1.797568

>  <inspiration_score>  (355) 
None

$$$$
P498386
     RDKit          3D

 22 24  0  0  0  0  0  0  0  0999 V2000
    9.5944    8.9007   23.0559 C   0  0  0  0  0  0  0  0  0  0  0  0
    8.6577    9.7823   23.6734 O   0  0  0  0  0  0  0  0  0  0  0  0
    9.1218   11.0388   23.8752 C   0  0  0  0  0  0  0  0  0  0  0  0
   10.2476   11.4289   23.6394 O   0  0  0  0  0  0  0  0  0  0  0  0
    8.0409   11.8614   24.4619 C   0  0  0  0  0  0  0  0  0  0  0  0
    7.1071   11.2123   25.2818 C   0  0  0  0  0  0  0  0  0  0  0  0
    6.1551   11.9476   25.9767 C   0  0  0  0  0  0  0  0  0  0  0  0
    5.3369   11.3235   27.0742 C   0  0  0  0  0  0  0  0  0  0  0  0
    4.1458   12.0468   27.6601 C   0  0  0  0  0  0  0  0  0  0  0  0
    5.4204   11.9719   28.4426 C   0  0  0  0  0  0  0  0  0  0  0  0
    6.0150   13.2690   25.7680 N   0  0  0  0  0  0  0  0  0  0  0  0
    6.8906   13.8690   24.9499 C   0  0  0  0  0  0  0  0  0  0  0  0
    8.0049   13.2554   24.3789 C   0  0  0  0  0  0  0  0  0  0  0  0
    9.1391   14.0937   24.2324 N   0  0  0  0  0  0  0  0  0  0  0  0
    9.7100   14.4202   25.5251 N   0  0  0  0  0  0  0  0  0  0  0  0
   10.0711   14.1905   23.1579 C   0  0  0  0  0  0  0  0  0  0  0  0
   11.3768   14.1961   23.5336 N   0  0  0  0  0  0  0  0  0  0  0  0
   12.2750   14.5161   22.6009 C   0  0  0  0  0  0  0  0  0  0  0  0
   11.9604   14.9196   21.3441 C   0  0  0  0  0  0  0  0  0  0  0  0
   10.6192   14.9567   21.0630 C   0  0  0  0  0  0  0  0  0  0  0  0
   10.2021   15.6245   19.7949 C   0  0  0  0  0  0  0  0  0  0  0  0
    9.6547   14.5445   21.9297 N   0  0  0  0  0  0  0  0  0  0  0  0
  1  2  1  0
  2  3  1  0
  3  4  2  0
  3  5  1  0
  5  6  2  0
  6  7  1  0
  7  8  1  0
  8  9  1  0
  9 10  1  0
  7 11  2  0
 11 12  1  0
 12 13  2  0
 13 14  1  0
 14 15  1  0
 14 16  1  0
 16 17  2  0
 17 18  1  0
 18 19  2  0
 19 20  1  0
 20 21  1  0
 20 22  2  0
 13  5  1  0
 22 16  1  0
 10  8  1  0
M  END
>  <energy_score>  (356) 
-29.240685

>  <inchikey>  (356) 
None

>  <smiles>  (356) 
None

>  <ref_pdb>  (356) 
A0514a

>  <alias>  (356) 
None

>  <HIPPO Pose ID>  (356) 
498386

>  <name>  (356) 
P498386

>  <HIPPO Compound ID>  (356) 
292785

>  <ref_mols>  (356) 
A4331a,A0514a

>  <distance_score>  (356) 
1.783584

>  <inspiration_score>  (356) 
None

$$$$
P498387
     RDKit          3D

 22 24  0  0  0  0  0  0  0  0999 V2000
   10.4570   16.1665   19.0087 C   0  0  0  0  0  0  0  0  0  0  0  0
   10.2375   16.0548   20.5145 C   0  0  0  0  0  0  0  0  0  0  0  0
    9.7945   14.6567   20.8230 C   0  0  0  0  0  0  0  0  0  0  0  0
    9.9641   14.1403   22.1836 C   0  0  0  0  0  0  0  0  0  0  0  0
    9.0663   13.4114   22.7713 N   0  0  0  0  0  0  0  0  0  0  0  0
    9.5921   13.0732   23.9989 N   0  0  0  0  0  0  0  0  0  0  0  0
    8.5692   12.7564   24.9102 C   0  0  0  0  0  0  0  0  0  0  0  0
    8.0330   13.7771   25.6767 C   0  0  0  0  0  0  0  0  0  0  0  0
    6.9212   13.6622   26.4293 N   0  0  0  0  0  0  0  0  0  0  0  0
    6.2370   12.5000   26.4023 C   0  0  0  0  0  0  0  0  0  0  0  0
    4.9271   12.4451   27.1167 C   0  0  0  0  0  0  0  0  0  0  0  0
    4.7879   11.6915   28.4102 C   0  0  0  0  0  0  0  0  0  0  0  0
    4.7763   13.1922   28.4201 C   0  0  0  0  0  0  0  0  0  0  0  0
    6.7215   11.4110   25.7084 C   0  0  0  0  0  0  0  0  0  0  0  0
    7.8972   11.5281   24.9528 C   0  0  0  0  0  0  0  0  0  0  0  0
    8.3062   10.2503   24.3338 C   0  0  0  0  0  0  0  0  0  0  0  0
    7.7132    9.2170   24.6185 O   0  0  0  0  0  0  0  0  0  0  0  0
    9.3642   10.3448   23.5099 O   0  0  0  0  0  0  0  0  0  0  0  0
    9.7410    9.0883   22.9392 C   0  0  0  0  0  0  0  0  0  0  0  0
   10.7628   13.8233   24.2561 C   0  0  0  0  0  0  0  0  0  0  0  0
   11.3301   14.1188   25.2910 O   0  0  0  0  0  0  0  0  0  0  0  0
   11.2309   14.2833   22.9286 C   0  0  0  0  0  0  0  0  0  0  0  0
  1  2  1  0
  2  3  1  0
  3  4  1  0
  4  5  2  0
  5  6  1  0
  6  7  1  0
  7  8  2  0
  8  9  1  0
  9 10  2  0
 10 11  1  0
 11 12  1  0
 12 13  1  0
 10 14  1  0
 14 15  2  0
 15 16  1  0
 16 17  2  0
 16 18  1  0
 18 19  1  0
  6 20  1  0
 20 21  2  0
 20 22  1  0
 22  4  1  0
 15  7  1  0
 13 11  1  0
M  END
>  <energy_score>  (357) 
-19.329584

>  <inchikey>  (357) 
None

>  <smiles>  (357) 
None

>  <ref_pdb>  (357) 
A0514a

>  <alias>  (357) 
None

>  <HIPPO Pose ID>  (357) 
498387

>  <name>  (357) 
P498387

>  <HIPPO Compound ID>  (357) 
292787

>  <ref_mols>  (357) 
A4331a,A0514a

>  <distance_score>  (357) 
1.708299

>  <inspiration_score>  (357) 
None

$$$$
P498388
     RDKit          3D

 22 23  0  0  0  0  0  0  0  0999 V2000
    9.6033    8.1814   23.3667 C   0  0  0  0  0  0  0  0  0  0  0  0
    8.7316    8.9210   24.2155 O   0  0  0  0  0  0  0  0  0  0  0  0
    8.7414   10.2009   23.8055 C   0  0  0  0  0  0  0  0  0  0  0  0
    9.2980   10.5896   22.7934 O   0  0  0  0  0  0  0  0  0  0  0  0
    8.0497   11.1005   24.7430 C   0  0  0  0  0  0  0  0  0  0  0  0
    6.9298   10.6739   25.4588 C   0  0  0  0  0  0  0  0  0  0  0  0
    6.3151   11.5737   26.3206 C   0  0  0  0  0  0  0  0  0  0  0  0
    5.1743   11.1903   27.2235 C   0  0  0  0  0  0  0  0  0  0  0  0
    4.0330   12.1629   27.4360 C   0  0  0  0  0  0  0  0  0  0  0  0
    5.0185   11.9342   28.5377 C   0  0  0  0  0  0  0  0  0  0  0  0
    6.7618   12.8484   26.4353 N   0  0  0  0  0  0  0  0  0  0  0  0
    7.8378   13.2323   25.7311 C   0  0  0  0  0  0  0  0  0  0  0  0
    8.5601   12.3958   24.9056 C   0  0  0  0  0  0  0  0  0  0  0  0
    9.7555   12.8082   24.3001 N   0  0  0  0  0  0  0  0  0  0  0  0
   10.7768   13.3675   25.0990 N   0  0  0  0  0  0  0  0  0  0  0  0
    9.6159   13.1676   22.8613 C   0  0  0  0  0  0  0  0  0  0  0  0
    9.5976   14.6435   22.6683 C   0  0  0  0  0  0  0  0  0  0  0  0
    8.5692   15.1057   23.4432 F   0  0  0  0  0  0  0  0  0  0  0  0
   10.7644   15.1276   23.1860 F   0  0  0  0  0  0  0  0  0  0  0  0
    9.4256   15.1102   21.2479 C   0  0  0  0  0  0  0  0  0  0  0  0
   10.4882   14.7257   20.5014 F   0  0  0  0  0  0  0  0  0  0  0  0
    8.3230   14.5151   20.7201 F   0  0  0  0  0  0  0  0  0  0  0  0
  1  2  1  0
  2  3  1  0
  3  4  2  0
  3  5  1  0
  5  6  2  0
  6  7  1  0
  7  8  1  0
  8  9  1  0
  9 10  1  0
  7 11  2  0
 11 12  1  0
 12 13  2  0
 13 14  1  0
 14 15  1  0
 14 16  1  0
 16 17  1  0
 17 18  1  0
 17 19  1  0
 17 20  1  0
 20 21  1  0
 20 22  1  0
 13  5  1  0
 10  8  1  0
M  END
>  <energy_score>  (358) 
-34.500699

>  <inchikey>  (358) 
None

>  <smiles>  (358) 
None

>  <ref_pdb>  (358) 
A0514a

>  <alias>  (358) 
None

>  <HIPPO Pose ID>  (358) 
498388

>  <name>  (358) 
P498388

>  <HIPPO Compound ID>  (358) 
292789

>  <ref_mols>  (358) 
A4331a,A0514a

>  <distance_score>  (358) 
1.231598

>  <inspiration_score>  (358) 
None

$$$$
P498389
     RDKit          3D

 22 24  0  0  0  0  0  0  0  0999 V2000
    9.5807    8.0314   23.3591 C   0  0  0  0  0  0  0  0  0  0  0  0
    8.6723    8.7477   24.1865 O   0  0  0  0  0  0  0  0  0  0  0  0
    8.5915    9.9796   23.6669 C   0  0  0  0  0  0  0  0  0  0  0  0
    9.0616   10.2777   22.5834 O   0  0  0  0  0  0  0  0  0  0  0  0
    7.9820   10.9609   24.5627 C   0  0  0  0  0  0  0  0  0  0  0  0
    6.9490   10.5890   25.4270 C   0  0  0  0  0  0  0  0  0  0  0  0
    6.4497   11.5415   26.2980 C   0  0  0  0  0  0  0  0  0  0  0  0
    5.3286   11.2600   27.2616 C   0  0  0  0  0  0  0  0  0  0  0  0
    4.1743   12.2353   27.3528 C   0  0  0  0  0  0  0  0  0  0  0  0
    5.1613   12.1577   28.4743 C   0  0  0  0  0  0  0  0  0  0  0  0
    7.0010   12.7758   26.3512 N   0  0  0  0  0  0  0  0  0  0  0  0
    7.9839   13.0998   25.4869 C   0  0  0  0  0  0  0  0  0  0  0  0
    8.5116   12.2644   24.5246 C   0  0  0  0  0  0  0  0  0  0  0  0
    9.5168   12.6459   23.6232 N   0  0  0  0  0  0  0  0  0  0  0  0
   10.7241   11.8679   23.6664 N   0  0  0  0  0  0  0  0  0  0  0  0
    9.6448   13.9910   22.9671 C   0  0  0  0  0  0  0  0  0  0  0  0
    8.3087   14.7569   23.0575 C   0  0  0  0  0  0  0  0  0  0  0  0
    9.9013   13.9339   21.4473 C   0  0  0  0  0  0  0  0  0  0  0  0
   10.8625   14.9953   20.8972 C   0  0  0  0  0  0  0  0  0  0  0  0
   12.1540   14.9594   21.5071 O   0  0  0  0  0  0  0  0  0  0  0  0
   12.1784   14.2047   22.7132 C   0  0  0  0  0  0  0  0  0  0  0  0
   10.9494   14.5596   23.5319 C   0  0  0  0  0  0  0  0  0  0  0  0
  1  2  1  0
  2  3  1  0
  3  4  2  0
  3  5  1  0
  5  6  2  0
  6  7  1  0
  7  8  1  0
  8  9  1  0
  9 10  1  0
  7 11  2  0
 11 12  1  0
 12 13  2  0
 13 14  1  0
 14 15  1  0
 14 16  1  0
 16 17  1  0
 16 18  1  0
 18 19  1  0
 19 20  1  0
 20 21  1  0
 21 22  1  0
 13  5  1  0
 22 16  1  0
 10  8  1  0
M  END
>  <energy_score>  (359) 
-5.345422

>  <inchikey>  (359) 
None

>  <smiles>  (359) 
None

>  <ref_pdb>  (359) 
A0514a

>  <alias>  (359) 
None

>  <HIPPO Pose ID>  (359) 
498389

>  <name>  (359) 
P498389

>  <HIPPO Compound ID>  (359) 
292790

>  <ref_mols>  (359) 
A4331a,A0514a

>  <distance_score>  (359) 
1.450673

>  <inspiration_score>  (359) 
None

$$$$
P498391
     RDKit          3D

 22 24  0  0  0  0  0  0  0  0999 V2000
    5.5734   15.8647   23.9699 C   0  0  0  0  0  0  0  0  0  0  0  0
    6.9555   15.5556   23.7840 O   0  0  0  0  0  0  0  0  0  0  0  0
    7.1816   14.5976   22.8616 C   0  0  0  0  0  0  0  0  0  0  0  0
    6.3795   13.8959   22.2681 O   0  0  0  0  0  0  0  0  0  0  0  0
    8.5955   14.5408   22.5382 C   0  0  0  0  0  0  0  0  0  0  0  0
    8.8058   15.0813   21.2758 C   0  0  0  0  0  0  0  0  0  0  0  0
   10.0604   15.1888   20.7306 C   0  0  0  0  0  0  0  0  0  0  0  0
   10.1594   15.5037   19.2614 C   0  0  0  0  0  0  0  0  0  0  0  0
   11.5187   15.4937   18.6752 C   0  0  0  0  0  0  0  0  0  0  0  0
   10.6365   16.7422   18.6320 C   0  0  0  0  0  0  0  0  0  0  0  0
   11.1268   14.8418   21.4802 N   0  0  0  0  0  0  0  0  0  0  0  0
   10.8986   14.3230   22.7165 C   0  0  0  0  0  0  0  0  0  0  0  0
    9.6477   14.1078   23.3251 C   0  0  0  0  0  0  0  0  0  0  0  0
    9.5681   13.5708   24.6066 N   0  0  0  0  0  0  0  0  0  0  0  0
   10.5863   14.0167   25.4906 N   0  0  0  0  0  0  0  0  0  0  0  0
    8.5705   12.5834   25.1095 C   0  0  1  0  0  0  0  0  0  0  0  0
    7.3812   13.2570   25.8030 C   0  0  0  0  0  0  0  0  0  0  0  0
    6.5632   12.3060   26.6594 C   0  0  0  0  0  0  0  0  0  0  0  0
    6.2102   11.0172   25.9371 C   0  0  0  0  0  0  0  0  0  0  0  0
    7.3075   10.4259   25.0549 C   0  0  0  0  0  0  0  0  0  0  0  0
    8.1145   11.4401   24.2115 C   0  0  2  0  0  0  0  0  0  0  0  0
    9.2447   10.6871   23.5061 C   0  0  0  0  0  0  0  0  0  0  0  0
  1  2  1  0
  2  3  1  0
  3  4  2  0
  3  5  1  0
  5  6  2  0
  6  7  1  0
  7  8  1  0
  8  9  1  0
  9 10  1  0
  7 11  2  0
 11 12  1  0
 12 13  2  0
 13 14  1  0
 14 15  1  0
 16 14  1  6
 16 17  1  0
 17 18  1  0
 18 19  1  0
 19 20  1  0
 20 21  1  0
 21 22  1  1
 13  5  1  0
 21 16  1  0
 10  8  1  0
M  END
>  <energy_score>  (360) 
-24.896204

>  <inchikey>  (360) 
None

>  <smiles>  (360) 
None

>  <ref_pdb>  (360) 
A0514a

>  <alias>  (360) 
None

>  <HIPPO Pose ID>  (360) 
498391

>  <name>  (360) 
P498391

>  <HIPPO Compound ID>  (360) 
292791

>  <ref_mols>  (360) 
A4331a,A0514a

>  <distance_score>  (360) 
1.238864

>  <inspiration_score>  (360) 
None

$$$$
P498395
     RDKit          3D

 22 25  0  0  0  0  0  0  0  0999 V2000
    9.6957    8.4391   23.4162 C   0  0  0  0  0  0  0  0  0  0  0  0
    8.8653    9.3644   24.1117 O   0  0  0  0  0  0  0  0  0  0  0  0
    9.0811   10.6199   23.6597 C   0  0  0  0  0  0  0  0  0  0  0  0
    9.8532   10.9108   22.7665 O   0  0  0  0  0  0  0  0  0  0  0  0
    8.2733   11.6089   24.3994 C   0  0  0  0  0  0  0  0  0  0  0  0
    7.2012   11.1979   25.1964 C   0  0  0  0  0  0  0  0  0  0  0  0
    6.4884   12.1365   25.9330 C   0  0  0  0  0  0  0  0  0  0  0  0
    5.4268   11.7158   26.9182 C   0  0  0  0  0  0  0  0  0  0  0  0
    4.2262   12.5988   27.1648 C   0  0  0  0  0  0  0  0  0  0  0  0
    5.2963   12.5007   28.2083 C   0  0  0  0  0  0  0  0  0  0  0  0
    6.7756   13.4511   25.8385 N   0  0  0  0  0  0  0  0  0  0  0  0
    7.7945   13.8225   25.0430 C   0  0  0  0  0  0  0  0  0  0  0  0
    8.6224   12.9603   24.3338 C   0  0  0  0  0  0  0  0  0  0  0  0
    9.8942   13.3782   23.8656 N   0  0  0  0  0  0  0  0  0  0  0  0
   10.7489   13.6507   24.9791 N   0  0  0  0  0  0  0  0  0  0  0  0
    9.8872   14.3973   22.7969 C   0  0  2  0  0  0  0  0  0  0  0  0
    9.7999   13.9071   21.3651 C   0  0  0  0  0  0  0  0  0  0  0  0
   10.7600   14.7978   20.5220 C   0  0  2  0  0  0  0  0  0  0  0  0
   12.2105   14.3631   20.6508 C   0  0  0  0  0  0  0  0  0  0  0  0
   12.3867   14.3286   22.1528 C   0  0  0  0  0  0  0  0  0  0  0  0
   11.2018   15.1520   22.6463 C   0  0  1  0  0  0  0  0  0  0  0  0
   10.8306   15.9861   21.4119 C   0  0  0  0  0  0  0  0  0  0  0  0
  1  2  1  0
  2  3  1  0
  3  4  2  0
  3  5  1  0
  5  6  2  0
  6  7  1  0
  7  8  1  0
  8  9  1  0
  9 10  1  0
  7 11  2  0
 11 12  1  0
 12 13  2  0
 13 14  1  0
 14 15  1  0
 16 14  1  1
 16 17  1  0
 18 17  1  1
 18 19  1  0
 19 20  1  0
 21 20  1  6
 21 22  1  0
 13  5  1  0
 21 16  1  0
 10  8  1  0
 22 18  1  0
M  END
>  <energy_score>  (361) 
-19.554981

>  <inchikey>  (361) 
None

>  <smiles>  (361) 
None

>  <ref_pdb>  (361) 
A0514a

>  <alias>  (361) 
None

>  <HIPPO Pose ID>  (361) 
498395

>  <name>  (361) 
P498395

>  <HIPPO Compound ID>  (361) 
292800

>  <ref_mols>  (361) 
A4331a,A0514a

>  <distance_score>  (361) 
1.733849

>  <inspiration_score>  (361) 
None

$$$$
P498397
     RDKit          3D

 22 23  0  0  0  0  0  0  0  0999 V2000
   10.4747   16.0315   18.9312 C   0  0  0  0  0  0  0  0  0  0  0  0
   10.8170   15.2234   20.1621 C   0  0  0  0  0  0  0  0  0  0  0  0
    9.6377   15.0603   21.1006 C   0  0  0  0  0  0  0  0  0  0  0  0
    9.1603   16.2677   21.4505 F   0  0  0  0  0  0  0  0  0  0  0  0
    8.5960   14.4140   20.5347 F   0  0  0  0  0  0  0  0  0  0  0  0
   10.0744   14.2732   22.3080 C   0  0  0  0  0  0  0  0  0  0  0  0
    8.8839   13.9184   23.1736 C   0  0  0  0  0  0  0  0  0  0  0  0
    9.3331   13.0678   24.3129 N   0  0  0  0  0  0  0  0  0  0  0  0
   10.3746   13.6439   25.1120 N   0  0  0  0  0  0  0  0  0  0  0  0
    8.1738   12.7069   25.0531 C   0  0  0  0  0  0  0  0  0  0  0  0
    7.5114   13.6807   25.7985 C   0  0  0  0  0  0  0  0  0  0  0  0
    6.4065   13.4776   26.5286 N   0  0  0  0  0  0  0  0  0  0  0  0
    5.8674   12.2468   26.5396 C   0  0  0  0  0  0  0  0  0  0  0  0
    4.6288   12.0810   27.3511 C   0  0  0  0  0  0  0  0  0  0  0  0
    4.6240   11.2307   28.5892 C   0  0  0  0  0  0  0  0  0  0  0  0
    4.5915   12.7247   28.7191 C   0  0  0  0  0  0  0  0  0  0  0  0
    6.4528   11.2019   25.8493 C   0  0  0  0  0  0  0  0  0  0  0  0
    7.6180   11.4234   25.0978 C   0  0  0  0  0  0  0  0  0  0  0  0
    8.1515   10.1973   24.4688 C   0  0  0  0  0  0  0  0  0  0  0  0
    7.6954    9.1058   24.7837 O   0  0  0  0  0  0  0  0  0  0  0  0
    9.1280   10.4043   23.5649 O   0  0  0  0  0  0  0  0  0  0  0  0
    9.6358    9.1892   23.0051 C   0  0  0  0  0  0  0  0  0  0  0  0
  1  2  1  0
  2  3  1  0
  3  4  1  0
  3  5  1  0
  3  6  1  0
  6  7  1  0
  7  8  1  0
  8  9  1  0
  8 10  1  0
 10 11  2  0
 11 12  1  0
 12 13  2  0
 13 14  1  0
 14 15  1  0
 15 16  1  0
 13 17  1  0
 17 18  2  0
 18 19  1  0
 19 20  2  0
 19 21  1  0
 21 22  1  0
 18 10  1  0
 16 14  1  0
M  END
>  <energy_score>  (362) 
-41.827804

>  <inchikey>  (362) 
None

>  <smiles>  (362) 
None

>  <ref_pdb>  (362) 
A0514a

>  <alias>  (362) 
None

>  <HIPPO Pose ID>  (362) 
498397

>  <name>  (362) 
P498397

>  <HIPPO Compound ID>  (362) 
292818

>  <ref_mols>  (362) 
A4331a,A0514a

>  <distance_score>  (362) 
1.518596

>  <inspiration_score>  (362) 
None

$$$$
P498401
     RDKit          3D

 23 25  0  0  0  0  0  0  0  0999 V2000
    9.3709    8.4781   22.9728 C   0  0  0  0  0  0  0  0  0  0  0  0
    8.4691    9.2013   23.8074 O   0  0  0  0  0  0  0  0  0  0  0  0
    8.8728   10.4645   24.0412 C   0  0  0  0  0  0  0  0  0  0  0  0
    9.9260   10.9681   23.6844 O   0  0  0  0  0  0  0  0  0  0  0  0
    7.8218   11.1967   24.7784 C   0  0  0  0  0  0  0  0  0  0  0  0
    6.9350   10.5459   25.6335 C   0  0  0  0  0  0  0  0  0  0  0  0
    6.0204   11.3070   26.3536 C   0  0  0  0  0  0  0  0  0  0  0  0
    5.2185   10.7373   27.4876 C   0  0  0  0  0  0  0  0  0  0  0  0
    4.0171   11.4821   28.0278 C   0  0  0  0  0  0  0  0  0  0  0  0
    5.2930   11.4756   28.8115 C   0  0  0  0  0  0  0  0  0  0  0  0
    5.8861   12.6366   26.1403 N   0  0  0  0  0  0  0  0  0  0  0  0
    6.6928   13.2379   25.2556 C   0  0  0  0  0  0  0  0  0  0  0  0
    7.7382   12.5833   24.6240 C   0  0  0  0  0  0  0  0  0  0  0  0
    8.5620   13.2560   23.6595 N   0  0  0  0  0  0  0  0  0  0  0  0
    9.3958   13.5534   24.9900 N   0  0  0  0  0  0  0  0  0  0  0  0
    8.3203   14.5175   22.8698 C   0  0  0  0  0  0  0  0  0  0  0  0
    7.4323   15.2877   22.9192 O   0  0  0  0  0  0  0  0  0  0  0  0
    9.4360   14.7027   21.9538 C   0  0  0  0  0  0  0  0  0  0  0  0
    9.3159   15.2736   20.7825 N   0  0  0  0  0  0  0  0  0  0  0  0
   10.5804   15.3808   20.2297 C   0  0  0  0  0  0  0  0  0  0  0  0
   10.6825   15.8782   18.8436 C   0  0  0  0  0  0  0  0  0  0  0  0
   11.6521   15.0109   20.9400 N   0  0  0  0  0  0  0  0  0  0  0  0
   11.0668   14.3360   22.3378 S   0  0  0  0  0  0  0  0  0  0  0  0
  1  2  1  0
  2  3  1  0
  3  4  2  0
  3  5  1  0
  5  6  2  0
  6  7  1  0
  7  8  1  0
  8  9  1  0
  9 10  1  0
  7 11  2  0
 11 12  1  0
 12 13  2  0
 13 14  1  0
 14 15  1  0
 14 16  1  0
 16 17  2  0
 16 18  1  0
 18 19  2  0
 19 20  1  0
 20 21  1  0
 20 22  2  0
 22 23  1  0
 13  5  1  0
 23 18  1  0
 10  8  1  0
M  END
>  <energy_score>  (363) 
-5.938816

>  <inchikey>  (363) 
None

>  <smiles>  (363) 
None

>  <ref_pdb>  (363) 
A0514a

>  <alias>  (363) 
None

>  <HIPPO Pose ID>  (363) 
498401

>  <name>  (363) 
P498401

>  <HIPPO Compound ID>  (363) 
292827

>  <ref_mols>  (363) 
A4331a,A0514a

>  <distance_score>  (363) 
1.783868

>  <inspiration_score>  (363) 
None

$$$$
P498404
     RDKit          3D

 23 23  0  0  0  0  0  0  0  0999 V2000
   10.6525   15.5925   19.1094 C   0  0  0  0  0  0  0  0  0  0  0  0
   10.3744   16.1806   20.4728 C   0  0  0  0  0  0  0  0  0  0  0  0
    9.4413   15.3736   21.1922 O   0  0  0  0  0  0  0  0  0  0  0  0
    9.9395   14.7073   22.2664 C   0  0  0  0  0  0  0  0  0  0  0  0
   11.1309   14.5760   22.5413 O   0  0  0  0  0  0  0  0  0  0  0  0
    8.8077   14.2063   23.1845 C   0  0  1  0  0  0  0  0  0  0  0  0
    7.4599   14.1570   22.4725 C   0  0  0  0  0  0  0  0  0  0  0  0
    9.1784   12.8852   23.8060 N   0  0  0  0  0  0  0  0  0  0  0  0
    9.8894   11.9962   22.9818 N   0  0  0  0  0  0  0  0  0  0  0  0
    8.2645   12.3636   24.7533 C   0  0  0  0  0  0  0  0  0  0  0  0
    7.6379   13.2264   25.6602 C   0  0  0  0  0  0  0  0  0  0  0  0
    6.6895   12.8932   26.5607 N   0  0  0  0  0  0  0  0  0  0  0  0
    6.2544   11.6156   26.5734 C   0  0  0  0  0  0  0  0  0  0  0  0
    5.1863   11.2428   27.5628 C   0  0  0  0  0  0  0  0  0  0  0  0
    4.1846   12.1608   27.6293 F   0  0  0  0  0  0  0  0  0  0  0  0
    4.5763   10.0542   27.2944 F   0  0  0  0  0  0  0  0  0  0  0  0
    5.6761   11.1182   28.8310 F   0  0  0  0  0  0  0  0  0  0  0  0
    6.8347   10.6576   25.7726 C   0  0  0  0  0  0  0  0  0  0  0  0
    7.8715   11.0255   24.8998 C   0  0  0  0  0  0  0  0  0  0  0  0
    8.3695    9.8700   24.1540 C   0  0  0  0  0  0  0  0  0  0  0  0
    7.5845    9.0730   23.6832 O   0  0  0  0  0  0  0  0  0  0  0  0
    9.7055    9.7496   24.1390 O   0  0  0  0  0  0  0  0  0  0  0  0
   10.1374    8.5975   23.4223 C   0  0  0  0  0  0  0  0  0  0  0  0
  1  2  1  0
  2  3  1  0
  3  4  1  0
  4  5  2  0
  4  6  1  0
  6  7  1  6
  6  8  1  0
  8  9  1  0
  8 10  1  0
 10 11  2  0
 11 12  1  0
 12 13  2  0
 13 14  1  0
 14 15  1  0
 14 16  1  0
 14 17  1  0
 13 18  1  0
 18 19  2  0
 19 20  1  0
 20 21  2  0
 20 22  1  0
 22 23  1  0
 19 10  1  0
M  END
>  <energy_score>  (364) 
-41.010381

>  <inchikey>  (364) 
None

>  <smiles>  (364) 
None

>  <ref_pdb>  (364) 
A0514a

>  <alias>  (364) 
None

>  <HIPPO Pose ID>  (364) 
498404

>  <name>  (364) 
P498404

>  <HIPPO Compound ID>  (364) 
292829

>  <ref_mols>  (364) 
A4331a,A0514a

>  <distance_score>  (364) 
1.22068

>  <inspiration_score>  (364) 
None

$$$$
P498406
     RDKit          3D

 23 24  0  0  0  0  0  0  0  0999 V2000
    9.2434    8.6019   22.9965 C   0  0  0  0  0  0  0  0  0  0  0  0
    8.4464    9.4780   23.8005 O   0  0  0  0  0  0  0  0  0  0  0  0
    9.0118   10.6948   23.9679 C   0  0  0  0  0  0  0  0  0  0  0  0
   10.1228   11.0099   23.5758 O   0  0  0  0  0  0  0  0  0  0  0  0
    8.1286   11.5942   24.7604 C   0  0  0  0  0  0  0  0  0  0  0  0
    7.0250   11.0892   25.4634 C   0  0  0  0  0  0  0  0  0  0  0  0
    6.2982   11.9582   26.2780 C   0  0  0  0  0  0  0  0  0  0  0  0
    5.1932   11.4644   27.1751 C   0  0  0  0  0  0  0  0  0  0  0  0
    4.8709   10.1695   26.9447 F   0  0  0  0  0  0  0  0  0  0  0  0
    5.5406   11.5080   28.4956 F   0  0  0  0  0  0  0  0  0  0  0  0
    4.0235   12.1533   27.0663 F   0  0  0  0  0  0  0  0  0  0  0  0
    6.6105   13.2726   26.3893 N   0  0  0  0  0  0  0  0  0  0  0  0
    7.6477   13.7399   25.6718 C   0  0  0  0  0  0  0  0  0  0  0  0
    8.4722   12.9518   24.8809 C   0  0  0  0  0  0  0  0  0  0  0  0
    9.6298   13.4926   24.2720 N   0  0  0  0  0  0  0  0  0  0  0  0
   10.5709   14.1304   25.1293 N   0  0  0  0  0  0  0  0  0  0  0  0
    9.5340   14.0436   23.0181 C   0  0  0  0  0  0  0  0  0  0  0  0
    8.4529   14.1907   22.2781 N   0  0  0  0  0  0  0  0  0  0  0  0
    8.8209   14.7261   21.0712 N   0  0  0  0  0  0  0  0  0  0  0  0
   10.1333   14.8471   21.0482 C   0  0  0  0  0  0  0  0  0  0  0  0
   10.9566   15.2752   19.8959 C   0  0  0  0  0  0  0  0  0  0  0  0
   10.6276   14.4669   22.2687 N   0  0  0  0  0  0  0  0  0  0  0  0
   12.0274   14.4357   22.6735 N   0  0  0  0  0  0  0  0  0  0  0  0
  1  2  1  0
  2  3  1  0
  3  4  2  0
  3  5  1  0
  5  6  2  0
  6  7  1  0
  7  8  1  0
  8  9  1  0
  8 10  1  0
  8 11  1  0
  7 12  2  0
 12 13  1  0
 13 14  2  0
 14 15  1  0
 15 16  1  0
 15 17  1  0
 17 18  2  0
 18 19  1  0
 19 20  2  0
 20 21  1  0
 20 22  1  0
 22 23  1  0
 14  5  1  0
 22 17  1  0
M  END
>  <energy_score>  (365) 
-41.573624

>  <inchikey>  (365) 
None

>  <smiles>  (365) 
None

>  <ref_pdb>  (365) 
A0514a

>  <alias>  (365) 
None

>  <HIPPO Pose ID>  (365) 
498406

>  <name>  (365) 
P498406

>  <HIPPO Compound ID>  (365) 
292835

>  <ref_mols>  (365) 
A4331a,A0514a

>  <distance_score>  (365) 
1.283734

>  <inspiration_score>  (365) 
None

$$$$
P498408
     RDKit          3D

 23 24  0  0  0  0  0  0  0  0999 V2000
    9.5958    8.7454   22.9940 C   0  0  0  0  0  0  0  0  0  0  0  0
    8.7523    9.5895   23.7732 O   0  0  0  0  0  0  0  0  0  0  0  0
    9.0431   10.9090   23.7061 C   0  0  0  0  0  0  0  0  0  0  0  0
    9.9533   11.4051   23.0722 O   0  0  0  0  0  0  0  0  0  0  0  0
    8.1258   11.6680   24.5861 C   0  0  0  0  0  0  0  0  0  0  0  0
    7.2581   10.9641   25.4379 C   0  0  0  0  0  0  0  0  0  0  0  0
    6.4349   11.6724   26.3034 C   0  0  0  0  0  0  0  0  0  0  0  0
    5.4581   10.9502   27.1938 C   0  0  0  0  0  0  0  0  0  0  0  0
    4.3397   11.6783   27.4653 F   0  0  0  0  0  0  0  0  0  0  0  0
    5.0212    9.7734   26.6682 F   0  0  0  0  0  0  0  0  0  0  0  0
    5.9956   10.6271   28.4070 F   0  0  0  0  0  0  0  0  0  0  0  0
    6.5015   13.0218   26.4093 N   0  0  0  0  0  0  0  0  0  0  0  0
    7.2690   13.6789   25.5212 C   0  0  0  0  0  0  0  0  0  0  0  0
    8.0970   13.0678   24.5893 C   0  0  0  0  0  0  0  0  0  0  0  0
    8.5574   13.9095   23.5500 N   0  0  0  0  0  0  0  0  0  0  0  0
    9.8910   14.1316   23.4760 N   0  0  0  0  0  0  0  0  0  0  0  0
   10.4637   14.5923   22.4046 C   0  0  0  0  0  0  0  0  0  0  0  0
   12.1925   14.6944   22.4061 S   0  0  0  0  0  0  0  0  0  0  0  0
   12.4502   13.7380   23.9125 C   0  0  0  0  0  0  0  0  0  0  0  0
    9.6994   15.1874   20.9860 S   0  0  0  0  0  0  0  0  0  0  0  0
    8.0491   15.2629   21.6355 C   0  0  0  0  0  0  0  0  0  0  0  0
    7.7493   14.0611   22.4464 C   0  0  0  0  0  0  0  0  0  0  0  0
    6.8310   13.3023   22.1606 O   0  0  0  0  0  0  0  0  0  0  0  0
  1  2  1  0
  2  3  1  0
  3  4  2  0
  3  5  1  0
  5  6  2  0
  6  7  1  0
  7  8  1  0
  8  9  1  0
  8 10  1  0
  8 11  1  0
  7 12  2  0
 12 13  1  0
 13 14  2  0
 14 15  1  0
 15 16  1  0
 16 17  2  0
 17 18  1  0
 18 19  1  0
 17 20  1  0
 20 21  1  0
 21 22  1  0
 22 23  2  0
 14  5  1  0
 22 15  1  0
M  END
>  <energy_score>  (366) 
-25.839569

>  <inchikey>  (366) 
None

>  <smiles>  (366) 
None

>  <ref_pdb>  (366) 
A0514a

>  <alias>  (366) 
None

>  <HIPPO Pose ID>  (366) 
498408

>  <name>  (366) 
P498408

>  <HIPPO Compound ID>  (366) 
292843

>  <ref_mols>  (366) 
A4331a,A0514a

>  <distance_score>  (366) 
1.638894

>  <inspiration_score>  (366) 
None

$$$$
P498409
     RDKit          3D

 23 24  0  0  0  0  0  0  0  0999 V2000
    9.3545    8.5026   22.9995 C   0  0  0  0  0  0  0  0  0  0  0  0
    8.4594    9.2293   23.8415 O   0  0  0  0  0  0  0  0  0  0  0  0
    8.8674   10.4958   24.0678 C   0  0  0  0  0  0  0  0  0  0  0  0
    9.9153   10.9869   23.6874 O   0  0  0  0  0  0  0  0  0  0  0  0
    7.8170   11.2307   24.8127 C   0  0  0  0  0  0  0  0  0  0  0  0
    6.9162   10.5629   25.6417 C   0  0  0  0  0  0  0  0  0  0  0  0
    5.9751   11.3174   26.3334 C   0  0  0  0  0  0  0  0  0  0  0  0
    5.1524   10.6948   27.4308 C   0  0  0  0  0  0  0  0  0  0  0  0
    4.1745   11.5238   27.8917 F   0  0  0  0  0  0  0  0  0  0  0  0
    4.5232    9.5495   27.0564 F   0  0  0  0  0  0  0  0  0  0  0  0
    5.9045   10.3658   28.5221 F   0  0  0  0  0  0  0  0  0  0  0  0
    5.8095   12.6498   26.1241 N   0  0  0  0  0  0  0  0  0  0  0  0
    6.6359   13.2593   25.2561 C   0  0  0  0  0  0  0  0  0  0  0  0
    7.7281   12.6228   24.6723 C   0  0  0  0  0  0  0  0  0  0  0  0
    8.6531   13.2945   23.7940 N   0  0  0  0  0  0  0  0  0  0  0  0
    9.2318   13.7520   25.2033 N   0  0  0  0  0  0  0  0  0  0  0  0
    8.4555   14.4738   22.8728 C   0  0  0  0  0  0  0  0  0  0  0  0
    7.5189   15.1694   22.7166 O   0  0  0  0  0  0  0  0  0  0  0  0
    9.7531   14.6806   22.2299 C   0  0  0  0  0  0  0  0  0  0  0  0
   10.8943   14.4526   22.8687 N   0  0  0  0  0  0  0  0  0  0  0  0
   11.9312   14.6623   21.9888 C   0  0  0  0  0  0  0  0  0  0  0  0
   11.5618   15.0362   20.7172 C   0  0  0  0  0  0  0  0  0  0  0  0
    9.8879   15.3705   20.6867 S   0  0  0  0  0  0  0  0  0  0  0  0
  1  2  1  0
  2  3  1  0
  3  4  2  0
  3  5  1  0
  5  6  2  0
  6  7  1  0
  7  8  1  0
  8  9  1  0
  8 10  1  0
  8 11  1  0
  7 12  2  0
 12 13  1  0
 13 14  2  0
 14 15  1  0
 15 16  1  0
 15 17  1  0
 17 18  2  0
 17 19  1  0
 19 20  2  0
 20 21  1  0
 21 22  2  0
 22 23  1  0
 14  5  1  0
 23 19  1  0
M  END
>  <energy_score>  (367) 
-21.822754

>  <inchikey>  (367) 
None

>  <smiles>  (367) 
None

>  <ref_pdb>  (367) 
A0514a

>  <alias>  (367) 
None

>  <HIPPO Pose ID>  (367) 
498409

>  <name>  (367) 
P498409

>  <HIPPO Compound ID>  (367) 
292847

>  <ref_mols>  (367) 
A4331a,A0514a

>  <distance_score>  (367) 
1.210661

>  <inspiration_score>  (367) 
None

$$$$
P498411
     RDKit          3D

 23 25  0  0  0  0  0  0  0  0999 V2000
    9.5802    8.3588   23.4140 C   0  0  0  0  0  0  0  0  0  0  0  0
    8.7916    9.2754   24.1682 O   0  0  0  0  0  0  0  0  0  0  0  0
    8.9459   10.5238   23.6757 C   0  0  0  0  0  0  0  0  0  0  0  0
    9.6329   10.7972   22.7091 O   0  0  0  0  0  0  0  0  0  0  0  0
    8.1883   11.5200   24.4648 C   0  0  0  0  0  0  0  0  0  0  0  0
    7.1006   11.1446   25.2468 C   0  0  0  0  0  0  0  0  0  0  0  0
    6.4139   12.1284   25.9512 C   0  0  0  0  0  0  0  0  0  0  0  0
    5.2585   11.7513   26.8472 C   0  0  0  0  0  0  0  0  0  0  0  0
    5.4427   12.1607   28.1321 F   0  0  0  0  0  0  0  0  0  0  0  0
    4.0611   12.2720   26.4620 F   0  0  0  0  0  0  0  0  0  0  0  0
    5.0639   10.4015   26.9305 F   0  0  0  0  0  0  0  0  0  0  0  0
    6.7624   13.4362   25.8898 N   0  0  0  0  0  0  0  0  0  0  0  0
    7.8028   13.7649   25.1037 C   0  0  0  0  0  0  0  0  0  0  0  0
    8.5836   12.8617   24.3979 C   0  0  0  0  0  0  0  0  0  0  0  0
    9.8085   13.2025   23.8145 N   0  0  0  0  0  0  0  0  0  0  0  0
   10.8854   13.0569   24.7266 N   0  0  0  0  0  0  0  0  0  0  0  0
    9.9564   14.4120   23.0108 C   0  0  2  0  0  0  0  0  0  0  0  0
    8.7937   14.7733   22.0872 C   0  0  0  0  0  0  0  0  0  0  0  0
    9.5268   15.1242   20.8055 C   0  0  1  0  0  0  0  0  0  0  0  0
   10.4991   16.2794   20.8793 C   0  0  0  0  0  0  0  0  0  0  0  0
   11.7172   15.6812   21.6476 C   0  0  0  0  0  0  0  0  0  0  0  0
   11.1925   14.3342   22.0792 C   0  0  2  0  0  0  0  0  0  0  0  0
   10.5341   14.0211   20.7752 C   0  0  0  0  0  0  0  0  0  0  0  0
  1  2  1  0
  2  3  1  0
  3  4  2  0
  3  5  1  0
  5  6  2  0
  6  7  1  0
  7  8  1  0
  8  9  1  0
  8 10  1  0
  8 11  1  0
  7 12  2  0
 12 13  1  0
 13 14  2  0
 14 15  1  0
 15 16  1  0
 17 15  1  6
 17 18  1  0
 19 18  1  1
 19 20  1  0
 20 21  1  0
 22 21  1  6
 22 23  1  0
 14  5  1  0
 22 17  1  0
 23 19  1  0
M  END
>  <energy_score>  (368) 
-21.743697

>  <inchikey>  (368) 
None

>  <smiles>  (368) 
None

>  <ref_pdb>  (368) 
A0514a

>  <alias>  (368) 
None

>  <HIPPO Pose ID>  (368) 
498411

>  <name>  (368) 
P498411

>  <HIPPO Compound ID>  (368) 
292856

>  <ref_mols>  (368) 
A4331a,A0514a

>  <distance_score>  (368) 
1.980929

>  <inspiration_score>  (368) 
None

$$$$
P498417
     RDKit          3D

 23 24  0  0  0  0  0  0  0  0999 V2000
    9.6188    8.8681   22.9994 C   0  0  0  0  0  0  0  0  0  0  0  0
    8.7180    9.7948   23.6017 O   0  0  0  0  0  0  0  0  0  0  0  0
    9.2331   11.0284   23.8091 C   0  0  0  0  0  0  0  0  0  0  0  0
   10.3748   11.3797   23.5794 O   0  0  0  0  0  0  0  0  0  0  0  0
    8.1970   11.8881   24.4276 C   0  0  0  0  0  0  0  0  0  0  0  0
    7.1917   11.2665   25.1746 C   0  0  0  0  0  0  0  0  0  0  0  0
    6.3142   12.0410   25.9235 C   0  0  0  0  0  0  0  0  0  0  0  0
    5.4161   11.3633   26.9286 C   0  0  0  0  0  0  0  0  0  0  0  0
    4.2312   11.9984   27.1365 F   0  0  0  0  0  0  0  0  0  0  0  0
    5.1015   10.0790   26.5939 F   0  0  0  0  0  0  0  0  0  0  0  0
    6.0018   11.2674   28.1613 F   0  0  0  0  0  0  0  0  0  0  0  0
    6.3308   13.3911   25.8835 N   0  0  0  0  0  0  0  0  0  0  0  0
    7.2932   13.9630   25.1370 C   0  0  0  0  0  0  0  0  0  0  0  0
    8.3061   13.2838   24.4581 C   0  0  0  0  0  0  0  0  0  0  0  0
    9.5241   13.9839   24.2981 N   0  0  0  0  0  0  0  0  0  0  0  0
   10.3563   13.7776   25.4648 N   0  0  0  0  0  0  0  0  0  0  0  0
   10.2933   14.2500   23.1258 C   0  0  0  0  0  0  0  0  0  0  0  0
   11.6271   14.3735   23.3818 N   0  0  0  0  0  0  0  0  0  0  0  0
   12.4218   14.7112   22.3681 C   0  0  0  0  0  0  0  0  0  0  0  0
   11.9698   15.0033   21.1299 C   0  0  0  0  0  0  0  0  0  0  0  0
   10.6080   14.9927   20.9915 C   0  0  0  0  0  0  0  0  0  0  0  0
   10.0593   15.6366   19.7677 C   0  0  0  0  0  0  0  0  0  0  0  0
    9.7412   14.5739   21.9533 N   0  0  0  0  0  0  0  0  0  0  0  0
  1  2  1  0
  2  3  1  0
  3  4  2  0
  3  5  1  0
  5  6  2  0
  6  7  1  0
  7  8  1  0
  8  9  1  0
  8 10  1  0
  8 11  1  0
  7 12  2  0
 12 13  1  0
 13 14  2  0
 14 15  1  0
 15 16  1  0
 15 17  1  0
 17 18  2  0
 18 19  1  0
 19 20  2  0
 20 21  1  0
 21 22  1  0
 21 23  2  0
 14  5  1  0
 23 17  1  0
M  END
>  <energy_score>  (369) 
-28.030221

>  <inchikey>  (369) 
None

>  <smiles>  (369) 
None

>  <ref_pdb>  (369) 
A0514a

>  <alias>  (369) 
None

>  <HIPPO Pose ID>  (369) 
498417

>  <name>  (369) 
P498417

>  <HIPPO Compound ID>  (369) 
292868

>  <ref_mols>  (369) 
A4331a,A0514a

>  <distance_score>  (369) 
1.642066

>  <inspiration_score>  (369) 
None

$$$$
P498418
     RDKit          3D

 23 24  0  0  0  0  0  0  0  0999 V2000
    9.4577    8.8956   23.0870 C   0  0  0  0  0  0  0  0  0  0  0  0
    8.5783    9.8416   23.7020 O   0  0  0  0  0  0  0  0  0  0  0  0
    9.1365   11.0606   23.8813 C   0  0  0  0  0  0  0  0  0  0  0  0
   10.3025   11.3522   23.6903 O   0  0  0  0  0  0  0  0  0  0  0  0
    8.1114   12.0076   24.3790 C   0  0  0  0  0  0  0  0  0  0  0  0
    7.0784   11.5372   25.1948 C   0  0  0  0  0  0  0  0  0  0  0  0
    6.2037   12.4545   25.7746 C   0  0  0  0  0  0  0  0  0  0  0  0
    5.2312   12.0212   26.8453 C   0  0  0  0  0  0  0  0  0  0  0  0
    5.1325   10.6719   26.9669 F   0  0  0  0  0  0  0  0  0  0  0  0
    5.6085   12.4517   28.0864 F   0  0  0  0  0  0  0  0  0  0  0  0
    3.9543   12.4607   26.6646 F   0  0  0  0  0  0  0  0  0  0  0  0
    6.2546   13.7752   25.4873 N   0  0  0  0  0  0  0  0  0  0  0  0
    7.2358   14.1953   24.6720 C   0  0  0  0  0  0  0  0  0  0  0  0
    8.2627   13.3887   24.1925 C   0  0  0  0  0  0  0  0  0  0  0  0
    9.5453   13.9891   24.1060 N   0  0  0  0  0  0  0  0  0  0  0  0
   10.1981   14.0209   25.3770 N   0  0  0  0  0  0  0  0  0  0  0  0
   10.3476   14.2774   22.9526 C   0  0  0  0  0  0  0  0  0  0  0  0
   11.7264   14.3161   23.1421 C   0  0  0  0  0  0  0  0  0  0  0  0
   12.4907   14.8539   22.1522 C   0  0  0  0  0  0  0  0  0  0  0  0
   11.9858   15.2899   21.0164 N   0  0  0  0  0  0  0  0  0  0  0  0
   10.6634   15.1738   20.8718 C   0  0  0  0  0  0  0  0  0  0  0  0
   10.1509   15.7881   19.6233 C   0  0  0  0  0  0  0  0  0  0  0  0
    9.7962   14.6736   21.7915 N   0  0  0  0  0  0  0  0  0  0  0  0
  1  2  1  0
  2  3  1  0
  3  4  2  0
  3  5  1  0
  5  6  2  0
  6  7  1  0
  7  8  1  0
  8  9  1  0
  8 10  1  0
  8 11  1  0
  7 12  2  0
 12 13  1  0
 13 14  2  0
 14 15  1  0
 15 16  1  0
 15 17  1  0
 17 18  2  0
 18 19  1  0
 19 20  2  0
 20 21  1  0
 21 22  1  0
 21 23  2  0
 14  5  1  0
 23 17  1  0
M  END
>  <energy_score>  (370) 
-6.790269

>  <inchikey>  (370) 
None

>  <smiles>  (370) 
None

>  <ref_pdb>  (370) 
A0514a

>  <alias>  (370) 
None

>  <HIPPO Pose ID>  (370) 
498418

>  <name>  (370) 
P498418

>  <HIPPO Compound ID>  (370) 
292869

>  <ref_mols>  (370) 
A4331a,A0514a

>  <distance_score>  (370) 
1.517044

>  <inspiration_score>  (370) 
None

$$$$
P498419
     RDKit          3D

 23 24  0  0  0  0  0  0  0  0999 V2000
    9.4194    8.5751   23.0513 C   0  0  0  0  0  0  0  0  0  0  0  0
    8.5563    9.2793   23.9474 O   0  0  0  0  0  0  0  0  0  0  0  0
    8.7622   10.6108   23.9864 C   0  0  0  0  0  0  0  0  0  0  0  0
    9.5872   11.2341   23.3381 O   0  0  0  0  0  0  0  0  0  0  0  0
    7.8505   11.2686   24.9550 C   0  0  0  0  0  0  0  0  0  0  0  0
    6.8690   10.5450   25.6305 C   0  0  0  0  0  0  0  0  0  0  0  0
    6.0739   11.2195   26.5492 C   0  0  0  0  0  0  0  0  0  0  0  0
    5.0982   10.4900   27.4231 C   0  0  0  0  0  0  0  0  0  0  0  0
    4.0430   11.2762   27.7809 F   0  0  0  0  0  0  0  0  0  0  0  0
    4.5566    9.3859   26.8459 F   0  0  0  0  0  0  0  0  0  0  0  0
    5.6622   10.0626   28.5903 F   0  0  0  0  0  0  0  0  0  0  0  0
    6.1918   12.5502   26.7883 N   0  0  0  0  0  0  0  0  0  0  0  0
    7.1094   13.2293   26.0981 C   0  0  0  0  0  0  0  0  0  0  0  0
    7.9915   12.6429   25.2053 C   0  0  0  0  0  0  0  0  0  0  0  0
    8.9223   13.4716   24.5626 N   0  0  0  0  0  0  0  0  0  0  0  0
    8.2750   14.1888   23.4579 C   0  0  0  0  0  0  0  0  0  0  0  0
    9.3340   14.6182   22.5044 C   0  0  0  0  0  0  0  0  0  0  0  0
   10.6078   14.5239   22.7441 N   0  0  0  0  0  0  0  0  0  0  0  0
   11.2071   15.0146   21.6221 N   0  0  0  0  0  0  0  0  0  0  0  0
   12.6209   15.0853   21.4983 C   0  0  0  0  0  0  0  0  0  0  0  0
   10.3384   15.4283   20.6191 C   0  0  0  0  0  0  0  0  0  0  0  0
   10.5900   15.8538   19.5094 O   0  0  0  0  0  0  0  0  0  0  0  0
    8.9822   15.2389   21.1999 C   0  0  0  0  0  0  0  0  0  0  0  0
  1  2  1  0
  2  3  1  0
  3  4  2  0
  3  5  1  0
  5  6  2  0
  6  7  1  0
  7  8  1  0
  8  9  1  0
  8 10  1  0
  8 11  1  0
  7 12  2  0
 12 13  1  0
 13 14  2  0
 14 15  1  0
 15 16  1  0
 16 17  1  0
 17 18  2  0
 18 19  1  0
 19 20  1  0
 19 21  1  0
 21 22  2  0
 21 23  1  0
 14  5  1  0
 23 17  1  0
M  END
>  <energy_score>  (371) 
-22.282139

>  <inchikey>  (371) 
None

>  <smiles>  (371) 
None

>  <ref_pdb>  (371) 
A0514a

>  <alias>  (371) 
None

>  <HIPPO Pose ID>  (371) 
498419

>  <name>  (371) 
P498419

>  <HIPPO Compound ID>  (371) 
292871

>  <ref_mols>  (371) 
A4331a,A0514a

>  <distance_score>  (371) 
1.108353

>  <inspiration_score>  (371) 
None

$$$$
P498422
     RDKit          3D

 23 24  0  0  0  0  0  0  0  0999 V2000
    9.3688    8.5025   23.1515 C   0  0  0  0  0  0  0  0  0  0  0  0
    8.6152    9.2466   24.1131 O   0  0  0  0  0  0  0  0  0  0  0  0
    8.6596   10.5857   23.9394 C   0  0  0  0  0  0  0  0  0  0  0  0
    9.2519   11.1628   23.0440 O   0  0  0  0  0  0  0  0  0  0  0  0
    7.8916   11.2791   24.9975 C   0  0  0  0  0  0  0  0  0  0  0  0
    6.8445   10.6196   25.6555 C   0  0  0  0  0  0  0  0  0  0  0  0
    6.1062   11.3102   26.6094 C   0  0  0  0  0  0  0  0  0  0  0  0
    5.0470   10.6702   27.4574 C   0  0  0  0  0  0  0  0  0  0  0  0
    3.8450   11.4864   27.8903 C   0  0  0  0  0  0  0  0  0  0  0  0
    4.9090   11.1556   28.8880 C   0  0  0  0  0  0  0  0  0  0  0  0
    6.3598   12.6079   26.8845 N   0  0  0  0  0  0  0  0  0  0  0  0
    7.3528   13.2207   26.2386 C   0  0  0  0  0  0  0  0  0  0  0  0
    8.1721   12.6172   25.2970 C   0  0  0  0  0  0  0  0  0  0  0  0
    9.1877   13.3962   24.7367 N   0  0  0  0  0  0  0  0  0  0  0  0
   10.5047   12.8964   24.8175 N   0  0  0  0  0  0  0  0  0  0  0  0
    8.7813   14.4514   23.7524 C   0  0  2  0  0  0  0  0  0  0  0  0
    7.3359   14.2986   23.2657 C   0  0  0  0  0  0  0  0  0  0  0  0
    9.9088   14.5944   22.6739 C   0  0  0  0  0  0  0  0  0  0  0  0
    9.8018   15.2627   21.2862 C   0  0  0  0  0  0  0  0  0  0  0  0
    9.8408   16.7553   20.9628 C   0  0  0  0  0  0  0  0  0  0  0  0
    8.5019   14.8320   20.7047 C   0  0  0  0  0  0  0  0  0  0  0  0
   10.8398   14.6973   20.4570 O   0  0  0  0  0  0  0  0  0  0  0  0
   12.1677   14.7919   20.9540 C   0  0  0  0  0  0  0  0  0  0  0  0
  1  2  1  0
  2  3  1  0
  3  4  2  0
  3  5  1  0
  5  6  2  0
  6  7  1  0
  7  8  1  0
  8  9  1  0
  9 10  1  0
  7 11  2  0
 11 12  1  0
 12 13  2  0
 13 14  1  0
 14 15  1  0
 14 16  1  0
 16 17  1  6
 16 18  1  0
 18 19  1  0
 19 20  1  0
 19 21  1  0
 19 22  1  0
 22 23  1  0
 13  5  1  0
 10  8  1  0
M  END
>  <energy_score>  (372) 
-18.027408

>  <inchikey>  (372) 
None

>  <smiles>  (372) 
None

>  <ref_pdb>  (372) 
A0514a

>  <alias>  (372) 
None

>  <HIPPO Pose ID>  (372) 
498422

>  <name>  (372) 
P498422

>  <HIPPO Compound ID>  (372) 
292891

>  <ref_mols>  (372) 
A4331a,A0514a

>  <distance_score>  (372) 
1.524427

>  <inspiration_score>  (372) 
None

$$$$
P498424
     RDKit          3D

 23 25  0  0  0  0  0  0  0  0999 V2000
    9.6196    8.2190   23.4504 C   0  0  0  0  0  0  0  0  0  0  0  0
    8.8161    9.1280   24.1925 O   0  0  0  0  0  0  0  0  0  0  0  0
    8.8591   10.3230   23.5698 C   0  0  0  0  0  0  0  0  0  0  0  0
    9.4012   10.4980   22.4920 O   0  0  0  0  0  0  0  0  0  0  0  0
    8.2155   11.3980   24.3544 C   0  0  0  0  0  0  0  0  0  0  0  0
    7.1659   11.0561   25.2136 C   0  0  0  0  0  0  0  0  0  0  0  0
    6.5313   12.0640   25.9135 C   0  0  0  0  0  0  0  0  0  0  0  0
    5.4754   11.7613   26.9464 C   0  0  0  0  0  0  0  0  0  0  0  0
    4.2713   12.6619   27.0845 C   0  0  0  0  0  0  0  0  0  0  0  0
    5.3379   12.6903   28.1362 C   0  0  0  0  0  0  0  0  0  0  0  0
    6.8818   13.3603   25.7181 N   0  0  0  0  0  0  0  0  0  0  0  0
    7.8851   13.6637   24.8561 C   0  0  0  0  0  0  0  0  0  0  0  0
    8.6520   12.7353   24.1811 C   0  0  0  0  0  0  0  0  0  0  0  0
    9.8563   13.0543   23.5478 N   0  0  0  0  0  0  0  0  0  0  0  0
   10.8734   12.1048   23.8082 N   0  0  0  0  0  0  0  0  0  0  0  0
   10.2128   14.2913   22.7573 C   0  0  1  0  0  0  0  0  0  0  0  0
   11.7252   14.5013   22.8993 C   0  0  0  0  0  0  0  0  0  0  0  0
   12.3815   15.4598   21.9635 C   0  0  0  0  0  0  0  0  0  0  0  0
   11.9855   15.2617   20.6508 O   0  0  0  0  0  0  0  0  0  0  0  0
   10.5956   15.3652   20.3763 C   0  0  0  0  0  0  0  0  0  0  0  0
    9.9960   16.7662   20.5443 C   0  0  0  0  0  0  0  0  0  0  0  0
   10.6788   15.1748   18.8590 C   0  0  0  0  0  0  0  0  0  0  0  0
    9.8368   14.2972   21.2577 C   0  0  0  0  0  0  0  0  0  0  0  0
  1  2  1  0
  2  3  1  0
  3  4  2  0
  3  5  1  0
  5  6  2  0
  6  7  1  0
  7  8  1  0
  8  9  1  0
  9 10  1  0
  7 11  2  0
 11 12  1  0
 12 13  2  0
 13 14  1  0
 14 15  1  0
 16 14  1  6
 16 17  1  0
 17 18  1  0
 18 19  1  0
 19 20  1  0
 20 21  1  0
 20 22  1  0
 20 23  1  0
 13  5  1  0
 23 16  1  0
 10  8  1  0
M  END
>  <energy_score>  (373) 
-25.126157

>  <inchikey>  (373) 
None

>  <smiles>  (373) 
None

>  <ref_pdb>  (373) 
A0514a

>  <alias>  (373) 
None

>  <HIPPO Pose ID>  (373) 
498424

>  <name>  (373) 
P498424

>  <HIPPO Compound ID>  (373) 
292899

>  <ref_mols>  (373) 
A4331a,A0514a

>  <distance_score>  (373) 
1.728548

>  <inspiration_score>  (373) 
None

$$$$
P498426
     RDKit          3D

 23 25  0  0  0  0  0  0  0  0999 V2000
    9.6032    8.9560   22.8177 C   0  0  0  0  0  0  0  0  0  0  0  0
    8.9968   10.1377   23.3342 O   0  0  0  0  0  0  0  0  0  0  0  0
    8.1575    9.8936   24.3537 C   0  0  0  0  0  0  0  0  0  0  0  0
    7.8465    8.7795   24.7494 O   0  0  0  0  0  0  0  0  0  0  0  0
    7.6033   11.0761   25.0417 C   0  0  0  0  0  0  0  0  0  0  0  0
    6.5567   10.7701   25.9302 C   0  0  0  0  0  0  0  0  0  0  0  0
    6.0191   11.7547   26.7347 C   0  0  0  0  0  0  0  0  0  0  0  0
    4.9091   11.4808   27.7030 C   0  0  0  0  0  0  0  0  0  0  0  0
    3.6426   12.2988   27.6086 C   0  0  0  0  0  0  0  0  0  0  0  0
    4.5788   12.5188   28.7566 C   0  0  0  0  0  0  0  0  0  0  0  0
    6.5047   13.0076   26.6918 N   0  0  0  0  0  0  0  0  0  0  0  0
    7.4600   13.2969   25.7960 C   0  0  0  0  0  0  0  0  0  0  0  0
    8.0444   12.3960   24.9102 C   0  0  0  0  0  0  0  0  0  0  0  0
    8.9878   12.8229   23.9637 N   0  0  0  0  0  0  0  0  0  0  0  0
   10.3109   12.4115   24.2578 N   0  0  0  0  0  0  0  0  0  0  0  0
    8.7705   14.1601   23.3311 C   0  0  2  0  0  0  0  0  0  0  0  0
    7.3387   14.2660   22.7584 C   0  0  0  0  0  0  0  0  0  0  0  0
    9.7708   14.5621   22.2781 C   0  0  0  0  0  0  0  0  0  0  0  0
   11.1784   14.6924   22.3583 C   0  0  0  0  0  0  0  0  0  0  0  0
   11.7358   15.1190   21.2249 N   0  0  0  0  0  0  0  0  0  0  0  0
   10.6833   15.2743   20.3993 N   0  0  0  0  0  0  0  0  0  0  0  0
   10.8283   15.7026   19.0299 C   0  0  0  0  0  0  0  0  0  0  0  0
    9.4978   15.0024   21.0046 C   0  0  0  0  0  0  0  0  0  0  0  0
  1  2  1  0
  2  3  1  0
  3  4  2  0
  3  5  1  0
  5  6  2  0
  6  7  1  0
  7  8  1  0
  8  9  1  0
  9 10  1  0
  7 11  2  0
 11 12  1  0
 12 13  2  0
 13 14  1  0
 14 15  1  0
 14 16  1  0
 16 17  1  6
 16 18  1  0
 18 19  1  0
 19 20  2  0
 20 21  1  0
 21 22  1  0
 21 23  1  0
 13  5  1  0
 23 18  2  0
 10  8  1  0
M  END
>  <energy_score>  (374) 
-27.552784

>  <inchikey>  (374) 
None

>  <smiles>  (374) 
None

>  <ref_pdb>  (374) 
A0514a

>  <alias>  (374) 
None

>  <HIPPO Pose ID>  (374) 
498426

>  <name>  (374) 
P498426

>  <HIPPO Compound ID>  (374) 
292902

>  <ref_mols>  (374) 
A4331a,A0514a

>  <distance_score>  (374) 
1.340484

>  <inspiration_score>  (374) 
None

$$$$
P498428
     RDKit          3D

 23 25  0  0  0  0  0  0  0  0999 V2000
    9.5437    8.8243   23.5497 C   0  0  0  0  0  0  0  0  0  0  0  0
    8.6511    9.7555   24.1683 O   0  0  0  0  0  0  0  0  0  0  0  0
    8.9419   11.0292   23.8148 C   0  0  0  0  0  0  0  0  0  0  0  0
    9.8381   11.3471   23.0516 O   0  0  0  0  0  0  0  0  0  0  0  0
    8.0388   12.0124   24.4574 C   0  0  0  0  0  0  0  0  0  0  0  0
    6.9333   11.6064   25.2045 C   0  0  0  0  0  0  0  0  0  0  0  0
    6.1324   12.5711   25.8095 C   0  0  0  0  0  0  0  0  0  0  0  0
    4.9817   12.2362   26.7051 C   0  0  0  0  0  0  0  0  0  0  0  0
    5.0772   11.2597   27.8427 C   0  0  0  0  0  0  0  0  0  0  0  0
    5.0638   12.7293   28.1354 C   0  0  0  0  0  0  0  0  0  0  0  0
    6.3537   13.8883   25.6303 N   0  0  0  0  0  0  0  0  0  0  0  0
    7.4237   14.2533   24.9115 C   0  0  0  0  0  0  0  0  0  0  0  0
    8.3433   13.3776   24.3599 C   0  0  0  0  0  0  0  0  0  0  0  0
    9.6602   13.8478   24.1875 N   0  0  0  0  0  0  0  0  0  0  0  0
   10.5019   13.4246   25.2616 N   0  0  0  0  0  0  0  0  0  0  0  0
   10.3963   14.3039   23.0707 C   0  0  0  0  0  0  0  0  0  0  0  0
    9.8519   14.6705   21.8643 C   0  0  0  0  0  0  0  0  0  0  0  0
   10.7554   15.1861   20.9610 C   0  0  0  0  0  0  0  0  0  0  0  0
   10.3191   15.7894   19.3756 S   0  0  0  0  0  0  0  0  0  0  0  0
   11.6311   14.9688   18.4301 C   0  0  0  0  0  0  0  0  0  0  0  0
   12.0609   15.3281   21.2044 N   0  0  0  0  0  0  0  0  0  0  0  0
   12.4917   14.9115   22.3625 C   0  0  0  0  0  0  0  0  0  0  0  0
   11.7293   14.4380   23.3336 N   0  0  0  0  0  0  0  0  0  0  0  0
  1  2  1  0
  2  3  1  0
  3  4  2  0
  3  5  1  0
  5  6  2  0
  6  7  1  0
  7  8  1  0
  8  9  1  0
  9 10  1  0
  7 11  2  0
 11 12  1  0
 12 13  2  0
 13 14  1  0
 14 15  1  0
 14 16  1  0
 16 17  2  0
 17 18  1  0
 18 19  1  0
 19 20  1  0
 18 21  2  0
 21 22  1  0
 22 23  2  0
 13  5  1  0
 23 16  1  0
 10  8  1  0
M  END
>  <energy_score>  (375) 
-22.12993

>  <inchikey>  (375) 
None

>  <smiles>  (375) 
None

>  <ref_pdb>  (375) 
A0514a

>  <alias>  (375) 
None

>  <HIPPO Pose ID>  (375) 
498428

>  <name>  (375) 
P498428

>  <HIPPO Compound ID>  (375) 
292908

>  <ref_mols>  (375) 
A4331a,A0514a

>  <distance_score>  (375) 
1.793821

>  <inspiration_score>  (375) 
None

$$$$
P498431
     RDKit          3D

 23 24  0  0  0  0  0  0  0  0999 V2000
   10.2609   15.9317   19.6653 C   0  0  0  0  0  0  0  0  0  0  0  0
   11.4672   15.0515   19.9299 C   0  0  0  0  0  0  0  0  0  0  0  0
   12.2663   15.4017   21.1808 C   0  0  0  0  0  0  0  0  0  0  0  0
   12.3109   14.3274   22.2446 C   0  0  0  0  0  0  0  0  0  0  0  0
   11.2153   14.4159   23.2709 C   0  0  0  0  0  0  0  0  0  0  0  0
    9.8002   14.2368   22.7134 C   0  0  0  0  0  0  0  0  0  0  0  0
    9.1308   12.9792   23.2436 C   0  0  1  0  0  0  0  0  0  0  0  0
   10.1055   11.8584   22.9410 C   0  0  0  0  0  0  0  0  0  0  0  0
    8.8073   13.0615   24.6871 N   0  0  0  0  0  0  0  0  0  0  0  0
    9.0810   14.3003   25.3700 N   0  0  0  0  0  0  0  0  0  0  0  0
    7.6262   12.3789   25.0790 C   0  0  0  0  0  0  0  0  0  0  0  0
    6.6114   13.0974   25.6996 C   0  0  0  0  0  0  0  0  0  0  0  0
    5.6297   12.5649   26.4339 N   0  0  0  0  0  0  0  0  0  0  0  0
    5.5788   11.2274   26.5596 C   0  0  0  0  0  0  0  0  0  0  0  0
    4.7210   10.7003   27.6685 C   0  0  0  0  0  0  0  0  0  0  0  0
    3.5503   11.5119   28.1748 C   0  0  0  0  0  0  0  0  0  0  0  0
    4.8001   11.4296   28.9971 C   0  0  0  0  0  0  0  0  0  0  0  0
    6.3796   10.4106   25.7851 C   0  0  0  0  0  0  0  0  0  0  0  0
    7.4008   10.9899   25.0314 C   0  0  0  0  0  0  0  0  0  0  0  0
    8.3301   10.0268   24.4460 C   0  0  0  0  0  0  0  0  0  0  0  0
    9.5007   10.0085   24.7327 O   0  0  0  0  0  0  0  0  0  0  0  0
    7.7972    9.1821   23.5550 O   0  0  0  0  0  0  0  0  0  0  0  0
    8.8107    8.3829   22.9106 C   0  0  0  0  0  0  0  0  0  0  0  0
  1  2  1  0
  2  3  1  0
  3  4  1  0
  4  5  1  0
  5  6  1  0
  6  7  1  0
  7  8  1  1
  7  9  1  0
  9 10  1  0
  9 11  1  0
 11 12  2  0
 12 13  1  0
 13 14  2  0
 14 15  1  0
 15 16  1  0
 16 17  1  0
 14 18  1  0
 18 19  2  0
 19 20  1  0
 20 21  2  0
 20 22  1  0
 22 23  1  0
 19 11  1  0
 17 15  1  0
M  END
>  <energy_score>  (376) 
-14.353489

>  <inchikey>  (376) 
None

>  <smiles>  (376) 
None

>  <ref_pdb>  (376) 
A0514a

>  <alias>  (376) 
None

>  <HIPPO Pose ID>  (376) 
498431

>  <name>  (376) 
P498431

>  <HIPPO Compound ID>  (376) 
292915

>  <ref_mols>  (376) 
A4331a,A0514a

>  <distance_score>  (376) 
1.564347

>  <inspiration_score>  (376) 
None

$$$$
P498432
     RDKit          3D

 23 25  0  0  0  0  0  0  0  0999 V2000
    5.6380   15.4427   23.3679 C   0  0  0  0  0  0  0  0  0  0  0  0
    7.0584   15.3118   23.4134 O   0  0  0  0  0  0  0  0  0  0  0  0
    7.5450   14.3748   22.5683 C   0  0  0  0  0  0  0  0  0  0  0  0
    6.9167   13.5910   21.8756 O   0  0  0  0  0  0  0  0  0  0  0  0
    9.0089   14.4416   22.5352 C   0  0  0  0  0  0  0  0  0  0  0  0
    9.5852   14.7585   21.3159 C   0  0  0  0  0  0  0  0  0  0  0  0
   10.9653   14.7838   21.2017 C   0  0  0  0  0  0  0  0  0  0  0  0
   11.6714   15.2105   19.9574 C   0  0  0  0  0  0  0  0  0  0  0  0
   10.9078   15.8291   18.7881 C   0  0  0  0  0  0  0  0  0  0  0  0
   11.6719   14.5618   18.6204 C   0  0  0  0  0  0  0  0  0  0  0  0
   11.7559   14.5250   22.2829 N   0  0  0  0  0  0  0  0  0  0  0  0
   11.1721   14.2283   23.4578 C   0  0  0  0  0  0  0  0  0  0  0  0
    9.8021   14.1813   23.6533 C   0  0  0  0  0  0  0  0  0  0  0  0
    9.2668   13.7939   24.9088 N   0  0  0  0  0  0  0  0  0  0  0  0
    8.8637   14.8904   25.7076 N   0  0  0  0  0  0  0  0  0  0  0  0
    8.5095   12.5805   24.9716 C   0  0  0  0  0  0  0  0  0  0  0  0
    8.9592   11.4864   24.2233 C   0  0  0  0  0  0  0  0  0  0  0  0
    8.2994   10.2874   24.2895 C   0  0  0  0  0  0  0  0  0  0  0  0
    8.8343    9.1383   23.4973 C   0  0  0  0  0  0  0  0  0  0  0  0
    7.2236   10.1274   25.0828 N   0  0  0  0  0  0  0  0  0  0  0  0
    6.7758   11.1975   25.7717 C   0  0  0  0  0  0  0  0  0  0  0  0
    5.6072   10.9980   26.6527 C   0  0  0  0  0  0  0  0  0  0  0  0
    7.3734   12.4347   25.7448 C   0  0  0  0  0  0  0  0  0  0  0  0
  1  2  1  0
  2  3  1  0
  3  4  2  0
  3  5  1  0
  5  6  2  0
  6  7  1  0
  7  8  1  0
  8  9  1  0
  9 10  1  0
  7 11  2  0
 11 12  1  0
 12 13  2  0
 13 14  1  0
 14 15  1  0
 14 16  1  0
 16 17  2  0
 17 18  1  0
 18 19  1  0
 18 20  2  0
 20 21  1  0
 21 22  1  0
 21 23  2  0
 13  5  1  0
 23 16  1  0
 10  8  1  0
M  END
>  <energy_score>  (377) 
-43.899994

>  <inchikey>  (377) 
None

>  <smiles>  (377) 
None

>  <ref_pdb>  (377) 
A0514a

>  <alias>  (377) 
None

>  <HIPPO Pose ID>  (377) 
498432

>  <name>  (377) 
P498432

>  <HIPPO Compound ID>  (377) 
292916

>  <ref_mols>  (377) 
A4331a,A0514a

>  <distance_score>  (377) 
1.884148

>  <inspiration_score>  (377) 
None

$$$$
P498435
     RDKit          3D

 23 25  0  0  0  0  0  0  0  0999 V2000
    9.1512    8.3410   22.8847 C   0  0  0  0  0  0  0  0  0  0  0  0
    8.3423    9.2316   23.6505 O   0  0  0  0  0  0  0  0  0  0  0  0
    8.9916   10.3996   23.8640 C   0  0  0  0  0  0  0  0  0  0  0  0
   10.1609   10.5850   23.5782 O   0  0  0  0  0  0  0  0  0  0  0  0
    8.0510   11.4059   24.4271 C   0  0  0  0  0  0  0  0  0  0  0  0
    7.0369   11.0041   25.2924 C   0  0  0  0  0  0  0  0  0  0  0  0
    6.2456   11.9701   25.9007 C   0  0  0  0  0  0  0  0  0  0  0  0
    5.3089   11.6105   27.0251 C   0  0  0  0  0  0  0  0  0  0  0  0
    4.1248   12.4886   27.3523 C   0  0  0  0  0  0  0  0  0  0  0  0
    5.3193   12.4941   28.2571 C   0  0  0  0  0  0  0  0  0  0  0  0
    6.3477   13.2721   25.5569 N   0  0  0  0  0  0  0  0  0  0  0  0
    7.3147   13.6343   24.6945 C   0  0  0  0  0  0  0  0  0  0  0  0
    8.2788   12.7749   24.1936 C   0  0  0  0  0  0  0  0  0  0  0  0
    9.5782   13.1978   23.8680 N   0  0  0  0  0  0  0  0  0  0  0  0
   10.3466   12.8912   25.0346 N   0  0  0  0  0  0  0  0  0  0  0  0
    9.9134   14.5193   23.2710 C   0  0  0  0  0  0  0  0  0  0  0  0
   11.4352   14.8184   23.4760 C   0  0  0  0  0  0  0  0  0  0  0  0
   12.2511   14.4918   22.2912 C   0  0  1  0  0  0  0  0  0  0  0  0
   12.1681   13.0225   22.1004 C   0  0  0  0  0  0  0  0  0  0  0  0
   11.7908   15.2969   21.2427 O   0  0  0  0  0  0  0  0  0  0  0  0
   10.5351   14.8932   20.7428 C   0  0  2  0  0  0  0  0  0  0  0  0
   10.2429   15.8499   19.6079 C   0  0  0  0  0  0  0  0  0  0  0  0
    9.4300   14.7596   21.8161 C   0  0  0  0  0  0  0  0  0  0  0  0
  1  2  1  0
  2  3  1  0
  3  4  2  0
  3  5  1  0
  5  6  2  0
  6  7  1  0
  7  8  1  0
  8  9  1  0
  9 10  1  0
  7 11  2  0
 11 12  1  0
 12 13  2  0
 13 14  1  0
 14 15  1  0
 14 16  1  0
 16 17  1  0
 17 18  1  0
 18 19  1  6
 18 20  1  0
 20 21  1  0
 21 22  1  6
 21 23  1  0
 13  5  1  0
 23 16  1  0
 10  8  1  0
M  END
>  <energy_score>  (378) 
-5.69362

>  <inchikey>  (378) 
None

>  <smiles>  (378) 
None

>  <ref_pdb>  (378) 
A0514a

>  <alias>  (378) 
None

>  <HIPPO Pose ID>  (378) 
498435

>  <name>  (378) 
P498435

>  <HIPPO Compound ID>  (378) 
292919

>  <ref_mols>  (378) 
A4331a,A0514a

>  <distance_score>  (378) 
1.361273

>  <inspiration_score>  (378) 
None

$$$$
P498438
     RDKit          3D

 23 25  0  0  0  0  0  0  0  0999 V2000
    9.3601    8.5762   23.0317 C   0  0  0  0  0  0  0  0  0  0  0  0
    8.4493    9.2822   23.8757 O   0  0  0  0  0  0  0  0  0  0  0  0
    8.8155   10.5609   24.1193 C   0  0  0  0  0  0  0  0  0  0  0  0
    9.8293   11.0861   23.6914 O   0  0  0  0  0  0  0  0  0  0  0  0
    7.7996   11.2404   24.9733 C   0  0  0  0  0  0  0  0  0  0  0  0
    6.8251   10.4810   25.6392 C   0  0  0  0  0  0  0  0  0  0  0  0
    5.9562   11.1063   26.5261 C   0  0  0  0  0  0  0  0  0  0  0  0
    4.9950   10.3672   27.4041 C   0  0  0  0  0  0  0  0  0  0  0  0
    5.0690   10.5987   28.8959 C   0  0  0  0  0  0  0  0  0  0  0  0
    3.9110   11.1510   28.1256 C   0  0  0  0  0  0  0  0  0  0  0  0
    5.9936   12.4365   26.7177 N   0  0  0  0  0  0  0  0  0  0  0  0
    6.9024   13.1500   26.0547 C   0  0  0  0  0  0  0  0  0  0  0  0
    7.8534   12.6260   25.1860 C   0  0  0  0  0  0  0  0  0  0  0  0
    8.7966   13.5037   24.5947 N   0  0  0  0  0  0  0  0  0  0  0  0
    9.0952   14.6254   25.4035 N   0  0  0  0  0  0  0  0  0  0  0  0
    8.5364   13.6786   23.1323 C   0  0  1  0  0  0  0  0  0  0  0  0
    7.3015   14.5457   22.8671 C   0  0  0  0  0  0  0  0  0  0  0  0
    9.8036   14.0080   22.2964 C   0  0  0  0  0  0  0  0  0  0  0  0
   11.1279   14.1835   23.0422 C   0  0  0  0  0  0  0  0  0  0  0  0
   12.2457   14.4937   22.0713 C   0  0  0  0  0  0  0  0  0  0  0  0
   11.9129   15.6308   21.2955 O   0  0  0  0  0  0  0  0  0  0  0  0
   10.8380   15.3401   20.4075 C   0  0  0  0  0  0  0  0  0  0  0  0
    9.5806   15.0670   21.2074 C   0  0  0  0  0  0  0  0  0  0  0  0
  1  2  1  0
  2  3  1  0
  3  4  2  0
  3  5  1  0
  5  6  2  0
  6  7  1  0
  7  8  1  0
  8  9  1  0
  9 10  1  0
  7 11  2  0
 11 12  1  0
 12 13  2  0
 13 14  1  0
 14 15  1  0
 14 16  1  0
 16 17  1  1
 16 18  1  0
 18 19  1  0
 19 20  1  0
 20 21  1  0
 21 22  1  0
 22 23  1  0
 13  5  1  0
 23 18  1  0
 10  8  1  0
M  END
>  <energy_score>  (379) 
-54.263422

>  <inchikey>  (379) 
None

>  <smiles>  (379) 
None

>  <ref_pdb>  (379) 
A0514a

>  <alias>  (379) 
None

>  <HIPPO Pose ID>  (379) 
498438

>  <name>  (379) 
P498438

>  <HIPPO Compound ID>  (379) 
292923

>  <ref_mols>  (379) 
A4331a,A0514a

>  <distance_score>  (379) 
1.454483

>  <inspiration_score>  (379) 
None

$$$$
P498439
     RDKit          3D

 23 24  0  0  0  0  0  0  0  0999 V2000
    9.2986    8.5967   23.4146 C   0  0  0  0  0  0  0  0  0  0  0  0
    8.5570    9.4053   24.3358 O   0  0  0  0  0  0  0  0  0  0  0  0
    8.5804   10.7127   23.9955 C   0  0  0  0  0  0  0  0  0  0  0  0
    9.1091   11.1680   22.9973 O   0  0  0  0  0  0  0  0  0  0  0  0
    7.8710   11.5609   24.9715 C   0  0  0  0  0  0  0  0  0  0  0  0
    6.7483   11.0803   25.6497 C   0  0  0  0  0  0  0  0  0  0  0  0
    6.0676   11.9551   26.4890 C   0  0  0  0  0  0  0  0  0  0  0  0
    4.8366   11.6071   27.2508 C   0  0  0  0  0  0  0  0  0  0  0  0
    4.8046   10.5278   28.2887 C   0  0  0  0  0  0  0  0  0  0  0  0
    4.8180   11.9623   28.7232 C   0  0  0  0  0  0  0  0  0  0  0  0
    6.4727   13.2301   26.6708 N   0  0  0  0  0  0  0  0  0  0  0  0
    7.5487   13.6679   26.0137 C   0  0  0  0  0  0  0  0  0  0  0  0
    8.3051   12.8829   25.1628 C   0  0  0  0  0  0  0  0  0  0  0  0
    9.4556   13.4145   24.5294 N   0  0  0  0  0  0  0  0  0  0  0  0
   10.3333   14.1597   25.3736 N   0  0  0  0  0  0  0  0  0  0  0  0
    9.0172   14.0988   23.2728 C   0  0  0  0  0  0  0  0  0  0  0  0
   10.2063   14.3720   22.3601 C   0  0  0  0  0  0  0  0  0  0  0  0
   10.7930   13.1872   22.0450 F   0  0  0  0  0  0  0  0  0  0  0  0
   11.1698   15.0702   23.0270 F   0  0  0  0  0  0  0  0  0  0  0  0
    9.7217   15.0950   21.1201 C   0  0  0  0  0  0  0  0  0  0  0  0
    8.6583   14.4342   20.5965 F   0  0  0  0  0  0  0  0  0  0  0  0
    9.2762   16.3411   21.3670 F   0  0  0  0  0  0  0  0  0  0  0  0
   10.6825   15.1887   20.1805 F   0  0  0  0  0  0  0  0  0  0  0  0
  1  2  1  0
  2  3  1  0
  3  4  2  0
  3  5  1  0
  5  6  2  0
  6  7  1  0
  7  8  1  0
  8  9  1  0
  9 10  1  0
  7 11  2  0
 11 12  1  0
 12 13  2  0
 13 14  1  0
 14 15  1  0
 14 16  1  0
 16 17  1  0
 17 18  1  0
 17 19  1  0
 17 20  1  0
 20 21  1  0
 20 22  1  0
 20 23  1  0
 13  5  1  0
 10  8  1  0
M  END
>  <energy_score>  (380) 
-29.238129

>  <inchikey>  (380) 
None

>  <smiles>  (380) 
None

>  <ref_pdb>  (380) 
A0514a

>  <alias>  (380) 
None

>  <HIPPO Pose ID>  (380) 
498439

>  <name>  (380) 
P498439

>  <HIPPO Compound ID>  (380) 
292931

>  <ref_mols>  (380) 
A4331a,A0514a

>  <distance_score>  (380) 
1.574737

>  <inspiration_score>  (380) 
None

$$$$
P498442
     RDKit          3D

 23 25  0  0  0  0  0  0  0  0999 V2000
    9.5629    8.1126   23.5835 C   0  0  0  0  0  0  0  0  0  0  0  0
    8.6612    8.9037   24.3616 O   0  0  0  0  0  0  0  0  0  0  0  0
    8.5704   10.0741   23.7184 C   0  0  0  0  0  0  0  0  0  0  0  0
    9.0251   10.2178   22.5952 O   0  0  0  0  0  0  0  0  0  0  0  0
    7.9964   11.1945   24.4724 C   0  0  0  0  0  0  0  0  0  0  0  0
    6.9900   10.9618   25.4124 C   0  0  0  0  0  0  0  0  0  0  0  0
    6.3943   12.0630   26.0067 C   0  0  0  0  0  0  0  0  0  0  0  0
    5.2107   11.9793   26.9184 C   0  0  0  0  0  0  0  0  0  0  0  0
    5.1953   11.2060   28.2026 C   0  0  0  0  0  0  0  0  0  0  0  0
    5.3030   12.7012   28.2465 C   0  0  0  0  0  0  0  0  0  0  0  0
    6.8105   13.3198   25.7267 N   0  0  0  0  0  0  0  0  0  0  0  0
    7.7620   13.5168   24.7918 C   0  0  0  0  0  0  0  0  0  0  0  0
    8.4152   12.5010   24.1233 C   0  0  0  0  0  0  0  0  0  0  0  0
    9.3992   12.7449   23.1281 N   0  0  0  0  0  0  0  0  0  0  0  0
   10.6135   11.9537   23.2323 N   0  0  0  0  0  0  0  0  0  0  0  0
    9.7697   13.9370   22.6034 C   0  0  0  0  0  0  0  0  0  0  0  0
    9.3648   14.3118   21.3472 O   0  0  0  0  0  0  0  0  0  0  0  0
   10.3490   15.2085   20.9514 C   0  0  0  0  0  0  0  0  0  0  0  0
   10.3192   15.7777   19.5898 C   0  0  0  0  0  0  0  0  0  0  0  0
   11.2851   15.4260   21.8504 N   0  0  0  0  0  0  0  0  0  0  0  0
   10.8853   14.6692   22.8942 C   0  0  0  0  0  0  0  0  0  0  0  0
   11.5865   14.5124   24.1069 C   0  0  0  0  0  0  0  0  0  0  0  0
   12.0242   14.3475   25.1676 N   0  0  0  0  0  0  0  0  0  0  0  0
  1  2  1  0
  2  3  1  0
  3  4  2  0
  3  5  1  0
  5  6  2  0
  6  7  1  0
  7  8  1  0
  8  9  1  0
  9 10  1  0
  7 11  2  0
 11 12  1  0
 12 13  2  0
 13 14  1  0
 14 15  1  0
 14 16  1  0
 16 17  1  0
 17 18  1  0
 18 19  1  0
 18 20  2  0
 20 21  1  0
 21 22  1  0
 22 23  3  0
 13  5  1  0
 21 16  2  0
 10  8  1  0
M  END
>  <energy_score>  (381) 
-17.230934

>  <inchikey>  (381) 
None

>  <smiles>  (381) 
None

>  <ref_pdb>  (381) 
A0514a

>  <alias>  (381) 
None

>  <HIPPO Pose ID>  (381) 
498442

>  <name>  (381) 
P498442

>  <HIPPO Compound ID>  (381) 
292940

>  <ref_mols>  (381) 
A4331a,A0514a

>  <distance_score>  (381) 
1.479076

>  <inspiration_score>  (381) 
None

$$$$
P498443
     RDKit          3D

 23 25  0  0  0  0  0  0  0  0999 V2000
    9.3488    8.7136   23.0262 C   0  0  0  0  0  0  0  0  0  0  0  0
    8.5028    9.6071   23.7580 O   0  0  0  0  0  0  0  0  0  0  0  0
    8.9285   10.8915   23.7594 C   0  0  0  0  0  0  0  0  0  0  0  0
    9.9559   11.2917   23.2478 O   0  0  0  0  0  0  0  0  0  0  0  0
    8.0078   11.7561   24.5332 C   0  0  0  0  0  0  0  0  0  0  0  0
    7.2628   11.1594   25.5579 C   0  0  0  0  0  0  0  0  0  0  0  0
    6.4327   11.9280   26.3634 C   0  0  0  0  0  0  0  0  0  0  0  0
    5.5381   11.3046   27.3985 C   0  0  0  0  0  0  0  0  0  0  0  0
    5.5188   11.8672   28.7984 C   0  0  0  0  0  0  0  0  0  0  0  0
    4.3439   12.0933   27.8982 C   0  0  0  0  0  0  0  0  0  0  0  0
    6.3934   13.2636   26.2338 N   0  0  0  0  0  0  0  0  0  0  0  0
    7.0292   13.8010   25.1834 C   0  0  0  0  0  0  0  0  0  0  0  0
    7.8436   13.1228   24.2777 C   0  0  0  0  0  0  0  0  0  0  0  0
    8.2922   13.8117   23.1206 N   0  0  0  0  0  0  0  0  0  0  0  0
    7.2985   14.5958   22.5296 N   0  0  0  0  0  0  0  0  0  0  0  0
    9.6129   14.1157   22.7881 C   0  0  0  0  0  0  0  0  0  0  0  0
   10.6516   13.9126   23.6091 C   0  0  0  0  0  0  0  0  0  0  0  0
   12.0192   14.1119   23.1298 C   0  0  0  0  0  0  0  0  0  0  0  0
   12.9402   13.7162   23.8393 O   0  0  0  0  0  0  0  0  0  0  0  0
   12.1638   14.7346   21.9288 N   0  0  0  0  0  0  0  0  0  0  0  0
   11.1269   14.9312   21.0695 C   0  0  0  0  0  0  0  0  0  0  0  0
   11.2704   15.3193   19.9171 O   0  0  0  0  0  0  0  0  0  0  0  0
    9.8882   14.6639   21.5597 N   0  0  0  0  0  0  0  0  0  0  0  0
  1  2  1  0
  2  3  1  0
  3  4  2  0
  3  5  1  0
  5  6  2  0
  6  7  1  0
  7  8  1  0
  8  9  1  0
  9 10  1  0
  7 11  2  0
 11 12  1  0
 12 13  2  0
 13 14  1  0
 14 15  1  0
 14 16  1  0
 16 17  2  0
 17 18  1  0
 18 19  2  0
 18 20  1  0
 20 21  1  0
 21 22  2  0
 21 23  1  0
 13  5  1  0
 23 16  1  0
 10  8  1  0
M  END
>  <energy_score>  (382) 
-58.608044

>  <inchikey>  (382) 
None

>  <smiles>  (382) 
None

>  <ref_pdb>  (382) 
A0514a

>  <alias>  (382) 
None

>  <HIPPO Pose ID>  (382) 
498443

>  <name>  (382) 
P498443

>  <HIPPO Compound ID>  (382) 
292943

>  <ref_mols>  (382) 
A4331a,A0514a

>  <distance_score>  (382) 
1.891516

>  <inspiration_score>  (382) 
None

$$$$
P498445
     RDKit          3D

 23 25  0  0  0  0  0  0  0  0999 V2000
    9.3581    8.5997   23.0304 C   0  0  0  0  0  0  0  0  0  0  0  0
    8.5172    9.3780   23.8861 O   0  0  0  0  0  0  0  0  0  0  0  0
    8.8426   10.6894   23.9344 C   0  0  0  0  0  0  0  0  0  0  0  0
    9.7650   11.2081   23.3307 O   0  0  0  0  0  0  0  0  0  0  0  0
    7.9412   11.4208   24.8628 C   0  0  0  0  0  0  0  0  0  0  0  0
    6.9766   10.7408   25.6161 C   0  0  0  0  0  0  0  0  0  0  0  0
    6.2104   11.4520   26.5347 C   0  0  0  0  0  0  0  0  0  0  0  0
    5.2190   10.7943   27.4508 C   0  0  0  0  0  0  0  0  0  0  0  0
    3.9788   11.5522   27.8769 C   0  0  0  0  0  0  0  0  0  0  0  0
    5.0906   11.3462   28.8573 C   0  0  0  0  0  0  0  0  0  0  0  0
    6.3776   12.7854   26.7073 N   0  0  0  0  0  0  0  0  0  0  0  0
    7.2665   13.4329   25.9481 C   0  0  0  0  0  0  0  0  0  0  0  0
    8.0785   12.8015   25.0351 C   0  0  0  0  0  0  0  0  0  0  0  0
    8.8319   13.6351   24.2181 N   0  0  0  0  0  0  0  0  0  0  0  0
   10.1778   13.8578   24.5214 N   0  0  0  0  0  0  0  0  0  0  0  0
   10.6969   14.2779   23.4022 C   0  0  0  0  0  0  0  0  0  0  0  0
    9.7115   14.3797   22.3319 C   0  0  0  0  0  0  0  0  0  0  0  0
    9.7796   14.8776   21.1042 C   0  0  0  0  0  0  0  0  0  0  0  0
   10.8570   15.2987   20.3553 N   0  0  0  0  0  0  0  0  0  0  0  0
   10.6407   15.8921   19.0254 C   0  0  0  0  0  0  0  0  0  0  0  0
   12.2228   14.8817   20.6519 C   0  0  0  0  0  0  0  0  0  0  0  0
    8.4876   13.8057   22.8767 C   0  0  0  0  0  0  0  0  0  0  0  0
    7.4766   13.4792   22.2802 O   0  0  0  0  0  0  0  0  0  0  0  0
  1  2  1  0
  2  3  1  0
  3  4  2  0
  3  5  1  0
  5  6  2  0
  6  7  1  0
  7  8  1  0
  8  9  1  0
  9 10  1  0
  7 11  2  0
 11 12  1  0
 12 13  2  0
 13 14  1  0
 14 15  1  0
 15 16  2  0
 16 17  1  0
 17 18  2  0
 18 19  1  0
 19 20  1  0
 19 21  1  0
 17 22  1  0
 22 23  2  0
 13  5  1  0
 22 14  1  0
 10  8  1  0
M  END
>  <energy_score>  (383) 
-40.603354

>  <inchikey>  (383) 
None

>  <smiles>  (383) 
None

>  <ref_pdb>  (383) 
A0514a

>  <alias>  (383) 
None

>  <HIPPO Pose ID>  (383) 
498445

>  <name>  (383) 
P498445

>  <HIPPO Compound ID>  (383) 
292947

>  <ref_mols>  (383) 
A4331a,A0514a

>  <distance_score>  (383) 
1.406628

>  <inspiration_score>  (383) 
None

$$$$
P498446
     RDKit          3D

 23 25  0  0  0  0  0  0  0  0999 V2000
    9.1895    8.7459   23.1317 C   0  0  0  0  0  0  0  0  0  0  0  0
    8.3718    9.6172   23.9241 O   0  0  0  0  0  0  0  0  0  0  0  0
    8.9161   10.8460   24.0957 C   0  0  0  0  0  0  0  0  0  0  0  0
   10.0233   11.1690   23.7010 O   0  0  0  0  0  0  0  0  0  0  0  0
    8.0046   11.7512   24.8507 C   0  0  0  0  0  0  0  0  0  0  0  0
    6.8499   11.2518   25.4711 C   0  0  0  0  0  0  0  0  0  0  0  0
    6.0553   12.1277   26.2051 C   0  0  0  0  0  0  0  0  0  0  0  0
    4.8734   11.7343   27.0228 C   0  0  0  0  0  0  0  0  0  0  0  0
    4.9098   10.6573   28.0642 C   0  0  0  0  0  0  0  0  0  0  0  0
    4.9268   12.0913   28.4962 C   0  0  0  0  0  0  0  0  0  0  0  0
    6.3243   13.4469   26.2643 N   0  0  0  0  0  0  0  0  0  0  0  0
    7.4148   13.9101   25.6515 C   0  0  0  0  0  0  0  0  0  0  0  0
    8.3417   13.1069   25.0150 C   0  0  0  0  0  0  0  0  0  0  0  0
    9.6056   13.6410   24.6852 N   0  0  0  0  0  0  0  0  0  0  0  0
   10.3169   14.3424   25.7168 N   0  0  0  0  0  0  0  0  0  0  0  0
    9.9607   14.0125   23.3569 C   0  0  0  0  0  0  0  0  0  0  0  0
   11.3191   14.0811   23.0398 C   0  0  0  0  0  0  0  0  0  0  0  0
   11.8184   14.4910   21.8599 N   0  0  0  0  0  0  0  0  0  0  0  0
   10.8818   14.8073   20.9435 C   0  0  0  0  0  0  0  0  0  0  0  0
   11.3569   14.9394   19.6068 C   0  0  0  0  0  0  0  0  0  0  0  0
   11.7691   14.9028   18.5248 N   0  0  0  0  0  0  0  0  0  0  0  0
    9.5255   14.7748   21.2401 C   0  0  0  0  0  0  0  0  0  0  0  0
    9.0300   14.3480   22.4365 N   0  0  0  0  0  0  0  0  0  0  0  0
  1  2  1  0
  2  3  1  0
  3  4  2  0
  3  5  1  0
  5  6  2  0
  6  7  1  0
  7  8  1  0
  8  9  1  0
  9 10  1  0
  7 11  2  0
 11 12  1  0
 12 13  2  0
 13 14  1  0
 14 15  1  0
 14 16  1  0
 16 17  2  0
 17 18  1  0
 18 19  2  0
 19 20  1  0
 20 21  3  0
 19 22  1  0
 22 23  2  0
 13  5  1  0
 23 16  1  0
 10  8  1  0
M  END
>  <energy_score>  (384) 
-34.863319

>  <inchikey>  (384) 
None

>  <smiles>  (384) 
None

>  <ref_pdb>  (384) 
A0514a

>  <alias>  (384) 
None

>  <HIPPO Pose ID>  (384) 
498446

>  <name>  (384) 
P498446

>  <HIPPO Compound ID>  (384) 
292951

>  <ref_mols>  (384) 
A4331a,A0514a

>  <distance_score>  (384) 
1.630463

>  <inspiration_score>  (384) 
None

$$$$
P498448
     RDKit          3D

 23 25  0  0  0  0  0  0  0  0999 V2000
    9.2120    8.3301   22.8523 C   0  0  0  0  0  0  0  0  0  0  0  0
    8.4100    9.1603   23.6853 O   0  0  0  0  0  0  0  0  0  0  0  0
    8.9967   10.3534   23.8893 C   0  0  0  0  0  0  0  0  0  0  0  0
   10.0921   10.6937   23.4782 O   0  0  0  0  0  0  0  0  0  0  0  0
    8.1477   11.2325   24.7091 C   0  0  0  0  0  0  0  0  0  0  0  0
    7.1197   10.7360   25.5141 C   0  0  0  0  0  0  0  0  0  0  0  0
    6.4432   11.6187   26.3492 C   0  0  0  0  0  0  0  0  0  0  0  0
    5.3621   11.1699   27.2956 C   0  0  0  0  0  0  0  0  0  0  0  0
    4.1555   12.0557   27.5230 C   0  0  0  0  0  0  0  0  0  0  0  0
    5.1896   11.9299   28.5973 C   0  0  0  0  0  0  0  0  0  0  0  0
    6.7780   12.9345   26.3949 N   0  0  0  0  0  0  0  0  0  0  0  0
    7.7285   13.3997   25.5692 C   0  0  0  0  0  0  0  0  0  0  0  0
    8.4501   12.5912   24.7215 C   0  0  0  0  0  0  0  0  0  0  0  0
    9.2363   13.1728   23.7249 N   0  0  0  0  0  0  0  0  0  0  0  0
   10.4036   13.8467   24.0430 N   0  0  0  0  0  0  0  0  0  0  0  0
   10.6321   14.6114   23.0205 C   0  0  0  0  0  0  0  0  0  0  0  0
    9.4299   14.7706   22.1449 C   0  0  1  0  0  0  0  0  0  0  0  0
    9.4932   15.3034   20.7546 C   0  0  0  0  0  0  0  0  0  0  0  0
   10.7858   15.2039   20.0051 C   0  0  0  0  0  0  0  0  0  0  0  0
   11.8450   14.7674   20.4113 O   0  0  0  0  0  0  0  0  0  0  0  0
   10.6121   15.7281   18.7776 O   0  0  0  0  0  0  0  0  0  0  0  0
    8.6146   13.6029   22.5434 C   0  0  0  0  0  0  0  0  0  0  0  0
    7.5466   13.2456   22.0748 O   0  0  0  0  0  0  0  0  0  0  0  0
  1  2  1  0
  2  3  1  0
  3  4  2  0
  3  5  1  0
  5  6  2  0
  6  7  1  0
  7  8  1  0
  8  9  1  0
  9 10  1  0
  7 11  2  0
 11 12  1  0
 12 13  2  0
 13 14  1  0
 14 15  1  0
 15 16  2  0
 16 17  1  0
 17 18  1  6
 18 19  1  0
 19 20  2  0
 19 21  1  0
 17 22  1  0
 22 23  2  0
 13  5  1  0
 22 14  1  0
 10  8  1  0
M  END
>  <energy_score>  (385) 
-11.878038

>  <inchikey>  (385) 
None

>  <smiles>  (385) 
None

>  <ref_pdb>  (385) 
A0514a

>  <alias>  (385) 
None

>  <HIPPO Pose ID>  (385) 
498448

>  <name>  (385) 
P498448

>  <HIPPO Compound ID>  (385) 
292953

>  <ref_mols>  (385) 
A4331a,A0514a

>  <distance_score>  (385) 
1.286305

>  <inspiration_score>  (385) 
None

$$$$
P498449
     RDKit          3D

 23 24  0  0  0  0  0  0  0  0999 V2000
    9.2521    8.6608   23.5513 C   0  0  0  0  0  0  0  0  0  0  0  0
    8.5263    9.4596   24.4955 O   0  0  0  0  0  0  0  0  0  0  0  0
    8.4998   10.7546   24.1176 C   0  0  0  0  0  0  0  0  0  0  0  0
    8.9623   11.1828   23.0792 O   0  0  0  0  0  0  0  0  0  0  0  0
    7.8207   11.6330   25.0756 C   0  0  0  0  0  0  0  0  0  0  0  0
    6.6671   11.1685   25.7111 C   0  0  0  0  0  0  0  0  0  0  0  0
    5.9556   12.0577   26.5028 C   0  0  0  0  0  0  0  0  0  0  0  0
    4.7361   11.6975   27.2761 C   0  0  0  0  0  0  0  0  0  0  0  0
    4.7375   10.6175   28.3157 C   0  0  0  0  0  0  0  0  0  0  0  0
    4.7300   12.0529   28.7480 C   0  0  0  0  0  0  0  0  0  0  0  0
    6.3281   13.3484   26.6364 N   0  0  0  0  0  0  0  0  0  0  0  0
    7.4254   13.7718   26.0026 C   0  0  0  0  0  0  0  0  0  0  0  0
    8.2649   12.9552   25.2631 C   0  0  0  0  0  0  0  0  0  0  0  0
    9.5153   13.4547   24.7791 N   0  0  0  0  0  0  0  0  0  0  0  0
   10.2731   14.2421   25.7018 N   0  0  0  0  0  0  0  0  0  0  0  0
    9.2640   14.1149   23.4677 C   0  0  0  0  0  0  0  0  0  0  0  0
   10.5245   14.2801   22.5794 C   0  0  0  0  0  0  0  0  0  0  0  0
   11.7475   15.0318   23.0881 C   0  0  0  0  0  0  0  0  0  0  0  0
   11.1155   12.9085   22.3181 C   0  0  0  0  0  0  0  0  0  0  0  0
    9.8706   15.0803   21.0695 S   0  0  0  0  0  0  0  0  0  0  0  0
   11.1470   14.9597   19.8447 C   0  0  0  0  0  0  0  0  0  0  0  0
    9.7160   16.5024   21.2642 O   0  0  0  0  0  0  0  0  0  0  0  0
    8.6826   14.3373   20.7063 O   0  0  0  0  0  0  0  0  0  0  0  0
  1  2  1  0
  2  3  1  0
  3  4  2  0
  3  5  1  0
  5  6  2  0
  6  7  1  0
  7  8  1  0
  8  9  1  0
  9 10  1  0
  7 11  2  0
 11 12  1  0
 12 13  2  0
 13 14  1  0
 14 15  1  0
 14 16  1  0
 16 17  1  0
 17 18  1  0
 17 19  1  0
 17 20  1  0
 20 21  1  0
 20 22  2  0
 20 23  2  0
 13  5  1  0
 10  8  1  0
M  END
>  <energy_score>  (386) 
-36.807619

>  <inchikey>  (386) 
None

>  <smiles>  (386) 
None

>  <ref_pdb>  (386) 
A0514a

>  <alias>  (386) 
None

>  <HIPPO Pose ID>  (386) 
498449

>  <name>  (386) 
P498449

>  <HIPPO Compound ID>  (386) 
292955

>  <ref_mols>  (386) 
A4331a,A0514a

>  <distance_score>  (386) 
1.627911

>  <inspiration_score>  (386) 
None

$$$$
P498451
     RDKit          3D

 23 25  0  0  0  0  0  0  0  0999 V2000
    9.4743    8.4582   23.0766 C   0  0  0  0  0  0  0  0  0  0  0  0
    8.8099    9.3294   23.9899 O   0  0  0  0  0  0  0  0  0  0  0  0
    8.9401   10.6399   23.7081 C   0  0  0  0  0  0  0  0  0  0  0  0
    9.5756   11.1170   22.7901 O   0  0  0  0  0  0  0  0  0  0  0  0
    8.2107   11.4651   24.6903 C   0  0  0  0  0  0  0  0  0  0  0  0
    7.1736   10.8549   25.4129 C   0  0  0  0  0  0  0  0  0  0  0  0
    6.4463   11.6140   26.3154 C   0  0  0  0  0  0  0  0  0  0  0  0
    5.3911   10.9764   27.1800 C   0  0  0  0  0  0  0  0  0  0  0  0
    4.2985   11.7680   27.3613 F   0  0  0  0  0  0  0  0  0  0  0  0
    5.8575   10.6885   28.4315 F   0  0  0  0  0  0  0  0  0  0  0  0
    4.9273    9.7971   26.6880 F   0  0  0  0  0  0  0  0  0  0  0  0
    6.7086   12.9286   26.5156 N   0  0  0  0  0  0  0  0  0  0  0  0
    7.6718   13.5011   25.7722 C   0  0  0  0  0  0  0  0  0  0  0  0
    8.4928   12.8324   24.8656 C   0  0  0  0  0  0  0  0  0  0  0  0
    9.4517   13.6208   24.1934 N   0  0  0  0  0  0  0  0  0  0  0  0
   10.8650   13.2142   24.3242 C   0  0  0  0  0  0  0  0  0  0  0  0
   11.8234   14.1824   23.6523 C   0  0  0  0  0  0  0  0  0  0  0  0
   11.5174   14.3571   22.1791 C   0  0  0  0  0  0  0  0  0  0  0  0
   10.0678   14.4855   21.9617 C   0  0  0  0  0  0  0  0  0  0  0  0
    9.4458   14.9816   20.9213 N   0  0  0  0  0  0  0  0  0  0  0  0
    8.1044   14.8553   21.1481 N   0  0  0  0  0  0  0  0  0  0  0  0
    7.9356   14.3375   22.3406 C   0  0  0  0  0  0  0  0  0  0  0  0
    9.1536   14.0646   22.8918 N   0  0  0  0  0  0  0  0  0  0  0  0
  1  2  1  0
  2  3  1  0
  3  4  2  0
  3  5  1  0
  5  6  2  0
  6  7  1  0
  7  8  1  0
  8  9  1  0
  8 10  1  0
  8 11  1  0
  7 12  2  0
 12 13  1  0
 13 14  2  0
 14 15  1  0
 15 16  1  0
 16 17  1  0
 17 18  1  0
 18 19  1  0
 19 20  2  0
 20 21  1  0
 21 22  2  0
 22 23  1  0
 14  5  1  0
 23 15  1  0
 23 19  1  0
M  END
>  <energy_score>  (387) 
-29.449307

>  <inchikey>  (387) 
None

>  <smiles>  (387) 
None

>  <ref_pdb>  (387) 
A0514a

>  <alias>  (387) 
None

>  <HIPPO Pose ID>  (387) 
498451

>  <name>  (387) 
P498451

>  <HIPPO Compound ID>  (387) 
292963

>  <ref_mols>  (387) 
A4331a,A0514a

>  <distance_score>  (387) 
1.456565

>  <inspiration_score>  (387) 
None

$$$$
P498452
     RDKit          3D

 23 24  0  0  0  0  0  0  0  0999 V2000
    9.4060    8.6934   22.9803 C   0  0  0  0  0  0  0  0  0  0  0  0
    8.5361    9.5496   23.7212 O   0  0  0  0  0  0  0  0  0  0  0  0
    9.0199   10.8022   23.8695 C   0  0  0  0  0  0  0  0  0  0  0  0
   10.1055   11.2080   23.4985 O   0  0  0  0  0  0  0  0  0  0  0  0
    8.0926   11.6332   24.6539 C   0  0  0  0  0  0  0  0  0  0  0  0
    7.2657   11.0362   25.6006 C   0  0  0  0  0  0  0  0  0  0  0  0
    6.4714   11.8425   26.4077 C   0  0  0  0  0  0  0  0  0  0  0  0
    5.4830   11.2055   27.3536 C   0  0  0  0  0  0  0  0  0  0  0  0
    4.3673   11.9562   27.5571 F   0  0  0  0  0  0  0  0  0  0  0  0
    6.0134   10.9669   28.5878 F   0  0  0  0  0  0  0  0  0  0  0  0
    5.0348    9.9942   26.9142 F   0  0  0  0  0  0  0  0  0  0  0  0
    6.5550   13.1912   26.3835 N   0  0  0  0  0  0  0  0  0  0  0  0
    7.2780   13.7293   25.3891 C   0  0  0  0  0  0  0  0  0  0  0  0
    8.0407   13.0141   24.4703 C   0  0  0  0  0  0  0  0  0  0  0  0
    8.3935   13.6430   23.2651 N   0  0  0  0  0  0  0  0  0  0  0  0
    7.2987   13.7663   22.3797 N   0  0  0  0  0  0  0  0  0  0  0  0
    9.6279   14.0995   22.7569 C   0  0  0  0  0  0  0  0  0  0  0  0
   10.8270   14.0553   23.4571 C   0  0  0  0  0  0  0  0  0  0  0  0
   11.9967   14.5407   22.9724 N   0  0  0  0  0  0  0  0  0  0  0  0
   11.9266   15.0444   21.7100 C   0  0  0  0  0  0  0  0  0  0  0  0
   10.7429   15.0986   20.9841 C   0  0  0  0  0  0  0  0  0  0  0  0
   10.6501   15.7201   19.6301 C   0  0  0  0  0  0  0  0  0  0  0  0
    9.5846   14.6503   21.5146 N   0  0  0  0  0  0  0  0  0  0  0  0
  1  2  1  0
  2  3  1  0
  3  4  2  0
  3  5  1  0
  5  6  2  0
  6  7  1  0
  7  8  1  0
  8  9  1  0
  8 10  1  0
  8 11  1  0
  7 12  2  0
 12 13  1  0
 13 14  2  0
 14 15  1  0
 15 16  1  0
 15 17  1  0
 17 18  2  0
 18 19  1  0
 19 20  2  0
 20 21  1  0
 21 22  1  0
 21 23  2  0
 14  5  1  0
 23 17  1  0
M  END
>  <energy_score>  (388) 
-42.958966

>  <inchikey>  (388) 
None

>  <smiles>  (388) 
None

>  <ref_pdb>  (388) 
A0514a

>  <alias>  (388) 
None

>  <HIPPO Pose ID>  (388) 
498452

>  <name>  (388) 
P498452

>  <HIPPO Compound ID>  (388) 
292964

>  <ref_mols>  (388) 
A4331a,A0514a

>  <distance_score>  (388) 
1.539881

>  <inspiration_score>  (388) 
None

$$$$
P498454
     RDKit          3D

 23 24  0  0  0  0  0  0  0  0999 V2000
   12.2443   14.7669   20.6313 C   0  0  0  0  0  0  0  0  0  0  0  0
   10.8193   15.2659   20.5230 C   0  0  0  0  0  0  0  0  0  0  0  0
    9.8695   14.4126   21.1743 O   0  0  0  0  0  0  0  0  0  0  0  0
   10.0800   14.2033   22.5015 C   0  0  0  0  0  0  0  0  0  0  0  0
   11.1059   14.4988   23.1116 O   0  0  0  0  0  0  0  0  0  0  0  0
    8.8012   13.6407   23.1492 C   0  0  2  0  0  0  0  0  0  0  0  0
    7.7775   14.7928   23.1439 C   0  0  0  0  0  0  0  0  0  0  0  0
    6.3327   14.4182   22.8941 C   0  0  0  0  0  0  0  0  0  0  0  0
    9.1097   13.0711   24.5124 N   0  0  0  0  0  0  0  0  0  0  0  0
   10.0566   13.7436   25.3512 N   0  0  0  0  0  0  0  0  0  0  0  0
    7.9888   12.5686   25.1970 C   0  0  0  0  0  0  0  0  0  0  0  0
    7.3051   13.4061   26.0755 C   0  0  0  0  0  0  0  0  0  0  0  0
    6.2642   13.0584   26.8413 N   0  0  0  0  0  0  0  0  0  0  0  0
    5.8047   11.7973   26.7646 C   0  0  0  0  0  0  0  0  0  0  0  0
    4.6606   11.4363   27.6603 C   0  0  0  0  0  0  0  0  0  0  0  0
    3.4158   12.2917   27.6333 C   0  0  0  0  0  0  0  0  0  0  0  0
    4.3259   12.3510   28.8210 C   0  0  0  0  0  0  0  0  0  0  0  0
    6.4017   10.8823   25.9203 C   0  0  0  0  0  0  0  0  0  0  0  0
    7.5142   11.2553   25.1435 C   0  0  0  0  0  0  0  0  0  0  0  0
    8.1388   10.1126   24.4494 C   0  0  0  0  0  0  0  0  0  0  0  0
    7.8050    8.9737   24.7470 O   0  0  0  0  0  0  0  0  0  0  0  0
    9.0575   10.4334   23.5187 O   0  0  0  0  0  0  0  0  0  0  0  0
    9.6589    9.2685   22.9447 C   0  0  0  0  0  0  0  0  0  0  0  0
  1  2  1  0
  2  3  1  0
  3  4  1  0
  4  5  2  0
  4  6  1  0
  6  7  1  1
  7  8  1  0
  6  9  1  0
  9 10  1  0
  9 11  1  0
 11 12  2  0
 12 13  1  0
 13 14  2  0
 14 15  1  0
 15 16  1  0
 16 17  1  0
 14 18  1  0
 18 19  2  0
 19 20  1  0
 20 21  2  0
 20 22  1  0
 22 23  1  0
 19 11  1  0
 17 15  1  0
M  END
>  <energy_score>  (389) 
-30.736713

>  <inchikey>  (389) 
None

>  <smiles>  (389) 
None

>  <ref_pdb>  (389) 
A0514a

>  <alias>  (389) 
None

>  <HIPPO Pose ID>  (389) 
498454

>  <name>  (389) 
P498454

>  <HIPPO Compound ID>  (389) 
292966

>  <ref_mols>  (389) 
A4331a,A0514a

>  <distance_score>  (389) 
1.555378

>  <inspiration_score>  (389) 
None

$$$$
P498455
     RDKit          3D

 24 24  0  0  0  0  0  0  0  0999 V2000
   11.1741   15.1397   19.0220 C   0  0  0  0  0  0  0  0  0  0  0  0
   11.3411   14.9654   20.5137 C   0  0  0  0  0  0  0  0  0  0  0  0
   10.1229   14.4506   21.0685 O   0  0  0  0  0  0  0  0  0  0  0  0
   10.1876   14.2909   22.4168 C   0  0  0  0  0  0  0  0  0  0  0  0
   11.1885   14.5214   23.0957 O   0  0  0  0  0  0  0  0  0  0  0  0
    8.8408   13.7583   22.9775 C   0  0  2  0  0  0  0  0  0  0  0  0
    7.8032   14.8817   22.8661 C   0  0  0  0  0  0  0  0  0  0  0  0
    6.3867   14.4615   22.5353 C   0  0  0  0  0  0  0  0  0  0  0  0
    9.0404   13.2521   24.3848 N   0  0  0  0  0  0  0  0  0  0  0  0
   10.2800   12.6440   24.6972 N   0  0  0  0  0  0  0  0  0  0  0  0
    7.9376   12.6469   25.0124 C   0  0  0  0  0  0  0  0  0  0  0  0
    7.1760   13.4785   25.8394 C   0  0  0  0  0  0  0  0  0  0  0  0
    6.1841   13.0851   26.6600 N   0  0  0  0  0  0  0  0  0  0  0  0
    5.8715   11.7726   26.6749 C   0  0  0  0  0  0  0  0  0  0  0  0
    4.8536   11.3051   27.6775 C   0  0  0  0  0  0  0  0  0  0  0  0
    3.7668   12.1197   27.7272 F   0  0  0  0  0  0  0  0  0  0  0  0
    5.3526   11.2521   28.9462 F   0  0  0  0  0  0  0  0  0  0  0  0
    4.3626   10.0574   27.4314 F   0  0  0  0  0  0  0  0  0  0  0  0
    6.5270   10.8639   25.8712 C   0  0  0  0  0  0  0  0  0  0  0  0
    7.5863   11.2882   25.0459 C   0  0  0  0  0  0  0  0  0  0  0  0
    8.2421   10.1427   24.3760 C   0  0  0  0  0  0  0  0  0  0  0  0
    7.9574    9.0035   24.7253 O   0  0  0  0  0  0  0  0  0  0  0  0
    9.1146   10.4409   23.3930 O   0  0  0  0  0  0  0  0  0  0  0  0
    9.6866    9.2498   22.8373 C   0  0  0  0  0  0  0  0  0  0  0  0
  1  2  1  0
  2  3  1  0
  3  4  1  0
  4  5  2  0
  4  6  1  0
  6  7  1  1
  7  8  1  0
  6  9  1  0
  9 10  1  0
  9 11  1  0
 11 12  2  0
 12 13  1  0
 13 14  2  0
 14 15  1  0
 15 16  1  0
 15 17  1  0
 15 18  1  0
 14 19  1  0
 19 20  2  0
 20 21  1  0
 21 22  2  0
 21 23  1  0
 23 24  1  0
 20 11  1  0
M  END
>  <energy_score>  (390) 
-29.565061

>  <inchikey>  (390) 
None

>  <smiles>  (390) 
None

>  <ref_pdb>  (390) 
A0514a

>  <alias>  (390) 
None

>  <HIPPO Pose ID>  (390) 
498455

>  <name>  (390) 
P498455

>  <HIPPO Compound ID>  (390) 
292967

>  <ref_mols>  (390) 
A4331a,A0514a

>  <distance_score>  (390) 
1.248518

>  <inspiration_score>  (390) 
None

$$$$
P498460
     RDKit          3D

 24 25  0  0  0  0  0  0  0  0999 V2000
    9.2923    8.6676   23.0564 C   0  0  0  0  0  0  0  0  0  0  0  0
    8.4565    9.5047   23.8623 O   0  0  0  0  0  0  0  0  0  0  0  0
    8.9523   10.7543   24.0315 C   0  0  0  0  0  0  0  0  0  0  0  0
   10.0255   11.1338   23.5989 O   0  0  0  0  0  0  0  0  0  0  0  0
    8.0177   11.5948   24.8331 C   0  0  0  0  0  0  0  0  0  0  0  0
    6.9327   11.0027   25.4929 C   0  0  0  0  0  0  0  0  0  0  0  0
    6.1318   11.7980   26.3120 C   0  0  0  0  0  0  0  0  0  0  0  0
    5.1440   11.1876   27.2638 C   0  0  0  0  0  0  0  0  0  0  0  0
    4.7920    9.9318   26.9074 F   0  0  0  0  0  0  0  0  0  0  0  0
    3.9707   11.8705   27.3809 F   0  0  0  0  0  0  0  0  0  0  0  0
    5.6463   11.0716   28.5282 F   0  0  0  0  0  0  0  0  0  0  0  0
    6.2983   13.1346   26.4115 N   0  0  0  0  0  0  0  0  0  0  0  0
    7.3370   13.6796   25.7646 C   0  0  0  0  0  0  0  0  0  0  0  0
    8.2812   12.9601   25.0417 C   0  0  0  0  0  0  0  0  0  0  0  0
    9.5244   13.5575   24.7265 N   0  0  0  0  0  0  0  0  0  0  0  0
   10.1211   14.3053   25.7944 N   0  0  0  0  0  0  0  0  0  0  0  0
    9.8838   13.9523   23.4045 C   0  0  0  0  0  0  0  0  0  0  0  0
   11.2415   13.9519   23.0745 C   0  0  0  0  0  0  0  0  0  0  0  0
   11.7535   14.3886   21.9092 N   0  0  0  0  0  0  0  0  0  0  0  0
   10.8296   14.7802   21.0083 C   0  0  0  0  0  0  0  0  0  0  0  0
   11.3076   14.9527   19.6766 C   0  0  0  0  0  0  0  0  0  0  0  0
   11.7111   14.9576   18.5907 N   0  0  0  0  0  0  0  0  0  0  0  0
    9.4741   14.7952   21.3109 C   0  0  0  0  0  0  0  0  0  0  0  0
    8.9664   14.3647   22.5030 N   0  0  0  0  0  0  0  0  0  0  0  0
  1  2  1  0
  2  3  1  0
  3  4  2  0
  3  5  1  0
  5  6  2  0
  6  7  1  0
  7  8  1  0
  8  9  1  0
  8 10  1  0
  8 11  1  0
  7 12  2  0
 12 13  1  0
 13 14  2  0
 14 15  1  0
 15 16  1  0
 15 17  1  0
 17 18  2  0
 18 19  1  0
 19 20  2  0
 20 21  1  0
 21 22  3  0
 20 23  1  0
 23 24  2  0
 14  5  1  0
 24 17  1  0
M  END
>  <energy_score>  (391) 
-38.443816

>  <inchikey>  (391) 
None

>  <smiles>  (391) 
None

>  <ref_pdb>  (391) 
A0514a

>  <alias>  (391) 
None

>  <HIPPO Pose ID>  (391) 
498460

>  <name>  (391) 
P498460

>  <HIPPO Compound ID>  (391) 
292980

>  <ref_mols>  (391) 
A4331a,A0514a

>  <distance_score>  (391) 
1.357732

>  <inspiration_score>  (391) 
None

$$$$
P498461
     RDKit          3D

 24 25  0  0  0  0  0  0  0  0999 V2000
    9.4453    8.6152   23.0186 C   0  0  0  0  0  0  0  0  0  0  0  0
    8.6013    9.3891   23.8725 O   0  0  0  0  0  0  0  0  0  0  0  0
    8.8879   10.7109   23.8881 C   0  0  0  0  0  0  0  0  0  0  0  0
    9.7758   11.2472   23.2515 O   0  0  0  0  0  0  0  0  0  0  0  0
    7.9888   11.4192   24.8374 C   0  0  0  0  0  0  0  0  0  0  0  0
    7.0310   10.7109   25.5669 C   0  0  0  0  0  0  0  0  0  0  0  0
    6.2672   11.3984   26.5038 C   0  0  0  0  0  0  0  0  0  0  0  0
    5.2565   10.6788   27.3489 C   0  0  0  0  0  0  0  0  0  0  0  0
    4.1756   11.4526   27.6452 F   0  0  0  0  0  0  0  0  0  0  0  0
    4.7599    9.5578   26.7588 F   0  0  0  0  0  0  0  0  0  0  0  0
    5.7714   10.2687   28.5440 F   0  0  0  0  0  0  0  0  0  0  0  0
    6.4378   12.7213   26.7597 N   0  0  0  0  0  0  0  0  0  0  0  0
    7.3158   13.3960   26.0060 C   0  0  0  0  0  0  0  0  0  0  0  0
    8.1134   12.7973   25.0515 C   0  0  0  0  0  0  0  0  0  0  0  0
    8.8454   13.6582   24.2416 N   0  0  0  0  0  0  0  0  0  0  0  0
   10.1969   13.8691   24.5301 N   0  0  0  0  0  0  0  0  0  0  0  0
   10.7097   14.2863   23.4065 C   0  0  0  0  0  0  0  0  0  0  0  0
    9.7176   14.3886   22.3424 C   0  0  0  0  0  0  0  0  0  0  0  0
    9.7802   14.8774   21.1107 C   0  0  0  0  0  0  0  0  0  0  0  0
   10.8551   15.2886   20.3533 N   0  0  0  0  0  0  0  0  0  0  0  0
   12.2238   14.8828   20.6507 C   0  0  0  0  0  0  0  0  0  0  0  0
   10.6368   15.8919   19.0282 C   0  0  0  0  0  0  0  0  0  0  0  0
    8.4962   13.8198   22.8980 C   0  0  0  0  0  0  0  0  0  0  0  0
    7.4860   13.4778   22.3082 O   0  0  0  0  0  0  0  0  0  0  0  0
  1  2  1  0
  2  3  1  0
  3  4  2  0
  3  5  1  0
  5  6  2  0
  6  7  1  0
  7  8  1  0
  8  9  1  0
  8 10  1  0
  8 11  1  0
  7 12  2  0
 12 13  1  0
 13 14  2  0
 14 15  1  0
 15 16  1  0
 16 17  2  0
 17 18  1  0
 18 19  2  0
 19 20  1  0
 20 21  1  0
 20 22  1  0
 18 23  1  0
 23 24  2  0
 14  5  1  0
 23 15  1  0
M  END
>  <energy_score>  (392) 
-25.538803

>  <inchikey>  (392) 
None

>  <smiles>  (392) 
None

>  <ref_pdb>  (392) 
A0514a

>  <alias>  (392) 
None

>  <HIPPO Pose ID>  (392) 
498461

>  <name>  (392) 
P498461

>  <HIPPO Compound ID>  (392) 
292984

>  <ref_mols>  (392) 
A4331a,A0514a

>  <distance_score>  (392) 
1.044344

>  <inspiration_score>  (392) 
None

$$$$
P498463
     RDKit          3D

 24 25  0  0  0  0  0  0  0  0999 V2000
    9.5315    8.7941   23.0096 C   0  0  0  0  0  0  0  0  0  0  0  0
    8.6070    9.6130   23.7266 O   0  0  0  0  0  0  0  0  0  0  0  0
    8.9417   10.9207   23.7788 C   0  0  0  0  0  0  0  0  0  0  0  0
    9.9465   11.4314   23.3217 O   0  0  0  0  0  0  0  0  0  0  0  0
    7.9365   11.6736   24.5541 C   0  0  0  0  0  0  0  0  0  0  0  0
    7.2009   10.9770   25.5314 C   0  0  0  0  0  0  0  0  0  0  0  0
    6.3064   11.6729   26.3305 C   0  0  0  0  0  0  0  0  0  0  0  0
    5.4171   10.9523   27.3111 C   0  0  0  0  0  0  0  0  0  0  0  0
    4.3076   11.6659   27.6517 F   0  0  0  0  0  0  0  0  0  0  0  0
    4.9586    9.7607   26.8393 F   0  0  0  0  0  0  0  0  0  0  0  0
    6.0466   10.6606   28.4866 F   0  0  0  0  0  0  0  0  0  0  0  0
    6.2043   13.0186   26.2671 N   0  0  0  0  0  0  0  0  0  0  0  0
    6.8375   13.6418   25.2511 C   0  0  0  0  0  0  0  0  0  0  0  0
    7.6864   13.0353   24.3214 C   0  0  0  0  0  0  0  0  0  0  0  0
    7.9603   13.7108   23.1033 N   0  0  0  0  0  0  0  0  0  0  0  0
    6.8368   14.3539   22.4976 N   0  0  0  0  0  0  0  0  0  0  0  0
    9.1227   14.1153   22.5211 C   0  0  0  0  0  0  0  0  0  0  0  0
    9.0105   14.6134   21.2304 O   0  0  0  0  0  0  0  0  0  0  0  0
   10.2669   15.0445   20.8960 C   0  0  0  0  0  0  0  0  0  0  0  0
   10.4442   15.7224   19.5958 C   0  0  0  0  0  0  0  0  0  0  0  0
   11.1629   14.8518   21.8320 N   0  0  0  0  0  0  0  0  0  0  0  0
   10.4526   14.2563   22.8430 C   0  0  0  0  0  0  0  0  0  0  0  0
   11.0888   14.0711   24.0892 C   0  0  0  0  0  0  0  0  0  0  0  0
   11.6325   14.0372   25.1142 N   0  0  0  0  0  0  0  0  0  0  0  0
  1  2  1  0
  2  3  1  0
  3  4  2  0
  3  5  1  0
  5  6  2  0
  6  7  1  0
  7  8  1  0
  8  9  1  0
  8 10  1  0
  8 11  1  0
  7 12  2  0
 12 13  1  0
 13 14  2  0
 14 15  1  0
 15 16  1  0
 15 17  1  0
 17 18  1  0
 18 19  1  0
 19 20  1  0
 19 21  2  0
 21 22  1  0
 22 23  1  0
 23 24  3  0
 14  5  1  0
 22 17  2  0
M  END
>  <energy_score>  (393) 
-52.092607

>  <inchikey>  (393) 
None

>  <smiles>  (393) 
None

>  <ref_pdb>  (393) 
A0514a

>  <alias>  (393) 
None

>  <HIPPO Pose ID>  (393) 
498463

>  <name>  (393) 
P498463

>  <HIPPO Compound ID>  (393) 
292990

>  <ref_mols>  (393) 
A4331a,A0514a

>  <distance_score>  (393) 
1.354872

>  <inspiration_score>  (393) 
None

$$$$
P498467
     RDKit          3D

 24 25  0  0  0  0  0  0  0  0999 V2000
    9.5113    8.8946   23.0848 C   0  0  0  0  0  0  0  0  0  0  0  0
    8.5455    9.7664   23.6737 O   0  0  0  0  0  0  0  0  0  0  0  0
    9.0169   11.0104   23.9319 C   0  0  0  0  0  0  0  0  0  0  0  0
   10.1682   11.3734   23.7945 O   0  0  0  0  0  0  0  0  0  0  0  0
    7.9057   11.8526   24.4232 C   0  0  0  0  0  0  0  0  0  0  0  0
    7.0218   11.2477   25.3261 C   0  0  0  0  0  0  0  0  0  0  0  0
    6.0383   12.0138   25.9435 C   0  0  0  0  0  0  0  0  0  0  0  0
    5.2203   11.4357   27.0686 C   0  0  0  0  0  0  0  0  0  0  0  0
    5.7056   11.8138   28.2822 F   0  0  0  0  0  0  0  0  0  0  0  0
    5.2203   10.0720   27.0848 F   0  0  0  0  0  0  0  0  0  0  0  0
    3.9086   11.8041   27.0658 F   0  0  0  0  0  0  0  0  0  0  0  0
    5.8457   13.3117   25.6399 N   0  0  0  0  0  0  0  0  0  0  0  0
    6.6753   13.8547   24.7348 C   0  0  0  0  0  0  0  0  0  0  0  0
    7.7922   13.2266   24.1675 C   0  0  0  0  0  0  0  0  0  0  0  0
    8.8445   14.1025   23.8414 N   0  0  0  0  0  0  0  0  0  0  0  0
    9.5400   14.4122   25.0726 N   0  0  0  0  0  0  0  0  0  0  0  0
    9.6715   13.9691   22.5901 C   0  0  1  0  0  0  0  0  0  0  0  0
    9.1714   14.8796   21.4166 C   0  0  0  0  0  0  0  0  0  0  0  0
   10.2789   15.0462   20.3651 C   0  0  1  0  0  0  0  0  0  0  0  0
   10.1248   15.9666   19.1817 C   0  0  0  0  0  0  0  0  0  0  0  0
   11.3941   15.5583   21.0193 O   0  0  0  0  0  0  0  0  0  0  0  0
   12.0043   14.5340   21.7488 C   0  0  1  0  0  0  0  0  0  0  0  0
   13.2012   15.2489   22.2041 C   0  0  0  0  0  0  0  0  0  0  0  0
   11.1548   14.1693   22.9311 C   0  0  0  0  0  0  0  0  0  0  0  0
  1  2  1  0
  2  3  1  0
  3  4  2  0
  3  5  1  0
  5  6  2  0
  6  7  1  0
  7  8  1  0
  8  9  1  0
  8 10  1  0
  8 11  1  0
  7 12  2  0
 12 13  1  0
 13 14  2  0
 14 15  1  0
 15 16  1  0
 17 15  1  1
 17 18  1  0
 18 19  1  0
 19 20  1  6
 19 21  1  0
 21 22  1  0
 22 23  1  1
 22 24  1  0
 14  5  1  0
 24 17  1  0
M  END
>  <energy_score>  (394) 
-17.916835

>  <inchikey>  (394) 
None

>  <smiles>  (394) 
None

>  <ref_pdb>  (394) 
A0514a

>  <alias>  (394) 
None

>  <HIPPO Pose ID>  (394) 
498467

>  <name>  (394) 
P498467

>  <HIPPO Compound ID>  (394) 
293005

>  <ref_mols>  (394) 
A4331a,A0514a

>  <distance_score>  (394) 
1.770314

>  <inspiration_score>  (394) 
None

$$$$
P498474
     RDKit          3D

 24 25  0  0  0  0  0  0  0  0999 V2000
    5.9197   15.3734   23.6650 C   0  0  0  0  0  0  0  0  0  0  0  0
    7.3309   15.2968   23.4692 O   0  0  0  0  0  0  0  0  0  0  0  0
    7.7118   14.3359   22.6018 C   0  0  0  0  0  0  0  0  0  0  0  0
    7.0360   13.4627   22.0816 O   0  0  0  0  0  0  0  0  0  0  0  0
    9.1196   14.5360   22.2505 C   0  0  0  0  0  0  0  0  0  0  0  0
    9.2737   15.0642   20.9818 C   0  0  0  0  0  0  0  0  0  0  0  0
   10.5305   15.3115   20.4712 C   0  0  0  0  0  0  0  0  0  0  0  0
   10.6100   15.8134   19.0284 C   0  0  0  0  0  0  0  0  0  0  0  0
    9.5389   15.4282   18.2901 F   0  0  0  0  0  0  0  0  0  0  0  0
   11.7130   15.3638   18.3852 F   0  0  0  0  0  0  0  0  0  0  0  0
   10.5648   17.1680   18.9512 F   0  0  0  0  0  0  0  0  0  0  0  0
   11.6374   15.0920   21.2266 N   0  0  0  0  0  0  0  0  0  0  0  0
   11.4560   14.5780   22.4696 C   0  0  0  0  0  0  0  0  0  0  0  0
   10.2242   14.2674   23.0601 C   0  0  0  0  0  0  0  0  0  0  0  0
   10.0899   13.7577   24.3867 N   0  0  0  0  0  0  0  0  0  0  0  0
   11.2744   13.5733   25.1390 N   0  0  0  0  0  0  0  0  0  0  0  0
    9.0950   12.7758   24.6867 C   0  0  0  0  0  0  0  0  0  0  0  0
    8.0250   13.0925   25.5244 C   0  0  0  0  0  0  0  0  0  0  0  0
    7.0531   12.1439   25.8141 C   0  0  0  0  0  0  0  0  0  0  0  0
    5.8743   12.5550   26.6325 C   0  0  0  0  0  0  0  0  0  0  0  0
    7.1876   10.8547   25.2823 C   0  0  0  0  0  0  0  0  0  0  0  0
    8.2723   10.5247   24.4608 C   0  0  0  0  0  0  0  0  0  0  0  0
    8.5101    9.1543   23.9323 C   0  0  0  0  0  0  0  0  0  0  0  0
    9.1821   11.5072   24.1194 C   0  0  0  0  0  0  0  0  0  0  0  0
  1  2  1  0
  2  3  1  0
  3  4  2  0
  3  5  1  0
  5  6  2  0
  6  7  1  0
  7  8  1  0
  8  9  1  0
  8 10  1  0
  8 11  1  0
  7 12  2  0
 12 13  1  0
 13 14  2  0
 14 15  1  0
 15 16  1  0
 15 17  1  0
 17 18  2  0
 18 19  1  0
 19 20  1  0
 19 21  2  0
 21 22  1  0
 22 23  1  0
 22 24  2  0
 14  5  1  0
 24 17  1  0
M  END
>  <energy_score>  (395) 
-37.942413

>  <inchikey>  (395) 
None

>  <smiles>  (395) 
None

>  <ref_pdb>  (395) 
A0514a

>  <alias>  (395) 
None

>  <HIPPO Pose ID>  (395) 
498474

>  <name>  (395) 
P498474

>  <HIPPO Compound ID>  (395) 
293014

>  <ref_mols>  (395) 
A4331a,A0514a

>  <distance_score>  (395) 
1.814155

>  <inspiration_score>  (395) 
None

$$$$
P498478
     RDKit          3D

 24 25  0  0  0  0  0  0  0  0999 V2000
    9.7607    8.5426   23.3421 C   0  0  0  0  0  0  0  0  0  0  0  0
    8.7830    9.2337   24.1156 O   0  0  0  0  0  0  0  0  0  0  0  0
    8.8120   10.5644   23.8764 C   0  0  0  0  0  0  0  0  0  0  0  0
    9.4640   11.1111   23.0062 O   0  0  0  0  0  0  0  0  0  0  0  0
    7.9546   11.2747   24.8532 C   0  0  0  0  0  0  0  0  0  0  0  0
    6.9530   10.5953   25.5482 C   0  0  0  0  0  0  0  0  0  0  0  0
    6.2019   11.3043   26.4769 C   0  0  0  0  0  0  0  0  0  0  0  0
    5.1937   10.6145   27.3479 C   0  0  0  0  0  0  0  0  0  0  0  0
    4.1333   11.4191   27.6453 F   0  0  0  0  0  0  0  0  0  0  0  0
    4.6618    9.4973   26.7857 F   0  0  0  0  0  0  0  0  0  0  0  0
    5.7158   10.2203   28.5449 F   0  0  0  0  0  0  0  0  0  0  0  0
    6.3910   12.6267   26.7182 N   0  0  0  0  0  0  0  0  0  0  0  0
    7.3400   13.2580   26.0170 C   0  0  0  0  0  0  0  0  0  0  0  0
    8.1687   12.6395   25.0898 C   0  0  0  0  0  0  0  0  0  0  0  0
    9.1775   13.3618   24.4370 N   0  0  0  0  0  0  0  0  0  0  0  0
   10.2057   13.8216   25.3281 N   0  0  0  0  0  0  0  0  0  0  0  0
    8.6853   14.3238   23.3975 C   0  0  2  0  0  0  0  0  0  0  0  0
    7.3667   13.9579   22.7113 C   0  0  0  0  0  0  0  0  0  0  0  0
    9.6845   14.6505   22.3248 C   0  0  0  0  0  0  0  0  0  0  0  0
   11.0135   14.2081   22.1552 C   0  0  0  0  0  0  0  0  0  0  0  0
   11.6114   14.7636   21.0991 N   0  0  0  0  0  0  0  0  0  0  0  0
   10.5989   15.3839   20.4649 N   0  0  0  0  0  0  0  0  0  0  0  0
   10.7027   15.8152   19.0920 C   0  0  0  0  0  0  0  0  0  0  0  0
    9.4783   15.4668   21.2305 C   0  0  0  0  0  0  0  0  0  0  0  0
  1  2  1  0
  2  3  1  0
  3  4  2  0
  3  5  1  0
  5  6  2  0
  6  7  1  0
  7  8  1  0
  8  9  1  0
  8 10  1  0
  8 11  1  0
  7 12  2  0
 12 13  1  0
 13 14  2  0
 14 15  1  0
 15 16  1  0
 15 17  1  0
 17 18  1  6
 17 19  1  0
 19 20  1  0
 20 21  2  0
 21 22  1  0
 22 23  1  0
 22 24  1  0
 14  5  1  0
 24 19  2  0
M  END
>  <energy_score>  (396) 
-29.092571

>  <inchikey>  (396) 
None

>  <smiles>  (396) 
None

>  <ref_pdb>  (396) 
A0514a

>  <alias>  (396) 
None

>  <HIPPO Pose ID>  (396) 
498478

>  <name>  (396) 
P498478

>  <HIPPO Compound ID>  (396) 
293027

>  <ref_mols>  (396) 
A4331a,A0514a

>  <distance_score>  (396) 
1.035165

>  <inspiration_score>  (396) 
None

$$$$
P498481
     RDKit          3D

 24 24  0  0  0  0  0  0  0  0999 V2000
    9.4234    8.5231   23.0664 C   0  0  0  0  0  0  0  0  0  0  0  0
    8.6625    9.2637   24.0227 O   0  0  0  0  0  0  0  0  0  0  0  0
    8.7626   10.6066   23.9101 C   0  0  0  0  0  0  0  0  0  0  0  0
    9.4236   11.1995   23.0769 O   0  0  0  0  0  0  0  0  0  0  0  0
    7.9561   11.2686   24.9642 C   0  0  0  0  0  0  0  0  0  0  0  0
    6.9244   10.5654   25.5950 C   0  0  0  0  0  0  0  0  0  0  0  0
    6.1706   11.2175   26.5630 C   0  0  0  0  0  0  0  0  0  0  0  0
    5.1281   10.4964   27.3626 C   0  0  0  0  0  0  0  0  0  0  0  0
    4.0641   11.2978   27.6549 F   0  0  0  0  0  0  0  0  0  0  0  0
    5.6043   10.0468   28.5588 F   0  0  0  0  0  0  0  0  0  0  0  0
    4.6122    9.4098   26.7313 F   0  0  0  0  0  0  0  0  0  0  0  0
    6.3838   12.5095   26.9078 N   0  0  0  0  0  0  0  0  0  0  0  0
    7.3557   13.1660   26.2690 C   0  0  0  0  0  0  0  0  0  0  0  0
    8.1918   12.6073   25.3060 C   0  0  0  0  0  0  0  0  0  0  0  0
    9.1887   13.4292   24.7751 N   0  0  0  0  0  0  0  0  0  0  0  0
   10.5214   12.9769   24.8889 N   0  0  0  0  0  0  0  0  0  0  0  0
    8.7697   14.4627   23.7735 C   0  0  2  0  0  0  0  0  0  0  0  0
    7.3235   14.2907   23.2970 C   0  0  0  0  0  0  0  0  0  0  0  0
    9.8934   14.5957   22.6901 C   0  0  0  0  0  0  0  0  0  0  0  0
    9.7815   15.2557   21.2995 C   0  0  0  0  0  0  0  0  0  0  0  0
    8.4784   14.8211   20.7260 C   0  0  0  0  0  0  0  0  0  0  0  0
    9.8227   16.7469   20.9677 C   0  0  0  0  0  0  0  0  0  0  0  0
   10.8184   14.6856   20.4739 O   0  0  0  0  0  0  0  0  0  0  0  0
   12.1479   14.7912   20.9617 C   0  0  0  0  0  0  0  0  0  0  0  0
  1  2  1  0
  2  3  1  0
  3  4  2  0
  3  5  1  0
  5  6  2  0
  6  7  1  0
  7  8  1  0
  8  9  1  0
  8 10  1  0
  8 11  1  0
  7 12  2  0
 12 13  1  0
 13 14  2  0
 14 15  1  0
 15 16  1  0
 15 17  1  0
 17 18  1  6
 17 19  1  0
 19 20  1  0
 20 21  1  0
 20 22  1  0
 20 23  1  0
 23 24  1  0
 14  5  1  0
M  END
>  <energy_score>  (397) 
-19.256309

>  <inchikey>  (397) 
None

>  <smiles>  (397) 
None

>  <ref_pdb>  (397) 
A0514a

>  <alias>  (397) 
None

>  <HIPPO Pose ID>  (397) 
498481

>  <name>  (397) 
P498481

>  <HIPPO Compound ID>  (397) 
293034

>  <ref_mols>  (397) 
A4331a,A0514a

>  <distance_score>  (397) 
1.127418

>  <inspiration_score>  (397) 
None

$$$$
P498489
     RDKit          3D

 24 26  0  0  0  0  0  0  0  0999 V2000
    6.2877   15.2992   23.4561 C   0  0  0  0  0  0  0  0  0  0  0  0
    7.6958   15.1876   23.2459 O   0  0  0  0  0  0  0  0  0  0  0  0
    8.0636   14.1453   22.4695 C   0  0  0  0  0  0  0  0  0  0  0  0
    7.3621   13.2216   22.0971 O   0  0  0  0  0  0  0  0  0  0  0  0
    9.4520   14.3387   22.0356 C   0  0  0  0  0  0  0  0  0  0  0  0
    9.5222   15.0930   20.8706 C   0  0  0  0  0  0  0  0  0  0  0  0
   10.7368   15.4009   20.2965 C   0  0  0  0  0  0  0  0  0  0  0  0
   10.8541   16.1296   18.9805 C   0  0  0  0  0  0  0  0  0  0  0  0
    9.8293   16.4286   17.9497 C   0  0  0  0  0  0  0  0  0  0  0  0
   10.1113   17.4694   18.9472 C   0  0  0  0  0  0  0  0  0  0  0  0
   11.8690   15.1075   20.9663 N   0  0  0  0  0  0  0  0  0  0  0  0
   11.7772   14.3726   22.0991 C   0  0  0  0  0  0  0  0  0  0  0  0
   10.6055   13.8640   22.6574 C   0  0  0  0  0  0  0  0  0  0  0  0
   10.6563   12.9486   23.7234 N   0  0  0  0  0  0  0  0  0  0  0  0
   11.8214   12.9480   24.5282 N   0  0  0  0  0  0  0  0  0  0  0  0
    9.7640   11.7523   23.6681 C   0  0  0  0  0  0  0  0  0  0  0  0
    8.6320   11.8520   24.6677 C   0  0  0  0  0  0  0  0  0  0  0  0
    7.7207   10.8122   24.8871 C   0  0  0  0  0  0  0  0  0  0  0  0
    6.6348   11.0097   25.7466 C   0  0  0  0  0  0  0  0  0  0  0  0
    6.4420   12.2463   26.3691 C   0  0  0  0  0  0  0  0  0  0  0  0
    5.0558   12.5128   27.4295 S   0  0  0  0  0  0  0  0  0  0  0  0
    4.6691   14.2485   27.0827 C   0  0  0  0  0  0  0  0  0  0  0  0
    7.3665   13.2560   26.1801 C   0  0  0  0  0  0  0  0  0  0  0  0
    8.4412   13.0565   25.3444 C   0  0  0  0  0  0  0  0  0  0  0  0
  1  2  1  0
  2  3  1  0
  3  4  2  0
  3  5  1  0
  5  6  2  0
  6  7  1  0
  7  8  1  0
  8  9  1  0
  9 10  1  0
  7 11  2  0
 11 12  1  0
 12 13  2  0
 13 14  1  0
 14 15  1  0
 14 16  1  0
 16 17  1  0
 17 18  2  0
 18 19  1  0
 19 20  2  0
 20 21  1  0
 21 22  1  0
 20 23  1  0
 23 24  2  0
 13  5  1  0
 24 17  1  0
 10  8  1  0
M  END
>  <energy_score>  (398) 
-14.798132

>  <inchikey>  (398) 
None

>  <smiles>  (398) 
None

>  <ref_pdb>  (398) 
A0514a

>  <alias>  (398) 
None

>  <HIPPO Pose ID>  (398) 
498489

>  <name>  (398) 
P498489

>  <HIPPO Compound ID>  (398) 
293071

>  <ref_mols>  (398) 
A4331a,A0514a

>  <distance_score>  (398) 
1.803303

>  <inspiration_score>  (398) 
None

$$$$
P498490
     RDKit          3D

 24 26  0  0  0  0  0  0  0  0999 V2000
   12.0448   15.2799   21.3601 C   0  0  0  0  0  0  0  0  0  0  0  0
   11.6121   14.1550   22.2644 C   0  0  0  0  0  0  0  0  0  0  0  0
   10.4780   14.5069   23.0684 O   0  0  0  0  0  0  0  0  0  0  0  0
    9.2599   14.3861   22.4341 C   0  0  0  0  0  0  0  0  0  0  0  0
    9.1466   14.3454   21.2117 O   0  0  0  0  0  0  0  0  0  0  0  0
    8.0669   14.1962   23.4875 C   0  0  0  0  0  0  0  0  0  0  0  0
    8.1886   12.9058   24.1867 N   0  0  0  0  0  0  0  0  0  0  0  0
    9.4838   12.6168   24.7408 N   0  0  0  0  0  0  0  0  0  0  0  0
    7.1805   12.2243   24.9079 C   0  0  0  0  0  0  0  0  0  0  0  0
    6.1217   12.8890   25.5154 C   0  0  0  0  0  0  0  0  0  0  0  0
    5.3068   12.3910   26.4518 N   0  0  0  0  0  0  0  0  0  0  0  0
    5.4554   11.1127   26.7951 C   0  0  0  0  0  0  0  0  0  0  0  0
    4.7388   10.6541   28.0205 C   0  0  0  0  0  0  0  0  0  0  0  0
    3.5616   11.4382   28.5507 C   0  0  0  0  0  0  0  0  0  0  0  0
    4.8837   11.5288   29.2522 C   0  0  0  0  0  0  0  0  0  0  0  0
    6.3002   10.3045   26.0722 C   0  0  0  0  0  0  0  0  0  0  0  0
    7.1877   10.8506   25.1355 C   0  0  0  0  0  0  0  0  0  0  0  0
    8.0385    9.8467   24.4623 C   0  0  0  0  0  0  0  0  0  0  0  0
    7.9370    8.6752   24.7865 O   0  0  0  0  0  0  0  0  0  0  0  0
    8.8783   10.2855   23.5010 O   0  0  0  0  0  0  0  0  0  0  0  0
    9.6311    9.2117   22.9267 C   0  0  0  0  0  0  0  0  0  0  0  0
    7.7203   15.3348   24.4911 C   0  0  0  0  0  0  0  0  0  0  0  0
    6.7661   15.9003   23.4220 C   0  0  0  0  0  0  0  0  0  0  0  0
    6.6854   14.4876   22.8150 C   0  0  0  0  0  0  0  0  0  0  0  0
  1  2  1  0
  2  3  1  0
  3  4  1  0
  4  5  2  0
  4  6  1  0
  6  7  1  0
  7  8  1  0
  7  9  1  0
  9 10  2  0
 10 11  1  0
 11 12  2  0
 12 13  1  0
 13 14  1  0
 14 15  1  0
 12 16  1  0
 16 17  2  0
 17 18  1  0
 18 19  2  0
 18 20  1  0
 20 21  1  0
  6 22  1  0
 22 23  1  0
 23 24  1  0
 24  6  1  0
 17  9  1  0
 15 13  1  0
M  END
>  <energy_score>  (399) 
-17.552382

>  <inchikey>  (399) 
None

>  <smiles>  (399) 
None

>  <ref_pdb>  (399) 
A0514a

>  <alias>  (399) 
None

>  <HIPPO Pose ID>  (399) 
498490

>  <name>  (399) 
P498490

>  <HIPPO Compound ID>  (399) 
293072

>  <ref_mols>  (399) 
A4331a,A0514a

>  <distance_score>  (399) 
1.658153

>  <inspiration_score>  (399) 
None

$$$$
P498492
     RDKit          3D

 24 26  0  0  0  0  0  0  0  0999 V2000
    4.7849   14.9237   22.8611 C   0  0  0  0  0  0  0  0  0  0  0  0
    4.6052   14.9033   24.2780 O   0  0  0  0  0  0  0  0  0  0  0  0
    5.7444   15.1960   24.9410 C   0  0  0  0  0  0  0  0  0  0  0  0
    6.8524   15.4096   24.4730 O   0  0  0  0  0  0  0  0  0  0  0  0
    5.4574   15.3356   26.3734 C   0  0  0  0  0  0  0  0  0  0  0  0
    5.3616   16.6819   26.7724 C   0  0  0  0  0  0  0  0  0  0  0  0
    5.1132   17.0071   28.0956 C   0  0  0  0  0  0  0  0  0  0  0  0
    5.0121   18.4440   28.5429 C   0  0  0  0  0  0  0  0  0  0  0  0
    6.1322   19.4198   28.2577 C   0  0  0  0  0  0  0  0  0  0  0  0
    5.9008   18.9430   29.6596 C   0  0  0  0  0  0  0  0  0  0  0  0
    4.9399   16.0275   29.0057 N   0  0  0  0  0  0  0  0  0  0  0  0
    5.0297   14.7343   28.5865 C   0  0  0  0  0  0  0  0  0  0  0  0
    5.3066   14.2861   27.2905 C   0  0  0  0  0  0  0  0  0  0  0  0
    5.4049   12.8791   27.0375 N   0  0  0  0  0  0  0  0  0  0  0  0
    4.5577   12.0749   27.8395 N   0  0  0  0  0  0  0  0  0  0  0  0
    6.3701   12.1963   26.2319 C   0  0  0  0  0  0  0  0  0  0  0  0
    6.2710   10.8363   25.8947 C   0  0  0  0  0  0  0  0  0  0  0  0
    7.2251   10.2105   25.0735 C   0  0  0  0  0  0  0  0  0  0  0  0
    8.2876   10.9300   24.5381 C   0  0  0  0  0  0  0  0  0  0  0  0
    9.2362   10.4401   23.6880 O   0  0  0  0  0  0  0  0  0  0  0  0
    9.1771    9.0695   23.3236 C   0  0  0  0  0  0  0  0  0  0  0  0
    8.4318   12.2710   24.8928 C   0  0  0  0  0  0  0  0  0  0  0  0
    9.5180   13.1322   24.3142 C   0  0  0  0  0  0  0  0  0  0  0  0
    7.5080   12.8579   25.7694 C   0  0  0  0  0  0  0  0  0  0  0  0
  1  2  1  0
  2  3  1  0
  3  4  2  0
  3  5  1  0
  5  6  2  0
  6  7  1  0
  7  8  1  0
  8  9  1  0
  9 10  1  0
  7 11  2  0
 11 12  1  0
 12 13  2  0
 13 14  1  0
 14 15  1  0
 14 16  1  0
 16 17  2  0
 17 18  1  0
 18 19  2  0
 19 20  1  0
 20 21  1  0
 19 22  1  0
 22 23  1  0
 22 24  2  0
 13  5  1  0
 24 16  1  0
 10  8  1  0
M  END
>  <energy_score>  (400) 
-58.930705

>  <inchikey>  (400) 
None

>  <smiles>  (400) 
None

>  <ref_pdb>  (400) 
A0514a

>  <alias>  (400) 
None

>  <HIPPO Pose ID>  (400) 
498492

>  <name>  (400) 
P498492

>  <HIPPO Compound ID>  (400) 
293074

>  <ref_mols>  (400) 
A4331a,A0514a

>  <distance_score>  (400) 
1.25954

>  <inspiration_score>  (400) 
None

$$$$
P498493
     RDKit          3D

 24 26  0  0  0  0  0  0  0  0999 V2000
    9.5648    8.8130   22.9956 C   0  0  0  0  0  0  0  0  0  0  0  0
    8.6188    9.6487   23.6593 O   0  0  0  0  0  0  0  0  0  0  0  0
    9.0564   10.9085   23.8915 C   0  0  0  0  0  0  0  0  0  0  0  0
   10.1670   11.3349   23.6389 O   0  0  0  0  0  0  0  0  0  0  0  0
    7.9747   11.6851   24.5393 C   0  0  0  0  0  0  0  0  0  0  0  0
    7.0438   10.9781   25.3252 C   0  0  0  0  0  0  0  0  0  0  0  0
    6.1152   11.6771   26.0826 C   0  0  0  0  0  0  0  0  0  0  0  0
    5.2993   11.0135   27.1568 C   0  0  0  0  0  0  0  0  0  0  0  0
    4.1202   11.7272   27.7816 C   0  0  0  0  0  0  0  0  0  0  0  0
    5.3990   11.6072   28.5498 C   0  0  0  0  0  0  0  0  0  0  0  0
    6.0158   13.0182   25.9838 N   0  0  0  0  0  0  0  0  0  0  0  0
    6.9115   13.6792   25.2297 C   0  0  0  0  0  0  0  0  0  0  0  0
    7.9528   13.0879   24.5227 C   0  0  0  0  0  0  0  0  0  0  0  0
    9.0366   13.9460   24.1913 N   0  0  0  0  0  0  0  0  0  0  0  0
    9.9886   13.9134   25.2438 N   0  0  0  0  0  0  0  0  0  0  0  0
    9.6022   14.1492   22.9484 C   0  0  0  0  0  0  0  0  0  0  0  0
   10.9167   14.1437   22.5071 C   0  0  0  0  0  0  0  0  0  0  0  0
   12.0309   13.8124   23.2939 C   0  0  0  0  0  0  0  0  0  0  0  0
   12.8467   13.5593   24.0770 N   0  0  0  0  0  0  0  0  0  0  0  0
   10.9395   14.5797   21.1794 C   0  0  0  0  0  0  0  0  0  0  0  0
   12.0950   14.7448   20.2733 C   0  0  0  0  0  0  0  0  0  0  0  0
    9.7158   14.8895   20.7781 N   0  0  0  0  0  0  0  0  0  0  0  0
    8.9431   14.6552   21.8443 N   0  0  0  0  0  0  0  0  0  0  0  0
    7.6113   15.1503   21.7393 C   0  0  0  0  0  0  0  0  0  0  0  0
  1  2  1  0
  2  3  1  0
  3  4  2  0
  3  5  1  0
  5  6  2  0
  6  7  1  0
  7  8  1  0
  8  9  1  0
  9 10  1  0
  7 11  2  0
 11 12  1  0
 12 13  2  0
 13 14  1  0
 14 15  1  0
 14 16  1  0
 16 17  2  0
 17 18  1  0
 18 19  3  0
 17 20  1  0
 20 21  1  0
 20 22  2  0
 22 23  1  0
 23 24  1  0
 13  5  1  0
 23 16  1  0
 10  8  1  0
M  END
>  <energy_score>  (401) 
-40.776786

>  <inchikey>  (401) 
None

>  <smiles>  (401) 
None

>  <ref_pdb>  (401) 
A0514a

>  <alias>  (401) 
None

>  <HIPPO Pose ID>  (401) 
498493

>  <name>  (401) 
P498493

>  <HIPPO Compound ID>  (401) 
293077

>  <ref_mols>  (401) 
A4331a,A0514a

>  <distance_score>  (401) 
1.91952

>  <inspiration_score>  (401) 
None

$$$$
P498496
     RDKit          3D

 24 26  0  0  0  0  0  0  0  0999 V2000
    9.2721    8.6727   23.0726 C   0  0  0  0  0  0  0  0  0  0  0  0
    8.3547    9.4204   23.8773 O   0  0  0  0  0  0  0  0  0  0  0  0
    8.7150   10.7123   24.0580 C   0  0  0  0  0  0  0  0  0  0  0  0
    9.7474   11.2086   23.6392 O   0  0  0  0  0  0  0  0  0  0  0  0
    7.7133   11.4426   24.8801 C   0  0  0  0  0  0  0  0  0  0  0  0
    6.8122   10.7267   25.6718 C   0  0  0  0  0  0  0  0  0  0  0  0
    6.0140   11.4200   26.5735 C   0  0  0  0  0  0  0  0  0  0  0  0
    5.0597   10.7302   27.5001 C   0  0  0  0  0  0  0  0  0  0  0  0
    5.0604   11.1153   28.9605 C   0  0  0  0  0  0  0  0  0  0  0  0
    3.9167   11.5348   28.0896 C   0  0  0  0  0  0  0  0  0  0  0  0
    6.1032   12.7650   26.7062 N   0  0  0  0  0  0  0  0  0  0  0  0
    6.9239   13.4479   25.9032 C   0  0  0  0  0  0  0  0  0  0  0  0
    7.7348   12.8418   24.9754 C   0  0  0  0  0  0  0  0  0  0  0  0
    8.5021   13.6938   24.1792 N   0  0  0  0  0  0  0  0  0  0  0  0
    9.7323   13.9944   24.6909 N   0  0  0  0  0  0  0  0  0  0  0  0
   10.5115   14.1158   23.6615 C   0  0  0  0  0  0  0  0  0  0  0  0
   11.9591   14.2977   23.8308 C   0  0  0  0  0  0  0  0  0  0  0  0
    9.8601   13.9104   22.3245 C   0  0  2  0  0  0  0  0  0  0  0  0
    9.8452   15.0539   21.3313 C   0  0  0  0  0  0  0  0  0  0  0  0
   10.9023   14.9564   20.2417 C   0  0  2  0  0  0  0  0  0  0  0  0
   12.3228   14.9632   20.7390 C   0  0  0  0  0  0  0  0  0  0  0  0
   10.6631   16.0168   19.3347 O   0  0  0  0  0  0  0  0  0  0  0  0
    8.4708   13.5829   22.7901 C   0  0  0  0  0  0  0  0  0  0  0  0
    7.5284   13.2155   22.1059 O   0  0  0  0  0  0  0  0  0  0  0  0
  1  2  1  0
  2  3  1  0
  3  4  2  0
  3  5  1  0
  5  6  2  0
  6  7  1  0
  7  8  1  0
  8  9  1  0
  9 10  1  0
  7 11  2  0
 11 12  1  0
 12 13  2  0
 13 14  1  0
 14 15  1  0
 15 16  2  0
 16 17  1  0
 16 18  1  0
 18 19  1  6
 19 20  1  0
 20 21  1  1
 20 22  1  0
 18 23  1  0
 23 24  2  0
 13  5  1  0
 23 14  1  0
 10  8  1  0
M  END
>  <energy_score>  (402) 
-40.216633

>  <inchikey>  (402) 
None

>  <smiles>  (402) 
None

>  <ref_pdb>  (402) 
A0514a

>  <alias>  (402) 
None

>  <HIPPO Pose ID>  (402) 
498496

>  <name>  (402) 
P498496

>  <HIPPO Compound ID>  (402) 
293081

>  <ref_mols>  (402) 
A4331a,A0514a

>  <distance_score>  (402) 
1.587548

>  <inspiration_score>  (402) 
None

$$$$
P498500
     RDKit          3D

 24 26  0  0  0  0  0  0  0  0999 V2000
    5.4583   15.2769   24.1281 C   0  0  0  0  0  0  0  0  0  0  0  0
    6.8609   15.1102   23.9308 O   0  0  0  0  0  0  0  0  0  0  0  0
    7.1611   14.3347   22.8682 C   0  0  0  0  0  0  0  0  0  0  0  0
    6.4187   13.6803   22.1532 O   0  0  0  0  0  0  0  0  0  0  0  0
    8.5746   14.4283   22.5510 C   0  0  0  0  0  0  0  0  0  0  0  0
    8.7830   15.0330   21.3232 C   0  0  0  0  0  0  0  0  0  0  0  0
   10.0475   15.1709   20.8023 C   0  0  0  0  0  0  0  0  0  0  0  0
   10.1443   15.4971   19.3356 C   0  0  0  0  0  0  0  0  0  0  0  0
   11.4962   15.4889   18.7352 C   0  0  0  0  0  0  0  0  0  0  0  0
   10.6139   16.7387   18.7099 C   0  0  0  0  0  0  0  0  0  0  0  0
   11.1179   14.8208   21.5567 N   0  0  0  0  0  0  0  0  0  0  0  0
   10.8921   14.2493   22.7707 C   0  0  0  0  0  0  0  0  0  0  0  0
    9.6348   13.9931   23.3252 C   0  0  0  0  0  0  0  0  0  0  0  0
    9.5045   13.3904   24.5995 N   0  0  0  0  0  0  0  0  0  0  0  0
   10.0685   14.2106   25.6104 N   0  0  0  0  0  0  0  0  0  0  0  0
    8.4570   12.4661   24.9684 C   0  0  0  0  0  0  0  0  0  0  0  0
    7.4480   12.8379   25.8861 C   0  0  0  0  0  0  0  0  0  0  0  0
    6.4588   11.9404   26.3154 C   0  0  0  0  0  0  0  0  0  0  0  0
    5.3538   12.3980   27.2202 C   0  0  0  0  0  0  0  0  0  0  0  0
    6.4814   10.6353   25.8337 C   0  0  0  0  0  0  0  0  0  0  0  0
    7.4596   10.2425   24.9202 C   0  0  0  0  0  0  0  0  0  0  0  0
    8.4302   11.1435   24.4584 C   0  0  0  0  0  0  0  0  0  0  0  0
    9.3836   10.8070   23.5308 O   0  0  0  0  0  0  0  0  0  0  0  0
    9.5237    9.4299   23.1811 C   0  0  0  0  0  0  0  0  0  0  0  0
  1  2  1  0
  2  3  1  0
  3  4  2  0
  3  5  1  0
  5  6  2  0
  6  7  1  0
  7  8  1  0
  8  9  1  0
  9 10  1  0
  7 11  2  0
 11 12  1  0
 12 13  2  0
 13 14  1  0
 14 15  1  0
 14 16  1  0
 16 17  2  0
 17 18  1  0
 18 19  1  0
 18 20  2  0
 20 21  1  0
 21 22  2  0
 22 23  1  0
 23 24  1  0
 13  5  1  0
 22 16  1  0
 10  8  1  0
M  END
>  <energy_score>  (403) 
-17.819348

>  <inchikey>  (403) 
None

>  <smiles>  (403) 
None

>  <ref_pdb>  (403) 
A0514a

>  <alias>  (403) 
None

>  <HIPPO Pose ID>  (403) 
498500

>  <name>  (403) 
P498500

>  <HIPPO Compound ID>  (403) 
293084

>  <ref_mols>  (403) 
A4331a,A0514a

>  <distance_score>  (403) 
1.112055

>  <inspiration_score>  (403) 
None

$$$$
P498502
     RDKit          3D

 16 17  0  0  0  0  0  0  0  0999 V2000
   10.0615   11.7335   23.4313 C   0  0  0  0  0  0  0  0  0  0  0  0
    9.1086   11.6476   24.5378 N   0  0  0  0  0  0  0  0  0  0  0  0
    8.4681   10.3415   24.4641 C   0  0  0  0  0  0  0  0  0  0  0  0
    7.4412   10.1379   25.5516 C   0  0  0  0  0  0  0  0  0  0  0  0
    6.6106   11.3062   26.0204 C   0  0  0  0  0  0  0  0  0  0  0  0
    7.1843   12.6721   25.7192 C   0  0  0  0  0  0  0  0  0  0  0  0
    8.1353   12.7511   24.5225 C   0  0  1  0  0  0  0  0  0  0  0  0
    8.7985   14.1469   24.5772 C   0  0  0  0  0  0  0  0  0  0  0  0
    9.2437   14.5771   23.2840 N   0  0  0  0  0  0  0  0  0  0  0  0
   10.6702   14.8012   22.7381 C   0  0  0  0  0  0  0  0  0  0  0  0
   11.7020   14.7452   23.2764 O   0  0  0  0  0  0  0  0  0  0  0  0
   10.5392   15.0812   21.2840 C   0  0  0  0  0  0  0  0  0  0  0  0
   11.5128   14.7836   20.4151 C   0  0  0  0  0  0  0  0  0  0  0  0
   11.0774   15.0125   19.0107 C   0  0  0  0  0  0  0  0  0  0  0  0
    9.8515   15.8920   19.1901 C   0  0  0  0  0  0  0  0  0  0  0  0
    9.3363   15.6282   20.5925 C   0  0  0  0  0  0  0  0  0  0  0  0
  1  2  1  0
  2  3  1  0
  3  4  1  0
  4  5  1  0
  5  6  1  0
  6  7  1  0
  7  8  1  1
  8  9  1  0
  9 10  1  0
 10 11  2  0
 10 12  1  0
 12 13  2  0
 13 14  1  0
 14 15  1  0
 15 16  1  0
  7  2  1  0
 16 12  1  0
M  END
>  <energy_score>  (404) 
-8.091473

>  <inchikey>  (404) 
None

>  <smiles>  (404) 
None

>  <ref_pdb>  (404) 
A3436a

>  <alias>  (404) 
None

>  <HIPPO Pose ID>  (404) 
498502

>  <name>  (404) 
P498502

>  <HIPPO Compound ID>  (404) 
293170

>  <ref_mols>  (404) 
A4320a,A3436a

>  <distance_score>  (404) 
1.713601

>  <inspiration_score>  (404) 
None

$$$$
P498503
     RDKit          3D

 17 18  0  0  0  0  0  0  0  0999 V2000
    5.9230   11.4164   27.5153 C   0  0  0  0  0  0  0  0  0  0  0  0
    6.4863   11.4747   26.0892 C   0  0  2  0  0  0  0  0  0  0  0  0
    7.3217   10.2646   25.7111 C   0  0  0  0  0  0  0  0  0  0  0  0
    8.3451   10.4115   24.6046 C   0  0  0  0  0  0  0  0  0  0  0  0
    9.0506   11.6836   24.6572 N   0  0  0  0  0  0  0  0  0  0  0  0
   10.0095   11.7036   23.5492 C   0  0  0  0  0  0  0  0  0  0  0  0
    8.1154   12.8206   24.6089 C   0  0  2  0  0  0  0  0  0  0  0  0
    8.8275   14.1890   24.6178 C   0  0  0  0  0  0  0  0  0  0  0  0
    9.2632   14.5790   23.3077 N   0  0  0  0  0  0  0  0  0  0  0  0
   10.6855   14.7744   22.7412 C   0  0  0  0  0  0  0  0  0  0  0  0
   11.7223   14.7241   23.2702 O   0  0  0  0  0  0  0  0  0  0  0  0
   10.5433   15.0520   21.2870 C   0  0  0  0  0  0  0  0  0  0  0  0
   11.5164   14.7693   20.4125 C   0  0  0  0  0  0  0  0  0  0  0  0
   11.0767   15.0088   19.0112 C   0  0  0  0  0  0  0  0  0  0  0  0
    9.8481   15.8822   19.2012 C   0  0  0  0  0  0  0  0  0  0  0  0
    9.3370   15.6021   20.6028 C   0  0  0  0  0  0  0  0  0  0  0  0
    7.1695   12.8053   25.8185 C   0  0  0  0  0  0  0  0  0  0  0  0
  2  1  1  1
  2  3  1  0
  3  4  1  0
  4  5  1  0
  5  6  1  0
  5  7  1  0
  7  8  1  1
  8  9  1  0
  9 10  1  0
 10 11  2  0
 10 12  1  0
 12 13  2  0
 13 14  1  0
 14 15  1  0
 15 16  1  0
  7 17  1  0
 17  2  1  0
 16 12  1  0
M  END
>  <energy_score>  (405) 
-10.424144

>  <inchikey>  (405) 
None

>  <smiles>  (405) 
None

>  <ref_pdb>  (405) 
A3436a

>  <alias>  (405) 
None

>  <HIPPO Pose ID>  (405) 
498503

>  <name>  (405) 
P498503

>  <HIPPO Compound ID>  (405) 
293172

>  <ref_mols>  (405) 
A3436a,A4320a

>  <distance_score>  (405) 
1.796218

>  <inspiration_score>  (405) 
None

$$$$
P498504
     RDKit          3D

 17 18  0  0  0  0  0  0  0  0999 V2000
    9.0712    8.5514   23.5373 C   0  0  0  0  0  0  0  0  0  0  0  0
    9.6406    9.9545   23.6032 C   0  0  0  0  0  0  0  0  0  0  0  0
    9.0950   10.9572   24.5520 N   0  0  0  0  0  0  0  0  0  0  0  0
    7.7466   10.6802   24.9765 C   0  0  0  0  0  0  0  0  0  0  0  0
    7.1044   11.7050   25.8812 C   0  0  0  0  0  0  0  0  0  0  0  0
    7.1925   13.0912   25.2838 C   0  0  0  0  0  0  0  0  0  0  0  0
    8.6150   13.4186   24.8996 C   0  0  0  0  0  0  0  0  0  0  0  0
    9.2696   12.3301   24.0365 C   0  0  1  0  0  0  0  0  0  0  0  0
   10.7554   12.7004   23.9030 C   0  0  0  0  0  0  0  0  0  0  0  0
   10.9964   13.3361   22.6546 N   0  0  0  0  0  0  0  0  0  0  0  0
   11.5358   14.7178   22.3403 C   0  0  0  0  0  0  0  0  0  0  0  0
   11.9452   15.5395   23.0411 O   0  0  0  0  0  0  0  0  0  0  0  0
   11.3531   14.9053   20.8961 C   0  0  0  0  0  0  0  0  0  0  0  0
   12.4084   14.4330   19.9896 C   0  0  0  0  0  0  0  0  0  0  0  0
   10.2832   15.5605   20.5146 C   0  0  0  0  0  0  0  0  0  0  0  0
    9.6427   16.1198   19.4001 C   0  0  0  0  0  0  0  0  0  0  0  0
    9.0858   16.2082   20.8551 C   0  0  0  0  0  0  0  0  0  0  0  0
  1  2  1  0
  2  3  1  0
  3  4  1  0
  4  5  1  0
  5  6  1  0
  6  7  1  0
  7  8  1  0
  8  9  1  1
  9 10  1  0
 10 11  1  0
 11 12  2  0
 11 13  1  0
 13 14  1  0
 13 15  2  3
 15 16  1  0
 16 17  1  0
  8  3  1  0
 17 15  1  0
M  END
>  <energy_score>  (406) 
-32.284148

>  <inchikey>  (406) 
None

>  <smiles>  (406) 
None

>  <ref_pdb>  (406) 
A3436a

>  <alias>  (406) 
None

>  <HIPPO Pose ID>  (406) 
498504

>  <name>  (406) 
P498504

>  <HIPPO Compound ID>  (406) 
293187

>  <ref_mols>  (406) 
A3436a,A4320a

>  <distance_score>  (406) 
1.908791

>  <inspiration_score>  (406) 
None

$$$$
P498505
     RDKit          3D

 17 18  0  0  0  0  0  0  0  0999 V2000
   10.9323   12.5151   24.0125 C   0  0  0  0  0  0  0  0  0  0  0  0
    9.7415   11.7701   24.3718 N   0  0  0  0  0  0  0  0  0  0  0  0
    9.7170   10.4621   23.7149 C   0  0  0  0  0  0  0  0  0  0  0  0
    8.5831    9.5965   24.2192 C   0  0  0  0  0  0  0  0  0  0  0  0
    7.6354   10.2424   25.2399 C   0  0  0  0  0  0  0  0  0  0  0  0
    7.5409   11.7645   25.2409 C   0  0  0  0  0  0  0  0  0  0  0  0
    8.4507   12.4322   24.2192 C   0  0  1  0  0  0  0  0  0  0  0  0
    8.3900   13.9575   24.3913 C   0  0  0  0  0  0  0  0  0  0  0  0
    8.7192   14.5917   23.1426 N   0  0  0  0  0  0  0  0  0  0  0  0
    9.9667   15.0633   22.6312 C   0  0  0  0  0  0  0  0  0  0  0  0
   11.0454   15.1250   23.1394 O   0  0  0  0  0  0  0  0  0  0  0  0
    9.7530   15.5518   21.2679 C   0  0  0  0  0  0  0  0  0  0  0  0
   10.5467   15.2671   20.2401 C   0  0  0  0  0  0  0  0  0  0  0  0
   12.1392   14.3871   20.2184 Br  0  0  0  0  0  0  0  0  0  0  0  0
   10.0667   15.9121   19.0016 C   0  0  0  0  0  0  0  0  0  0  0  0
    9.1839   17.0147   19.5638 C   0  0  0  0  0  0  0  0  0  0  0  0
    8.6787   16.5143   20.9011 C   0  0  0  0  0  0  0  0  0  0  0  0
  1  2  1  0
  2  3  1  0
  3  4  1  0
  4  5  1  0
  5  6  1  0
  6  7  1  0
  7  8  1  1
  8  9  1  0
  9 10  1  0
 10 11  2  0
 10 12  1  0
 12 13  2  0
 13 14  1  0
 13 15  1  0
 15 16  1  0
 16 17  1  0
  7  2  1  0
 17 12  1  0
M  END
>  <energy_score>  (407) 
-4.475279

>  <inchikey>  (407) 
None

>  <smiles>  (407) 
None

>  <ref_pdb>  (407) 
A3436a

>  <alias>  (407) 
None

>  <HIPPO Pose ID>  (407) 
498505

>  <name>  (407) 
P498505

>  <HIPPO Compound ID>  (407) 
293198

>  <ref_mols>  (407) 
A4320a,A3436a

>  <distance_score>  (407) 
1.614393

>  <inspiration_score>  (407) 
None

$$$$
P498506
     RDKit          3D

 17 18  0  0  0  0  0  0  0  0999 V2000
   10.8109   12.6419   23.9633 C   0  0  0  0  0  0  0  0  0  0  0  0
    9.6874   11.8155   24.3704 N   0  0  0  0  0  0  0  0  0  0  0  0
    9.7044   10.5102   23.6882 C   0  0  0  0  0  0  0  0  0  0  0  0
    8.6217    9.5669   24.1637 C   0  0  0  0  0  0  0  0  0  0  0  0
    7.6614   10.1196   25.2197 C   0  0  0  0  0  0  0  0  0  0  0  0
    7.4982   11.6268   25.3014 C   0  0  0  0  0  0  0  0  0  0  0  0
    8.3395   12.3905   24.2945 C   0  0  1  0  0  0  0  0  0  0  0  0
    8.1756   13.8964   24.5598 C   0  0  0  0  0  0  0  0  0  0  0  0
    8.6325   14.5884   23.3962 N   0  0  0  0  0  0  0  0  0  0  0  0
    7.9189   14.8909   22.0723 C   0  0  0  0  0  0  0  0  0  0  0  0
    6.8223   14.6935   21.7460 O   0  0  0  0  0  0  0  0  0  0  0  0
    8.9717   15.4261   21.1899 C   0  0  0  0  0  0  0  0  0  0  0  0
    9.9351   14.5535   20.8555 C   0  0  0  0  0  0  0  0  0  0  0  0
   10.9434   14.9155   19.8338 C   0  0  0  0  0  0  0  0  0  0  0  0
   10.2833   15.9037   18.9025 C   0  0  0  0  0  0  0  0  0  0  0  0
    9.8175   17.0611   19.5972 O   0  0  0  0  0  0  0  0  0  0  0  0
    8.8880   16.8119   20.6524 C   0  0  0  0  0  0  0  0  0  0  0  0
  1  2  1  0
  2  3  1  0
  3  4  1  0
  4  5  1  0
  5  6  1  0
  6  7  1  0
  7  8  1  1
  8  9  1  0
  9 10  1  0
 10 11  2  0
 10 12  1  0
 12 13  2  0
 13 14  1  0
 14 15  1  0
 15 16  1  0
 16 17  1  0
  7  2  1  0
 17 12  1  0
M  END
>  <energy_score>  (408) 
-14.813219

>  <inchikey>  (408) 
None

>  <smiles>  (408) 
None

>  <ref_pdb>  (408) 
A3436a

>  <alias>  (408) 
None

>  <HIPPO Pose ID>  (408) 
498506

>  <name>  (408) 
P498506

>  <HIPPO Compound ID>  (408) 
293205

>  <ref_mols>  (408) 
A3436a,A4320a

>  <distance_score>  (408) 
1.98355

>  <inspiration_score>  (408) 
None

$$$$
P498508
     RDKit          3D

 18 20  0  0  0  0  0  0  0  0999 V2000
   11.4751   12.8082   24.3327 C   0  0  0  0  0  0  0  0  0  0  0  0
   10.1677   12.1989   24.3190 N   0  0  0  0  0  0  0  0  0  0  0  0
    9.8327   11.4174   23.1588 C   0  0  0  0  0  0  0  0  0  0  0  0
    9.1703   10.1716   23.6839 C   0  0  0  0  0  0  0  0  0  0  0  0
    8.1731   10.4744   24.7949 C   0  0  0  0  0  0  0  0  0  0  0  0
    7.7705   11.9554   24.7956 C   0  0  0  0  0  0  0  0  0  0  0  0
    9.0047   12.8848   24.8572 C   0  0  2  0  0  0  0  0  0  0  0  0
    8.6571   14.2840   24.3510 C   0  0  0  0  0  0  0  0  0  0  0  0
    9.1403   14.5729   23.0370 N   0  0  0  0  0  0  0  0  0  0  0  0
   10.4298   14.9993   22.5832 C   0  0  0  0  0  0  0  0  0  0  0  0
   11.4131   15.2995   23.1933 O   0  0  0  0  0  0  0  0  0  0  0  0
   10.4214   15.0893   21.1205 C   0  0  0  0  0  0  0  0  0  0  0  0
   11.4501   14.7688   20.3298 C   0  0  0  0  0  0  0  0  0  0  0  0
   11.0838   14.9639   18.9023 C   0  0  0  0  0  0  0  0  0  0  0  0
    9.8515   15.8501   19.0152 C   0  0  0  0  0  0  0  0  0  0  0  0
    9.2484   15.6001   20.3755 C   0  0  0  0  0  0  0  0  0  0  0  0
    9.0750    9.0300   22.6814 C   0  0  0  0  0  0  0  0  0  0  0  0
    9.9356    8.8636   23.8337 C   0  0  0  0  0  0  0  0  0  0  0  0
  1  2  1  0
  2  3  1  0
  3  4  1  0
  4  5  1  0
  5  6  1  0
  6  7  1  0
  7  8  1  6
  8  9  1  0
  9 10  1  0
 10 11  2  0
 10 12  1  0
 12 13  2  0
 13 14  1  0
 14 15  1  0
 15 16  1  0
  4 17  1  0
 17 18  1  0
  7  2  1  0
 16 12  1  0
 18  4  1  0
M  END
>  <energy_score>  (409) 
-8.112142

>  <inchikey>  (409) 
None

>  <smiles>  (409) 
None

>  <ref_pdb>  (409) 
A3436a

>  <alias>  (409) 
None

>  <HIPPO Pose ID>  (409) 
498508

>  <name>  (409) 
P498508

>  <HIPPO Compound ID>  (409) 
293227

>  <ref_mols>  (409) 
A4320a,A3436a

>  <distance_score>  (409) 
1.804215

>  <inspiration_score>  (409) 
None

$$$$
P498509
     RDKit          3D

 18 19  0  0  0  0  0  0  0  0999 V2000
   10.0188   11.5380   22.9906 C   0  0  0  0  0  0  0  0  0  0  0  0
    8.8227   11.7558   23.7828 N   0  0  0  0  0  0  0  0  0  0  0  0
    8.4461   10.4858   24.4057 C   0  0  0  0  0  0  0  0  0  0  0  0
    7.3341   10.6156   25.4409 C   0  0  0  0  0  0  0  0  0  0  0  0
    6.8805   12.0134   25.8858 C   0  0  0  0  0  0  0  0  0  0  0  0
    7.5938   13.2512   25.2771 C   0  0  0  0  0  0  0  0  0  0  0  0
    7.5857   14.3627   26.3617 C   0  0  0  0  0  0  0  0  0  0  0  0
    6.8206   13.8779   24.0961 C   0  0  0  0  0  0  0  0  0  0  0  0
    9.0026   12.7879   24.8322 C   0  0  2  0  0  0  0  0  0  0  0  0
   10.0344   13.9155   24.6531 C   0  0  0  0  0  0  0  0  0  0  0  0
   10.1365   14.4360   23.3369 N   0  0  0  0  0  0  0  0  0  0  0  0
   11.3681   14.7834   22.4981 C   0  0  0  0  0  0  0  0  0  0  0  0
   12.4951   14.7722   22.7757 O   0  0  0  0  0  0  0  0  0  0  0  0
   10.9105   15.0706   21.1211 C   0  0  0  0  0  0  0  0  0  0  0  0
   11.7194   14.7981   20.0911 C   0  0  0  0  0  0  0  0  0  0  0  0
   11.0658   15.0716   18.7910 C   0  0  0  0  0  0  0  0  0  0  0  0
    9.8599   15.8995   19.2056 C   0  0  0  0  0  0  0  0  0  0  0  0
    9.5854   15.5768   20.6668 C   0  0  0  0  0  0  0  0  0  0  0  0
  1  2  1  0
  2  3  1  0
  3  4  1  0
  4  5  1  0
  5  6  1  0
  6  7  1  0
  6  8  1  0
  6  9  1  0
  9 10  1  6
 10 11  1  0
 11 12  1  0
 12 13  2  0
 12 14  1  0
 14 15  2  0
 15 16  1  0
 16 17  1  0
 17 18  1  0
  9  2  1  0
 18 14  1  0
M  END
>  <energy_score>  (410) 
-11.206068

>  <inchikey>  (410) 
None

>  <smiles>  (410) 
None

>  <ref_pdb>  (410) 
A3436a

>  <alias>  (410) 
None

>  <HIPPO Pose ID>  (410) 
498509

>  <name>  (410) 
P498509

>  <HIPPO Compound ID>  (410) 
293230

>  <ref_mols>  (410) 
A3436a,A4320a

>  <distance_score>  (410) 
1.957259

>  <inspiration_score>  (410) 
None

$$$$
P498510
     RDKit          3D

 18 19  0  0  0  0  0  0  0  0999 V2000
    8.8375   10.3860   23.8304 C   0  0  0  0  0  0  0  0  0  0  0  0
    8.1144   10.7589   25.1460 C   0  0  0  0  0  0  0  0  0  0  0  0
    7.1175    9.6871   25.5470 C   0  0  0  0  0  0  0  0  0  0  0  0
    7.7186   12.1386   25.5393 N   0  0  0  0  0  0  0  0  0  0  0  0
    6.5008   12.2431   26.3593 C   0  0  0  0  0  0  0  0  0  0  0  0
    6.0703   13.6462   26.7503 C   0  0  0  0  0  0  0  0  0  0  0  0
    5.9880   14.5101   25.5154 C   0  0  0  0  0  0  0  0  0  0  0  0
    7.3678   14.5711   24.9038 C   0  0  0  0  0  0  0  0  0  0  0  0
    7.9739   13.1942   24.5638 C   0  0  1  0  0  0  0  0  0  0  0  0
    9.4935   13.4373   24.3986 C   0  0  0  0  0  0  0  0  0  0  0  0
    9.7774   14.0829   23.1547 N   0  0  0  0  0  0  0  0  0  0  0  0
   11.1135   14.5182   22.5401 C   0  0  0  0  0  0  0  0  0  0  0  0
   12.1890   14.4913   22.9794 O   0  0  0  0  0  0  0  0  0  0  0  0
   10.8129   14.9561   21.1508 C   0  0  0  0  0  0  0  0  0  0  0  0
   11.6850   14.7383   20.1607 C   0  0  0  0  0  0  0  0  0  0  0  0
   11.1004   15.0653   18.8352 C   0  0  0  0  0  0  0  0  0  0  0  0
    9.8851   15.8997   19.2050 C   0  0  0  0  0  0  0  0  0  0  0  0
    9.5361   15.5415   20.6396 C   0  0  0  0  0  0  0  0  0  0  0  0
  1  2  1  0
  2  3  1  0
  2  4  1  0
  4  5  1  0
  5  6  1  0
  6  7  1  0
  7  8  1  0
  8  9  1  0
  9 10  1  1
 10 11  1  0
 11 12  1  0
 12 13  2  0
 12 14  1  0
 14 15  2  0
 15 16  1  0
 16 17  1  0
 17 18  1  0
  9  4  1  0
 18 14  1  0
M  END
>  <energy_score>  (411) 
-14.135726

>  <inchikey>  (411) 
None

>  <smiles>  (411) 
None

>  <ref_pdb>  (411) 
A3436a

>  <alias>  (411) 
None

>  <HIPPO Pose ID>  (411) 
498510

>  <name>  (411) 
P498510

>  <HIPPO Compound ID>  (411) 
293231

>  <ref_mols>  (411) 
A3436a,A4320a

>  <distance_score>  (411) 
1.807667

>  <inspiration_score>  (411) 
None

$$$$
P498511
     RDKit          3D

 18 18  0  0  0  0  0  0  0  0999 V2000
    9.1087   15.8321   18.7240 C   0  0  0  0  0  0  0  0  0  0  0  0
   10.5111   15.4553   18.8914 C   0  0  0  0  0  0  0  0  0  0  0  0
   10.7683   15.3406   20.3603 C   0  0  0  0  0  0  0  0  0  0  0  0
    9.8552   16.0106   21.3417 C   0  0  0  0  0  0  0  0  0  0  0  0
   11.8416   14.6430   20.7284 C   0  0  0  0  0  0  0  0  0  0  0  0
   12.7399   14.0446   19.7546 C   0  0  0  0  0  0  0  0  0  0  0  0
   12.1243   14.5000   22.1564 C   0  0  0  0  0  0  0  0  0  0  0  0
   12.8093   15.2128   22.7518 O   0  0  0  0  0  0  0  0  0  0  0  0
   11.2702   13.3381   22.6238 N   0  0  0  0  0  0  0  0  0  0  0  0
   10.9994   12.8596   23.9337 C   0  0  0  0  0  0  0  0  0  0  0  0
    9.5053   12.5085   24.0699 C   0  0  2  0  0  0  0  0  0  0  0  0
    8.8888   13.4928   25.0779 C   0  0  0  0  0  0  0  0  0  0  0  0
    7.5290   13.0873   25.6075 C   0  0  0  0  0  0  0  0  0  0  0  0
    7.1126   11.7570   25.0529 C   0  0  0  0  0  0  0  0  0  0  0  0
    8.1730   10.7055   25.1269 C   0  0  0  0  0  0  0  0  0  0  0  0
    9.3664   11.0769   24.3898 N   0  0  0  0  0  0  0  0  0  0  0  0
    9.5521   10.2406   23.2098 C   0  0  0  0  0  0  0  0  0  0  0  0
    9.8934    8.7869   23.4456 C   0  0  0  0  0  0  0  0  0  0  0  0
  1  2  1  0
  2  3  1  0
  3  4  1  0
  3  5  2  0
  5  6  1  0
  5  7  1  0
  7  8  2  0
  7  9  1  0
  9 10  1  0
 11 10  1  1
 11 12  1  0
 12 13  1  0
 13 14  1  0
 14 15  1  0
 15 16  1  0
 16 17  1  0
 17 18  1  0
 16 11  1  0
M  END
>  <energy_score>  (412) 
-14.183308

>  <inchikey>  (412) 
None

>  <smiles>  (412) 
None

>  <ref_pdb>  (412) 
A3436a

>  <alias>  (412) 
None

>  <HIPPO Pose ID>  (412) 
498511

>  <name>  (412) 
P498511

>  <HIPPO Compound ID>  (412) 
293240

>  <ref_mols>  (412) 
A4320a,A3436a

>  <distance_score>  (412) 
1.928576

>  <inspiration_score>  (412) 
None

$$$$
P498513
     RDKit          3D

 18 20  0  0  0  0  0  0  0  0999 V2000
   11.0919   14.2842   19.4190 C   0  0  0  0  0  0  0  0  0  0  0  0
   10.2708   14.0578   20.6487 N   0  0  0  0  0  0  0  0  0  0  0  0
    9.3479   15.1447   20.8590 C   0  0  0  0  0  0  0  0  0  0  0  0
   10.1362   16.4195   20.9796 C   0  0  0  0  0  0  0  0  0  0  0  0
   11.5477   16.1526   21.5822 C   0  0  0  0  0  0  0  0  0  0  0  0
   11.5436   15.0456   22.5871 C   0  0  0  0  0  0  0  0  0  0  0  0
   11.1079   13.7806   21.8626 C   0  0  1  0  0  0  0  0  0  0  0  0
   10.5261   12.7723   22.8901 C   0  0  0  0  0  0  0  0  0  0  0  0
    9.4345   13.2107   23.7315 N   0  0  0  0  0  0  0  0  0  0  0  0
    9.4472   13.9509   25.0838 C   0  0  0  0  0  0  0  0  0  0  0  0
   10.3364   14.3921   25.6955 O   0  0  0  0  0  0  0  0  0  0  0  0
    8.0458   13.9284   25.5785 C   0  0  0  0  0  0  0  0  0  0  0  0
    7.4330   14.6229   26.5563 C   0  0  0  0  0  0  0  0  0  0  0  0
    6.1753   13.7675   26.4892 C   0  0  2  0  0  0  0  0  0  0  0  0
    5.9774   12.7155   27.5836 C   0  0  0  0  0  0  0  0  0  0  0  0
    5.9733   11.3926   26.8298 C   0  0  0  0  0  0  0  0  0  0  0  0
    7.0439   11.5732   25.7666 C   0  0  0  0  0  0  0  0  0  0  0  0
    6.8789   13.0273   25.3275 C   0  0  2  0  0  0  0  0  0  0  0  0
  1  2  1  0
  2  3  1  0
  3  4  1  0
  4  5  1  0
  5  6  1  0
  6  7  1  0
  7  8  1  1
  8  9  1  0
  9 10  1  0
 10 11  2  0
 10 12  1  0
 12 13  2  0
 13 14  1  0
 14 15  1  1
 15 16  1  0
 16 17  1  0
 18 17  1  1
  7  2  1  0
 18 12  1  0
 18 14  1  0
M  END
>  <energy_score>  (413) 
-6.873443

>  <inchikey>  (413) 
None

>  <smiles>  (413) 
None

>  <ref_pdb>  (413) 
A3436a

>  <alias>  (413) 
None

>  <HIPPO Pose ID>  (413) 
498513

>  <name>  (413) 
P498513

>  <HIPPO Compound ID>  (413) 
293256

>  <ref_mols>  (413) 
A3436a,A4320a

>  <distance_score>  (413) 
1.656906

>  <inspiration_score>  (413) 
None

$$$$
P498514
     RDKit          3D

 18 20  0  0  0  0  0  0  0  0999 V2000
    9.4030   15.7953   19.3644 O   0  0  0  0  0  0  0  0  0  0  0  0
   10.0877   15.1191   20.1216 C   0  0  0  0  0  0  0  0  0  0  0  0
   11.5377   14.8746   19.8797 C   0  0  0  0  0  0  0  0  0  0  0  0
   12.2868   15.1680   21.1624 C   0  0  0  0  0  0  0  0  0  0  0  0
   11.8588   14.1598   22.1997 C   0  0  0  0  0  0  0  0  0  0  0  0
   10.3608   14.3011   22.4548 C   0  0  2  0  0  0  0  0  0  0  0  0
    9.8819   13.1060   23.2892 C   0  0  0  0  0  0  0  0  0  0  0  0
    8.8095   13.4379   24.1913 N   0  0  0  0  0  0  0  0  0  0  0  0
    8.8273   14.1994   25.5269 C   0  0  0  0  0  0  0  0  0  0  0  0
    9.6987   14.7460   26.0725 O   0  0  0  0  0  0  0  0  0  0  0  0
    7.4734   14.0330   26.1094 C   0  0  0  0  0  0  0  0  0  0  0  0
    6.9005   14.6232   27.1743 C   0  0  0  0  0  0  0  0  0  0  0  0
    5.7198   13.6663   27.1699 C   0  0  2  0  0  0  0  0  0  0  0  0
    5.7306   12.5177   28.1798 C   0  0  0  0  0  0  0  0  0  0  0  0
    5.7142   11.2653   27.3145 C   0  0  0  0  0  0  0  0  0  0  0  0
    6.6472   11.6077   26.1682 C   0  0  0  0  0  0  0  0  0  0  0  0
    6.3414   13.0782   25.8833 C   0  0  2  0  0  0  0  0  0  0  0  0
    9.5629   14.5116   21.2388 N   0  0  0  0  0  0  0  0  0  0  0  0
  1  2  2  0
  2  3  1  0
  3  4  1  0
  4  5  1  0
  5  6  1  0
  6  7  1  6
  7  8  1  0
  8  9  1  0
  9 10  2  0
  9 11  1  0
 11 12  2  0
 12 13  1  0
 13 14  1  1
 14 15  1  0
 15 16  1  0
 17 16  1  1
  6 18  1  0
 18  2  1  0
 17 11  1  0
 17 13  1  0
M  END
>  <energy_score>  (414) 
-22.817848

>  <inchikey>  (414) 
None

>  <smiles>  (414) 
None

>  <ref_pdb>  (414) 
A3436a

>  <alias>  (414) 
None

>  <HIPPO Pose ID>  (414) 
498514

>  <name>  (414) 
P498514

>  <HIPPO Compound ID>  (414) 
293258

>  <ref_mols>  (414) 
A4320a,A3436a

>  <distance_score>  (414) 
1.776564

>  <inspiration_score>  (414) 
None

$$$$
P498516
     RDKit          3D

 18 19  0  0  0  0  0  0  0  0999 V2000
    5.6564   11.0664   27.5775 C   0  0  0  0  0  0  0  0  0  0  0  0
    6.3008   11.2764   26.2009 C   0  0  2  0  0  0  0  0  0  0  0  0
    7.1717   10.1142   25.7741 C   0  0  0  0  0  0  0  0  0  0  0  0
    8.2009   10.3358   24.6919 C   0  0  0  0  0  0  0  0  0  0  0  0
    8.9303   11.5816   24.8498 N   0  0  0  0  0  0  0  0  0  0  0  0
    9.8654   11.6589   23.7182 C   0  0  0  0  0  0  0  0  0  0  0  0
    8.0022   12.7318   24.9337 C   0  0  2  0  0  0  0  0  0  0  0  0
    8.7123   14.0879   25.1129 C   0  0  0  0  0  0  0  0  0  0  0  0
    9.2800   14.5091   23.8774 N   0  0  0  0  0  0  0  0  0  0  0  0
   10.7440   14.6611   23.4555 C   0  0  0  0  0  0  0  0  0  0  0  0
   11.7220   14.5410   24.0717 O   0  0  0  0  0  0  0  0  0  0  0  0
   10.6549   14.9107   22.0104 C   0  0  0  0  0  0  0  0  0  0  0  0
   11.5241   15.5075   21.1924 C   0  0  0  0  0  0  0  0  0  0  0  0
   10.6139   15.3360   19.9679 C   0  0  0  0  0  0  0  0  0  0  0  0
    9.7328   16.4929   19.5162 C   0  0  0  0  0  0  0  0  0  0  0  0
   11.3302   14.6669   18.8064 C   0  0  0  0  0  0  0  0  0  0  0  0
    9.7385   14.4846   20.9116 C   0  0  0  0  0  0  0  0  0  0  0  0
    7.0180   12.6083   26.1103 C   0  0  0  0  0  0  0  0  0  0  0  0
  2  1  1  1
  2  3  1  0
  3  4  1  0
  4  5  1  0
  5  6  1  0
  5  7  1  0
  7  8  1  1
  8  9  1  0
  9 10  1  0
 10 11  2  0
 10 12  1  0
 12 13  2  0
 13 14  1  0
 14 15  1  0
 14 16  1  0
 14 17  1  0
  7 18  1  0
 18  2  1  0
 17 12  1  0
M  END
>  <energy_score>  (415) 
-30.369072

>  <inchikey>  (415) 
None

>  <smiles>  (415) 
None

>  <ref_pdb>  (415) 
A3436a

>  <alias>  (415) 
None

>  <HIPPO Pose ID>  (415) 
498516

>  <name>  (415) 
P498516

>  <HIPPO Compound ID>  (415) 
293286

>  <ref_mols>  (415) 
A3436a,A4320a

>  <distance_score>  (415) 
1.816034

>  <inspiration_score>  (415) 
None

$$$$
P498518
     RDKit          3D

 18 19  0  0  0  0  0  0  0  0999 V2000
    9.3194    9.4799   23.3136 C   0  0  0  0  0  0  0  0  0  0  0  0
    8.3341   10.3626   23.9448 N   0  0  0  0  0  0  0  0  0  0  0  0
    7.9719    9.8966   25.2453 C   0  0  0  0  0  0  0  0  0  0  0  0
    6.7778   10.5547   25.8787 C   0  0  0  0  0  0  0  0  0  0  0  0
    6.7995   12.0669   25.7954 C   0  0  1  0  0  0  0  0  0  0  0  0
    7.2172   12.5893   27.0603 O   0  0  0  0  0  0  0  0  0  0  0  0
    7.6315   12.6895   24.6768 C   0  0  0  0  0  0  0  0  0  0  0  0
    8.6341   11.7798   23.9358 C   0  0  1  0  0  0  0  0  0  0  0  0
   10.0831   12.1657   24.2339 C   0  0  0  0  0  0  0  0  0  0  0  0
   10.4288   13.0684   23.2214 N   0  0  0  0  0  0  0  0  0  0  0  0
   11.0375   14.4414   23.3002 C   0  0  0  0  0  0  0  0  0  0  0  0
   11.4305   15.0363   24.2088 O   0  0  0  0  0  0  0  0  0  0  0  0
   10.9022   14.8529   21.9070 C   0  0  0  0  0  0  0  0  0  0  0  0
   11.6566   15.5978   21.1123 C   0  0  0  0  0  0  0  0  0  0  0  0
   10.6819   15.4514   19.9234 C   0  0  0  0  0  0  0  0  0  0  0  0
    9.7731   16.6025   19.5207 C   0  0  0  0  0  0  0  0  0  0  0  0
   11.3277   14.7513   18.7371 C   0  0  0  0  0  0  0  0  0  0  0  0
    9.8308   14.6115   20.8834 C   0  0  0  0  0  0  0  0  0  0  0  0
  1  2  1  0
  2  3  1  0
  3  4  1  0
  4  5  1  0
  5  6  1  1
  5  7  1  0
  7  8  1  0
  8  9  1  1
  9 10  1  0
 10 11  1  0
 11 12  2  0
 11 13  1  0
 13 14  2  0
 14 15  1  0
 15 16  1  0
 15 17  1  0
 15 18  1  0
  8  2  1  0
 18 13  1  0
M  END
>  <energy_score>  (416) 
-12.794961

>  <inchikey>  (416) 
None

>  <smiles>  (416) 
None

>  <ref_pdb>  (416) 
A3436a

>  <alias>  (416) 
None

>  <HIPPO Pose ID>  (416) 
498518

>  <name>  (416) 
P498518

>  <HIPPO Compound ID>  (416) 
293292

>  <ref_mols>  (416) 
A3436a,A4320a

>  <distance_score>  (416) 
1.746563

>  <inspiration_score>  (416) 
None

$$$$
P498519
     RDKit          3D

 18 19  0  0  0  0  0  0  0  0999 V2000
    6.1980   10.5628   26.3236 C   0  0  0  0  0  0  0  0  0  0  0  0
    7.1522   11.0356   25.2388 C   0  0  2  0  0  0  0  0  0  0  0  0
    8.2798   10.0805   24.9208 C   0  0  0  0  0  0  0  0  0  0  0  0
    9.3120   10.6058   23.9369 C   0  0  0  0  0  0  0  0  0  0  0  0
    9.6645   11.9431   24.4205 N   0  0  0  0  0  0  0  0  0  0  0  0
   10.9369   12.4261   23.9324 C   0  0  0  0  0  0  0  0  0  0  0  0
    8.5269   12.8572   24.2876 C   0  0  2  0  0  0  0  0  0  0  0  0
    8.8347   14.3486   24.3539 C   0  0  0  0  0  0  0  0  0  0  0  0
    9.2934   14.7572   23.0564 N   0  0  0  0  0  0  0  0  0  0  0  0
   10.7150   15.0960   22.5555 C   0  0  0  0  0  0  0  0  0  0  0  0
   11.7224   15.1705   23.1362 O   0  0  0  0  0  0  0  0  0  0  0  0
   10.6168   15.2303   21.0945 C   0  0  0  0  0  0  0  0  0  0  0  0
   11.5849   14.7953   20.2839 C   0  0  0  0  0  0  0  0  0  0  0  0
   11.1795   14.8857   18.8595 C   0  0  0  0  0  0  0  0  0  0  0  0
   10.0045   15.8236   18.9379 C   0  0  0  0  0  0  0  0  0  0  0  0
    9.4421   15.7315   20.3377 C   0  0  2  0  0  0  0  0  0  0  0  0
    8.9231   17.0899   20.7685 C   0  0  0  0  0  0  0  0  0  0  0  0
    7.5256   12.4960   25.3785 C   0  0  0  0  0  0  0  0  0  0  0  0
  2  1  1  1
  2  3  1  0
  3  4  1  0
  4  5  1  0
  5  6  1  0
  5  7  1  0
  7  8  1  1
  8  9  1  0
  9 10  1  0
 10 11  2  0
 10 12  1  0
 12 13  2  0
 13 14  1  0
 14 15  1  0
 15 16  1  0
 16 17  1  1
  7 18  1  0
 18  2  1  0
 16 12  1  0
M  END
>  <energy_score>  (417) 
-17.324101

>  <inchikey>  (417) 
None

>  <smiles>  (417) 
None

>  <ref_pdb>  (417) 
A3436a

>  <alias>  (417) 
None

>  <HIPPO Pose ID>  (417) 
498519

>  <name>  (417) 
P498519

>  <HIPPO Compound ID>  (417) 
293310

>  <ref_mols>  (417) 
A3436a,A4320a

>  <distance_score>  (417) 
1.764417

>  <inspiration_score>  (417) 
None

$$$$
P498520
     RDKit          3D

 18 20  0  0  0  0  0  0  0  0999 V2000
   10.1859    9.0532   23.4749 C   0  0  0  0  0  0  0  0  0  0  0  0
    9.3408    9.8642   24.3668 N   0  0  0  0  0  0  0  0  0  0  0  0
    8.1470    9.0989   24.5564 C   0  0  0  0  0  0  0  0  0  0  0  0
    7.1047    9.7685   25.4401 C   0  0  0  0  0  0  0  0  0  0  0  0
    7.1969   11.2592   25.6196 C   0  0  0  0  0  0  0  0  0  0  0  0
    7.9254   11.9883   24.5312 C   0  0  0  0  0  0  0  0  0  0  0  0
    9.0956   11.2143   23.8824 C   0  0  1  0  0  0  0  0  0  0  0  0
   10.3094   12.1147   24.0191 C   0  0  0  0  0  0  0  0  0  0  0  0
   10.1299   13.1962   23.1454 N   0  0  0  0  0  0  0  0  0  0  0  0
   10.7298   14.5753   23.1597 C   0  0  0  0  0  0  0  0  0  0  0  0
   11.4158   15.0853   23.9337 O   0  0  0  0  0  0  0  0  0  0  0  0
   10.1457   15.1751   21.9744 C   0  0  0  0  0  0  0  0  0  0  0  0
    8.8432   15.2592   21.6384 C   0  0  0  0  0  0  0  0  0  0  0  0
    8.7949   16.1395   20.4223 C   0  0  2  0  0  0  0  0  0  0  0  0
    9.5122   15.4777   19.2608 C   0  0  0  0  0  0  0  0  0  0  0  0
   10.7889   15.2548   19.6258 C   0  0  0  0  0  0  0  0  0  0  0  0
   10.9425   15.9113   20.9828 C   0  0  1  0  0  0  0  0  0  0  0  0
    9.9398   17.0532   20.7304 C   0  0  0  0  0  0  0  0  0  0  0  0
  1  2  1  0
  2  3  1  0
  3  4  1  0
  4  5  1  0
  5  6  1  0
  6  7  1  0
  7  8  1  1
  8  9  1  0
  9 10  1  0
 10 11  2  0
 10 12  1  0
 12 13  2  0
 14 13  1  1
 14 15  1  0
 15 16  2  0
 17 16  1  6
 17 18  1  0
  7  2  1  0
 17 12  1  0
 18 14  1  0
M  END
>  <energy_score>  (418) 
-13.497912

>  <inchikey>  (418) 
None

>  <smiles>  (418) 
None

>  <ref_pdb>  (418) 
A3436a

>  <alias>  (418) 
None

>  <HIPPO Pose ID>  (418) 
498520

>  <name>  (418) 
P498520

>  <HIPPO Compound ID>  (418) 
293320

>  <ref_mols>  (418) 
A4320a,A3436a

>  <distance_score>  (418) 
1.606669

>  <inspiration_score>  (418) 
None

$$$$
P498521
     RDKit          3D

 18 19  0  0  0  0  0  0  0  0999 V2000
    9.2955    8.4933   23.2496 C   0  0  0  0  0  0  0  0  0  0  0  0
    9.6592    9.9556   23.4031 C   0  0  0  0  0  0  0  0  0  0  0  0
    8.6603   10.8585   23.9765 N   0  0  0  0  0  0  0  0  0  0  0  0
    7.9032   10.2544   25.0707 C   0  0  0  0  0  0  0  0  0  0  0  0
    6.8990   11.1684   25.7662 C   0  0  0  0  0  0  0  0  0  0  0  0
    7.0604   12.6782   25.5718 C   0  0  0  0  0  0  0  0  0  0  0  0
    8.0691   13.1131   24.5086 C   0  0  0  0  0  0  0  0  0  0  0  0
    9.2179   12.1213   24.5032 C   0  0  2  0  0  0  0  0  0  0  0  0
   10.5831   12.6701   24.0943 C   0  0  0  0  0  0  0  0  0  0  0  0
   10.6716   13.4084   22.9025 N   0  0  0  0  0  0  0  0  0  0  0  0
   11.3572   14.7344   22.6101 C   0  0  0  0  0  0  0  0  0  0  0  0
   12.0242   15.3971   23.2816 O   0  0  0  0  0  0  0  0  0  0  0  0
   10.9320   15.1239   21.2754 C   0  0  0  0  0  0  0  0  0  0  0  0
   11.6014   14.7155   20.1911 C   0  0  0  0  0  0  0  0  0  0  0  0
   11.0166   14.9658   18.8396 C   0  0  0  0  0  0  0  0  0  0  0  0
    9.7347   15.7896   18.9288 C   0  0  0  0  0  0  0  0  0  0  0  0
    8.9474   15.4232   20.0590 O   0  0  0  0  0  0  0  0  0  0  0  0
    9.6191   15.8159   21.2406 C   0  0  0  0  0  0  0  0  0  0  0  0
  1  2  1  0
  2  3  1  0
  3  4  1  0
  4  5  1  0
  5  6  1  0
  6  7  1  0
  7  8  1  0
  8  9  1  6
  9 10  1  0
 10 11  1  0
 11 12  2  0
 11 13  1  0
 13 14  2  0
 14 15  1  0
 15 16  1  0
 16 17  1  0
 17 18  1  0
  8  3  1  0
 18 13  1  0
M  END
>  <energy_score>  (419) 
-11.900742

>  <inchikey>  (419) 
None

>  <smiles>  (419) 
None

>  <ref_pdb>  (419) 
A3436a

>  <alias>  (419) 
None

>  <HIPPO Pose ID>  (419) 
498521

>  <name>  (419) 
P498521

>  <HIPPO Compound ID>  (419) 
293333

>  <ref_mols>  (419) 
A4320a,A3436a

>  <distance_score>  (419) 
1.980518

>  <inspiration_score>  (419) 
None

$$$$
P498522
     RDKit          3D

 18 19  0  0  0  0  0  0  0  0999 V2000
    9.9563   11.3649   23.0940 C   0  0  0  0  0  0  0  0  0  0  0  0
    8.7277   11.4688   23.8429 N   0  0  0  0  0  0  0  0  0  0  0  0
    8.4122   10.1647   24.4250 C   0  0  0  0  0  0  0  0  0  0  0  0
    7.3155   10.2060   25.4963 C   0  0  0  0  0  0  0  0  0  0  0  0
    6.6805   11.5475   25.8748 C   0  0  1  0  0  0  0  0  0  0  0  0
    6.7354   11.6997   27.3081 O   0  0  0  0  0  0  0  0  0  0  0  0
    7.3165   12.7798   25.2576 C   0  0  0  0  0  0  0  0  0  0  0  0
    8.7637   12.4847   24.9023 C   0  0  2  0  0  0  0  0  0  0  0  0
    9.5971   13.7804   24.8452 C   0  0  0  0  0  0  0  0  0  0  0  0
    9.7901   14.3368   23.5567 N   0  0  0  0  0  0  0  0  0  0  0  0
    8.7775   14.6585   22.4463 C   0  0  0  0  0  0  0  0  0  0  0  0
    7.6363   14.4477   22.3830 O   0  0  0  0  0  0  0  0  0  0  0  0
    9.5636   15.2372   21.3405 C   0  0  0  0  0  0  0  0  0  0  0  0
   10.5937   14.5154   20.8794 C   0  0  0  0  0  0  0  0  0  0  0  0
   11.2815   14.8909   19.6348 C   0  0  0  0  0  0  0  0  0  0  0  0
   10.3915   15.8055   18.8275 C   0  0  0  0  0  0  0  0  0  0  0  0
    9.8577   16.8913   19.5815 O   0  0  0  0  0  0  0  0  0  0  0  0
    9.1042   16.5140   20.7319 C   0  0  0  0  0  0  0  0  0  0  0  0
  1  2  1  0
  2  3  1  0
  3  4  1  0
  4  5  1  0
  5  6  1  1
  5  7  1  0
  7  8  1  0
  8  9  1  6
  9 10  1  0
 10 11  1  0
 11 12  2  0
 11 13  1  0
 13 14  2  0
 14 15  1  0
 15 16  1  0
 16 17  1  0
 17 18  1  0
  8  2  1  0
 18 13  1  0
M  END
>  <energy_score>  (420) 
-2.772713

>  <inchikey>  (420) 
None

>  <smiles>  (420) 
None

>  <ref_pdb>  (420) 
A3436a

>  <alias>  (420) 
None

>  <HIPPO Pose ID>  (420) 
498522

>  <name>  (420) 
P498522

>  <HIPPO Compound ID>  (420) 
293334

>  <ref_mols>  (420) 
A3436a,A4320a

>  <distance_score>  (420) 
1.937491

>  <inspiration_score>  (420) 
None

$$$$
P498523
     RDKit          3D

 18 19  0  0  0  0  0  0  0  0999 V2000
   10.0006   11.3608   23.5771 C   0  0  0  0  0  0  0  0  0  0  0  0
    9.0491   11.3714   24.6928 N   0  0  0  0  0  0  0  0  0  0  0  0
    8.2900   10.1437   24.5910 C   0  0  0  0  0  0  0  0  0  0  0  0
    7.2273   10.0365   25.6543 C   0  0  0  0  0  0  0  0  0  0  0  0
    6.4724   11.2613   26.1065 C   0  0  0  0  0  0  0  0  0  0  0  0
    7.1760   12.5722   25.8553 C   0  0  0  0  0  0  0  0  0  0  0  0
    8.1873   12.5580   24.7116 C   0  0  1  0  0  0  0  0  0  0  0  0
    9.0261   13.8432   24.8065 C   0  0  0  0  0  0  0  0  0  0  0  0
    9.4401   14.1808   23.4855 N   0  0  0  0  0  0  0  0  0  0  0  0
   10.8533   14.4445   22.9115 C   0  0  0  0  0  0  0  0  0  0  0  0
   11.8870   14.5016   23.4467 O   0  0  0  0  0  0  0  0  0  0  0  0
   10.6821   14.7224   21.4476 C   0  0  0  0  0  0  0  0  0  0  0  0
   11.7245   14.4635   20.5294 C   0  0  0  0  0  0  0  0  0  0  0  0
   12.4751   14.2405   19.6750 N   0  0  0  0  0  0  0  0  0  0  0  0
    9.5777   15.3894   21.0756 C   0  0  0  0  0  0  0  0  0  0  0  0
    9.2835   16.0846   19.8443 C   0  0  0  0  0  0  0  0  0  0  0  0
    8.3770   17.3202   19.9633 C   0  0  0  0  0  0  0  0  0  0  0  0
    9.8189   17.4521   19.9011 C   0  0  0  0  0  0  0  0  0  0  0  0
  1  2  1  0
  2  3  1  0
  3  4  1  0
  4  5  1  0
  5  6  1  0
  6  7  1  0
  7  8  1  1
  8  9  1  0
  9 10  1  0
 10 11  2  0
 10 12  1  0
 12 13  1  0
 13 14  3  0
 12 15  2  0
 15 16  1  0
 16 17  1  0
 17 18  1  0
  7  2  1  0
 18 16  1  0
M  END
>  <energy_score>  (421) 
-46.682478

>  <inchikey>  (421) 
None

>  <smiles>  (421) 
None

>  <ref_pdb>  (421) 
A3436a

>  <alias>  (421) 
None

>  <HIPPO Pose ID>  (421) 
498523

>  <name>  (421) 
P498523

>  <HIPPO Compound ID>  (421) 
293335

>  <ref_mols>  (421) 
A4320a,A3436a

>  <distance_score>  (421) 
1.857149

>  <inspiration_score>  (421) 
None

$$$$
P498524
     RDKit          3D

 18 18  0  0  0  0  0  0  0  0999 V2000
   11.1039   14.2653   22.9935 C   0  0  0  0  0  0  0  0  0  0  0  0
    9.7003   13.8599   22.5718 C   0  0  0  0  0  0  0  0  0  0  0  0
    8.7944   13.7673   23.7554 C   0  0  0  0  0  0  0  0  0  0  0  0
    8.3511   12.7184   24.4740 C   0  0  0  0  0  0  0  0  0  0  0  0
    8.5592   11.2180   24.3818 C   0  0  0  0  0  0  0  0  0  0  0  0
    9.5646   10.6378   23.4125 C   0  0  0  0  0  0  0  0  0  0  0  0
    9.5755    9.1129   23.3838 C   0  0  0  0  0  0  0  0  0  0  0  0
    7.6723   13.1508   25.7583 C   0  0  0  0  0  0  0  0  0  0  0  0
    8.1125   13.9869   26.4382 O   0  0  0  0  0  0  0  0  0  0  0  0
    6.4590   12.2346   25.9669 N   0  0  0  0  0  0  0  0  0  0  0  0
    5.5937   12.0874   27.0856 C   0  0  0  0  0  0  0  0  0  0  0  0
    5.3250   13.3625   27.8861 C   0  0  1  0  0  0  0  0  0  0  0  0
    4.9004   14.5577   27.0307 C   0  0  0  0  0  0  0  0  0  0  0  0
    3.5564   14.2931   26.3756 C   0  0  0  0  0  0  0  0  0  0  0  0
    2.5088   13.9387   27.4198 C   0  0  0  0  0  0  0  0  0  0  0  0
    2.9845   12.9620   28.4752 C   0  0  0  0  0  0  0  0  0  0  0  0
    2.2391   12.1598   29.0266 O   0  0  0  0  0  0  0  0  0  0  0  0
    4.2922   13.0618   28.8668 N   0  0  0  0  0  0  0  0  0  0  0  0
  1  2  1  0
  2  3  1  0
  3  4  2  0
  4  5  1  0
  5  6  1  0
  6  7  1  0
  4  8  1  0
  8  9  2  0
  8 10  1  0
 10 11  1  0
 12 11  1  6
 12 13  1  0
 13 14  1  0
 14 15  1  0
 15 16  1  0
 16 17  2  0
 16 18  1  0
 18 12  1  0
M  END
>  <energy_score>  (422) 
-27.275593

>  <inchikey>  (422) 
None

>  <smiles>  (422) 
None

>  <ref_pdb>  (422) 
A3436a

>  <alias>  (422) 
None

>  <HIPPO Pose ID>  (422) 
498524

>  <name>  (422) 
P498524

>  <HIPPO Compound ID>  (422) 
293348

>  <ref_mols>  (422) 
A4320a,A3436a

>  <distance_score>  (422) 
1.33512

>  <inspiration_score>  (422) 
None

$$$$
P498526
     RDKit          3D

 18 19  0  0  0  0  0  0  0  0999 V2000
   10.9291   15.2603   18.6612 C   0  0  0  0  0  0  0  0  0  0  0  0
   10.6765   14.7696   20.0549 C   0  0  1  0  0  0  0  0  0  0  0  0
   11.8990   14.6186   20.9386 C   0  0  0  0  0  0  0  0  0  0  0  0
   11.6013   14.9181   22.4016 C   0  0  0  0  0  0  0  0  0  0  0  0
   10.3176   14.4294   22.9429 N   0  0  0  0  0  0  0  0  0  0  0  0
   10.4913   13.0430   23.3920 C   0  0  0  0  0  0  0  0  0  0  0  0
    9.1856   14.5309   21.9761 C   0  0  1  0  0  0  0  0  0  0  0  0
    7.7497   14.8402   22.4883 C   0  0  0  0  0  0  0  0  0  0  0  0
    7.3131   14.0837   23.6377 N   0  0  0  0  0  0  0  0  0  0  0  0
    7.7771   14.1357   25.1025 C   0  0  0  0  0  0  0  0  0  0  0  0
    8.6371   14.7412   25.6008 O   0  0  0  0  0  0  0  0  0  0  0  0
    6.8889   13.2305   25.8610 C   0  0  0  0  0  0  0  0  0  0  0  0
    5.9196   13.8234   26.5710 C   0  0  0  0  0  0  0  0  0  0  0  0
    5.0078   13.0482   27.4614 C   0  0  0  0  0  0  0  0  0  0  0  0
    5.6046   11.6946   27.8463 C   0  0  0  0  0  0  0  0  0  0  0  0
    6.1235   10.9512   26.6214 C   0  0  0  0  0  0  0  0  0  0  0  0
    7.1418   11.7566   25.8113 C   0  0  0  0  0  0  0  0  0  0  0  0
    9.5242   15.4449   20.7761 C   0  0  0  0  0  0  0  0  0  0  0  0
  2  1  1  6
  2  3  1  0
  3  4  1  0
  4  5  1  0
  5  6  1  0
  5  7  1  0
  7  8  1  1
  8  9  1  0
  9 10  1  0
 10 11  2  0
 10 12  1  0
 12 13  2  0
 13 14  1  0
 14 15  1  0
 15 16  1  0
 16 17  1  0
  7 18  1  0
 18  2  1  0
 17 12  1  0
M  END
>  <energy_score>  (423) 
-3.848681

>  <inchikey>  (423) 
None

>  <smiles>  (423) 
None

>  <ref_pdb>  (423) 
A3436a

>  <alias>  (423) 
None

>  <HIPPO Pose ID>  (423) 
498526

>  <name>  (423) 
P498526

>  <HIPPO Compound ID>  (423) 
293352

>  <ref_mols>  (423) 
A4320a,A3436a

>  <distance_score>  (423) 
1.747766

>  <inspiration_score>  (423) 
None

$$$$
P498529
     RDKit          3D

 24 27  0  0  0  0  0  0  0  0999 V2000
   15.3099   -7.9916   17.7439 C   0  0  0  0  0  0  0  0  0  0  0  0
   16.6045   -7.8974   17.1112 N   0  0  0  0  0  0  0  0  0  0  0  0
   17.7230   -7.3287   17.6460 C   0  0  0  0  0  0  0  0  0  0  0  0
   18.6730   -7.4259   16.6637 C   0  0  0  0  0  0  0  0  0  0  0  0
   19.9927   -6.9605   16.7314 C   0  0  0  0  0  0  0  0  0  0  0  0
   20.6533   -6.2823   17.8904 C   0  0  0  0  0  0  0  0  0  0  0  0
   21.4886   -7.2007   18.6730 N   0  0  0  0  0  0  0  0  0  0  0  0
   21.9151   -6.6594   19.9782 C   0  0  1  0  0  0  0  0  0  0  0  0
   22.8085   -5.4140   19.9168 C   0  0  0  0  0  0  0  0  0  0  0  0
   22.3385   -4.5384   21.0775 C   0  0  0  0  0  0  0  0  0  0  0  0
   20.9190   -4.8637   21.2900 N   0  0  0  0  0  0  0  0  0  0  0  0
   20.0181   -4.1151   20.4905 C   0  0  0  0  0  0  0  0  0  0  0  0
   20.5057   -3.4815   19.3962 N   0  0  0  0  0  0  0  0  0  0  0  0
   19.6352   -2.9849   18.4898 C   0  0  0  0  0  0  0  0  0  0  0  0
   18.2686   -3.0492   18.6317 C   0  0  0  0  0  0  0  0  0  0  0  0
   17.7650   -3.5769   19.8091 C   0  0  0  0  0  0  0  0  0  0  0  0
   18.6376   -4.1186   20.7536 C   0  0  0  0  0  0  0  0  0  0  0  0
   17.9979   -4.7614   22.2256 Cl  0  0  0  0  0  0  0  0  0  0  0  0
   20.7837   -6.3080   20.9857 C   0  0  0  0  0  0  0  0  0  0  0  0
   20.6650   -7.1982   15.5043 C   0  0  0  0  0  0  0  0  0  0  0  0
   20.0740   -7.8406   14.3723 C   0  0  0  0  0  0  0  0  0  0  0  0
   18.7456   -8.3159   14.3543 C   0  0  0  0  0  0  0  0  0  0  0  0
   18.0408   -8.0845   15.5470 C   0  0  0  0  0  0  0  0  0  0  0  0
   16.7732   -8.4005   15.8700 N   0  0  0  0  0  0  0  0  0  0  0  0
  1  2  1  0
  2  3  1  0
  3  4  2  0
  4  5  1  0
  5  6  1  0
  6  7  1  0
  8  7  1  6
  8  9  1  0
  9 10  1  0
 10 11  1  0
 11 12  1  0
 12 13  2  0
 13 14  1  0
 14 15  2  0
 15 16  1  0
 16 17  2  0
 17 18  1  0
 11 19  1  0
  5 20  2  0
 20 21  1  0
 21 22  2  0
 22 23  1  0
 23 24  2  0
 24  2  1  0
 23  4  1  0
 19  8  1  0
 17 12  1  0
M  END
>  <energy_score>  (424) 
-51.795091

>  <inchikey>  (424) 
None

>  <smiles>  (424) 
None

>  <ref_pdb>  (424) 
A1105b

>  <alias>  (424) 
None

>  <HIPPO Pose ID>  (424) 
498529

>  <name>  (424) 
P498529

>  <HIPPO Compound ID>  (424) 
293402

>  <ref_mols>  (424) 
A0497a,A1105b

>  <distance_score>  (424) 
1.070028

>  <inspiration_score>  (424) 
None

$$$$
P498534
     RDKit          3D

 24 27  0  0  0  0  0  0  0  0999 V2000
   13.1407   -4.0633   16.9966 C   0  0  0  0  0  0  0  0  0  0  0  0
   14.4732   -4.1827   17.4440 N   0  0  0  0  0  0  0  0  0  0  0  0
   15.1273   -3.0670   17.7807 N   0  0  0  0  0  0  0  0  0  0  0  0
   16.3149   -3.5155   18.1309 C   0  0  0  0  0  0  0  0  0  0  0  0
   16.3401   -4.9195   18.1289 C   0  0  0  0  0  0  0  0  0  0  0  0
   17.2324   -5.8383   18.6692 C   0  0  0  0  0  0  0  0  0  0  0  0
   18.3495   -5.2085   19.4169 C   0  0  0  0  0  0  0  0  0  0  0  0
   19.0466   -6.0180   20.3891 N   0  0  0  0  0  0  0  0  0  0  0  0
   20.2799   -5.3477   20.8913 C   0  0  2  0  0  0  0  0  0  0  0  0
   20.5518   -3.8701   20.5344 C   0  0  0  0  0  0  0  0  0  0  0  0
   21.2344   -3.8972   19.1503 C   0  0  0  0  0  0  0  0  0  0  0  0
   21.6900   -5.2963   18.9717 N   0  0  0  0  0  0  0  0  0  0  0  0
   21.1349   -5.9843   17.8716 C   0  0  0  0  0  0  0  0  0  0  0  0
   20.5122   -7.1772   18.0867 N   0  0  0  0  0  0  0  0  0  0  0  0
   19.8356   -7.7479   17.0601 C   0  0  0  0  0  0  0  0  0  0  0  0
   19.7689   -7.2174   15.7896 C   0  0  0  0  0  0  0  0  0  0  0  0
   20.4776   -6.0528   15.5438 C   0  0  0  0  0  0  0  0  0  0  0  0
   21.1616   -5.4360   16.5822 C   0  0  0  0  0  0  0  0  0  0  0  0
   21.8123   -4.2877   16.3368 F   0  0  0  0  0  0  0  0  0  0  0  0
   21.5522   -5.9807   20.2695 C   0  0  0  0  0  0  0  0  0  0  0  0
   16.9199   -7.1976   18.5305 C   0  0  0  0  0  0  0  0  0  0  0  0
   15.7368   -7.6120   17.9041 C   0  0  0  0  0  0  0  0  0  0  0  0
   14.7986   -6.6871   17.4465 C   0  0  0  0  0  0  0  0  0  0  0  0
   15.1394   -5.3449   17.6134 C   0  0  0  0  0  0  0  0  0  0  0  0
  1  2  1  0
  2  3  1  0
  3  4  2  0
  4  5  1  0
  5  6  2  0
  6  7  1  0
  7  8  1  0
  9  8  1  6
  9 10  1  0
 10 11  1  0
 11 12  1  0
 12 13  1  0
 13 14  2  0
 14 15  1  0
 15 16  2  0
 16 17  1  0
 17 18  2  0
 18 19  1  0
 12 20  1  0
  6 21  1  0
 21 22  2  0
 22 23  1  0
 23 24  2  0
 24  2  1  0
 24  5  1  0
 20  9  1  0
 18 13  1  0
M  END
>  <energy_score>  (425) 
-11.038141

>  <inchikey>  (425) 
None

>  <smiles>  (425) 
None

>  <ref_pdb>  (425) 
A1105b

>  <alias>  (425) 
None

>  <HIPPO Pose ID>  (425) 
498534

>  <name>  (425) 
P498534

>  <HIPPO Compound ID>  (425) 
293406

>  <ref_mols>  (425) 
A0497a,A1105b

>  <distance_score>  (425) 
1.861127

>  <inspiration_score>  (425) 
None

$$$$
P498536
     RDKit          3D

 25 29  0  0  0  0  0  0  0  0999 V2000
   15.1721   -8.3322   17.3465 C   0  0  0  0  0  0  0  0  0  0  0  0
   16.5676   -8.3044   16.9777 N   0  0  0  0  0  0  0  0  0  0  0  0
   17.6323   -8.4608   17.8121 C   0  0  0  0  0  0  0  0  0  0  0  0
   18.7322   -8.2093   17.0364 C   0  0  0  0  0  0  0  0  0  0  0  0
   20.0676   -8.2119   17.4629 C   0  0  0  0  0  0  0  0  0  0  0  0
   20.5875   -8.6412   18.8146 C   0  0  0  0  0  0  0  0  0  0  0  0
   20.1823   -7.7232   19.8410 N   0  0  0  0  0  0  0  0  0  0  0  0
   21.1007   -6.6369   20.2046 C   0  0  0  0  0  0  0  0  0  0  0  0
   20.5399   -6.2613   21.6135 C   0  0  2  0  0  0  0  0  0  0  0  0
   20.4915   -7.6833   22.1873 C   0  0  0  0  0  0  0  0  0  0  0  0
   19.5485   -8.1693   21.0909 C   0  0  1  0  0  0  0  0  0  0  0  0
   18.3717   -7.1833   21.3607 C   0  0  0  0  0  0  0  0  0  0  0  0
   19.0587   -5.8746   21.5507 N   0  0  0  0  0  0  0  0  0  0  0  0
   18.9416   -4.8553   20.5834 C   0  0  0  0  0  0  0  0  0  0  0  0
   18.2369   -5.0156   19.3853 C   0  0  0  0  0  0  0  0  0  0  0  0
   18.5976   -4.2709   18.2625 C   0  0  0  0  0  0  0  0  0  0  0  0
   19.6259   -3.3581   18.3841 C   0  0  0  0  0  0  0  0  0  0  0  0
   20.5767   -2.7383   16.8830 Br  0  0  0  0  0  0  0  0  0  0  0  0
   20.1085   -3.0842   19.6463 C   0  0  0  0  0  0  0  0  0  0  0  0
   19.7743   -3.7988   20.7441 N   0  0  0  0  0  0  0  0  0  0  0  0
   20.9170   -7.8416   16.3842 C   0  0  0  0  0  0  0  0  0  0  0  0
   20.4711   -7.5961   15.0460 C   0  0  0  0  0  0  0  0  0  0  0  0
   19.1237   -7.6982   14.6491 C   0  0  0  0  0  0  0  0  0  0  0  0
   18.2414   -7.9855   15.7001 C   0  0  0  0  0  0  0  0  0  0  0  0
   16.9060   -8.1430   15.6855 N   0  0  0  0  0  0  0  0  0  0  0  0
  1  2  1  0
  2  3  1  0
  3  4  2  0
  4  5  1  0
  5  6  1  0
  6  7  1  0
  7  8  1  0
  9  8  1  6
  9 10  1  0
 10 11  1  0
 11 12  1  1
 12 13  1  0
 13 14  1  0
 14 15  2  0
 15 16  1  0
 16 17  2  0
 17 18  1  0
 17 19  1  0
 19 20  2  0
  5 21  2  0
 21 22  1  0
 22 23  2  0
 23 24  1  0
 24 25  2  0
 25  2  1  0
 24  4  1  0
 11  7  1  0
 20 14  1  0
 13  9  1  0
M  END
>  <energy_score>  (426) 
-12.044858

>  <inchikey>  (426) 
None

>  <smiles>  (426) 
None

>  <ref_pdb>  (426) 
A1105b

>  <alias>  (426) 
None

>  <HIPPO Pose ID>  (426) 
498536

>  <name>  (426) 
P498536

>  <HIPPO Compound ID>  (426) 
293407

>  <ref_mols>  (426) 
A0497a,A1105b

>  <distance_score>  (426) 
1.348496

>  <inspiration_score>  (426) 
None

$$$$
P498537
     RDKit          3D

 25 28  0  0  0  0  0  0  0  0999 V2000
   15.8990   -7.8430   18.3730 C   0  0  0  0  0  0  0  0  0  0  0  0
   17.0715   -7.8189   17.5316 N   0  0  0  0  0  0  0  0  0  0  0  0
   18.3679   -7.6530   17.9339 C   0  0  0  0  0  0  0  0  0  0  0  0
   19.1036   -7.6794   16.7786 C   0  0  0  0  0  0  0  0  0  0  0  0
   20.4971   -7.5820   16.6600 C   0  0  0  0  0  0  0  0  0  0  0  0
   21.5539   -7.6317   17.7275 C   0  0  0  0  0  0  0  0  0  0  0  0
   21.9431   -6.3823   18.3639 N   0  0  0  0  0  0  0  0  0  0  0  0
   22.2514   -5.2730   17.4431 C   0  0  2  0  0  0  0  0  0  0  0  0
   23.2847   -4.3482   18.0841 C   0  0  0  0  0  0  0  0  0  0  0  0
   22.4754   -3.5784   19.1256 C   0  0  0  0  0  0  0  0  0  0  0  0
   21.1149   -3.4889   18.5593 N   0  0  0  0  0  0  0  0  0  0  0  0
   20.0498   -3.6729   19.4517 C   0  0  0  0  0  0  0  0  0  0  0  0
   20.3390   -4.0493   20.7224 N   0  0  0  0  0  0  0  0  0  0  0  0
   19.3392   -4.2149   21.6128 C   0  0  0  0  0  0  0  0  0  0  0  0
   18.0113   -4.0193   21.3141 C   0  0  0  0  0  0  0  0  0  0  0  0
   17.6957   -3.6351   20.0234 C   0  0  0  0  0  0  0  0  0  0  0  0
   18.7124   -3.4634   19.0896 C   0  0  0  0  0  0  0  0  0  0  0  0
   18.2281   -2.9339   17.5475 Cl  0  0  0  0  0  0  0  0  0  0  0  0
   21.0607   -4.2967   17.3158 C   0  0  0  0  0  0  0  0  0  0  0  0
   20.8660   -7.5858   15.2844 C   0  0  0  0  0  0  0  0  0  0  0  0
   19.9532   -7.7477   14.2003 C   0  0  0  0  0  0  0  0  0  0  0  0
   20.6550   -7.7615   12.4339 Br  0  0  0  0  0  0  0  0  0  0  0  0
   18.5721   -7.9343   14.3646 C   0  0  0  0  0  0  0  0  0  0  0  0
   18.1567   -7.8720   15.7014 C   0  0  0  0  0  0  0  0  0  0  0  0
   16.9219   -8.0117   16.2087 N   0  0  0  0  0  0  0  0  0  0  0  0
  1  2  1  0
  2  3  1  0
  3  4  2  0
  4  5  1  0
  5  6  1  0
  6  7  1  0
  8  7  1  1
  8  9  1  0
  9 10  1  0
 10 11  1  0
 11 12  1  0
 12 13  2  0
 13 14  1  0
 14 15  2  0
 15 16  1  0
 16 17  2  0
 17 18  1  0
 11 19  1  0
  5 20  2  0
 20 21  1  0
 21 22  1  0
 21 23  2  0
 23 24  1  0
 24 25  2  0
 25  2  1  0
 24  4  1  0
 19  8  1  0
 17 12  1  0
M  END
>  <energy_score>  (427) 
-38.776426

>  <inchikey>  (427) 
None

>  <smiles>  (427) 
None

>  <ref_pdb>  (427) 
A1105b

>  <alias>  (427) 
None

>  <HIPPO Pose ID>  (427) 
498537

>  <name>  (427) 
P498537

>  <HIPPO Compound ID>  (427) 
293409

>  <ref_mols>  (427) 
A0497a,A1105b

>  <distance_score>  (427) 
1.241468

>  <inspiration_score>  (427) 
None

$$$$
P498538
     RDKit          3D

 25 28  0  0  0  0  0  0  0  0999 V2000
   18.3479   -7.9191   16.3091 C   0  0  0  0  0  0  0  0  0  0  0  0
   19.3530   -6.8287   16.2420 C   0  0  0  0  0  0  0  0  0  0  0  0
   20.3960   -6.8628   15.3407 C   0  0  0  0  0  0  0  0  0  0  0  0
   21.2905   -5.8015   15.3302 C   0  0  0  0  0  0  0  0  0  0  0  0
   21.1136   -4.7373   16.2081 C   0  0  0  0  0  0  0  0  0  0  0  0
   20.0413   -4.7574   17.0846 C   0  0  0  0  0  0  0  0  0  0  0  0
   19.8483   -3.6874   17.9967 N   0  0  0  0  0  0  0  0  0  0  0  0
   20.6879   -3.8404   19.1999 C   0  0  0  0  0  0  0  0  0  0  0  0
   19.7145   -3.8558   20.3902 C   0  0  0  0  0  0  0  0  0  0  0  0
   18.4181   -4.4310   19.8010 C   0  0  2  0  0  0  0  0  0  0  0  0
   18.6253   -5.8802   19.6899 N   0  0  0  0  0  0  0  0  0  0  0  0
   17.5394   -6.8438   19.6737 C   0  0  0  0  0  0  0  0  0  0  0  0
   16.4315   -6.7873   18.6484 C   0  0  0  0  0  0  0  0  0  0  0  0
   15.7893   -5.6201   18.1570 C   0  0  0  0  0  0  0  0  0  0  0  0
   14.5941   -5.5827   17.3817 C   0  0  0  0  0  0  0  0  0  0  0  0
   13.9013   -3.8841   16.9967 Br  0  0  0  0  0  0  0  0  0  0  0  0
   13.9038   -6.7112   16.9400 C   0  0  0  0  0  0  0  0  0  0  0  0
   14.5009   -7.8940   17.3738 C   0  0  0  0  0  0  0  0  0  0  0  0
   14.1252   -9.1628   17.1354 N   0  0  0  0  0  0  0  0  0  0  0  0
   14.9967   -9.9103   17.8336 N   0  0  0  0  0  0  0  0  0  0  0  0
   14.8465  -11.3457   17.8234 C   0  0  0  0  0  0  0  0  0  0  0  0
   15.9425   -9.2014   18.5076 C   0  0  0  0  0  0  0  0  0  0  0  0
   15.6884   -7.8894   18.2015 C   0  0  0  0  0  0  0  0  0  0  0  0
   18.4448   -3.6340   18.4567 C   0  0  0  0  0  0  0  0  0  0  0  0
   19.1921   -5.8163   17.1103 N   0  0  0  0  0  0  0  0  0  0  0  0
  1  2  1  0
  2  3  2  0
  3  4  1  0
  4  5  2  0
  5  6  1  0
  6  7  1  0
  7  8  1  0
  8  9  1  0
  9 10  1  0
 10 11  1  6
 11 12  1  0
 12 13  1  0
 13 14  2  0
 14 15  1  0
 15 16  1  0
 15 17  2  0
 17 18  1  0
 18 19  2  0
 19 20  1  0
 20 21  1  0
 20 22  1  0
 22 23  2  0
 10 24  1  0
  6 25  2  0
 25  2  1  0
 24  7  1  0
 23 13  1  0
 23 18  1  0
M  END
>  <energy_score>  (428) 
-13.663434

>  <inchikey>  (428) 
None

>  <smiles>  (428) 
None

>  <ref_pdb>  (428) 
A1105b

>  <alias>  (428) 
None

>  <HIPPO Pose ID>  (428) 
498538

>  <name>  (428) 
P498538

>  <HIPPO Compound ID>  (428) 
293410

>  <ref_mols>  (428) 
A0497a,A1105b

>  <distance_score>  (428) 
1.993938

>  <inspiration_score>  (428) 
None

$$$$
P498539
     RDKit          3D

 25 28  0  0  0  0  0  0  0  0999 V2000
   19.3051   -9.1942   17.4140 C   0  0  0  0  0  0  0  0  0  0  0  0
   19.7976   -7.8085   17.1301 C   0  0  0  0  0  0  0  0  0  0  0  0
   19.9064   -7.3748   15.8225 C   0  0  0  0  0  0  0  0  0  0  0  0
   20.5693   -6.1840   15.5886 C   0  0  0  0  0  0  0  0  0  0  0  0
   21.0665   -5.4517   16.6620 C   0  0  0  0  0  0  0  0  0  0  0  0
   20.8342   -5.8779   17.9690 C   0  0  0  0  0  0  0  0  0  0  0  0
   21.1852   -5.0862   19.0829 N   0  0  0  0  0  0  0  0  0  0  0  0
   20.9422   -3.6264   18.9310 C   0  0  0  0  0  0  0  0  0  0  0  0
   19.9589   -3.2475   20.0454 C   0  0  0  0  0  0  0  0  0  0  0  0
   19.2809   -4.5637   20.4309 C   0  0  1  0  0  0  0  0  0  0  0  0
   18.2081   -5.1059   19.5760 N   0  0  0  0  0  0  0  0  0  0  0  0
   17.4385   -4.1658   18.7950 C   0  0  1  0  0  0  0  0  0  0  0  0
   18.2319   -3.5719   17.7928 O   0  0  0  0  0  0  0  0  0  0  0  0
   16.2159   -4.7679   18.1476 C   0  0  0  0  0  0  0  0  0  0  0  0
   15.1806   -3.8726   17.7567 C   0  0  0  0  0  0  0  0  0  0  0  0
   13.9584   -4.2527   17.1531 C   0  0  0  0  0  0  0  0  0  0  0  0
   13.6274   -5.5860   16.8847 C   0  0  0  0  0  0  0  0  0  0  0  0
   14.5889   -6.5210   17.2737 C   0  0  0  0  0  0  0  0  0  0  0  0
   14.5522   -7.8601   17.1648 N   0  0  0  0  0  0  0  0  0  0  0  0
   15.6434   -8.2673   17.8334 N   0  0  0  0  0  0  0  0  0  0  0  0
   15.7972   -9.6722   18.1192 C   0  0  0  0  0  0  0  0  0  0  0  0
   16.4765   -7.2577   18.2173 C   0  0  0  0  0  0  0  0  0  0  0  0
   15.8343   -6.0973   17.8729 C   0  0  0  0  0  0  0  0  0  0  0  0
   20.5257   -5.4940   20.3482 C   0  0  0  0  0  0  0  0  0  0  0  0
   20.2355   -7.0764   18.1833 N   0  0  0  0  0  0  0  0  0  0  0  0
  1  2  1  0
  2  3  2  0
  3  4  1  0
  4  5  2  0
  5  6  1  0
  6  7  1  0
  7  8  1  0
  8  9  1  0
  9 10  1  0
 10 11  1  6
 11 12  1  0
 12 13  1  6
 12 14  1  0
 14 15  2  0
 15 16  1  0
 16 17  2  0
 17 18  1  0
 18 19  2  0
 19 20  1  0
 20 21  1  0
 20 22  1  0
 22 23  2  0
 10 24  1  0
  6 25  2  0
 25  2  1  0
 24  7  1  0
 23 14  1  0
 23 18  1  0
M  END
>  <energy_score>  (429) 
-25.722664

>  <inchikey>  (429) 
None

>  <smiles>  (429) 
None

>  <ref_pdb>  (429) 
A1105b

>  <alias>  (429) 
None

>  <HIPPO Pose ID>  (429) 
498539

>  <name>  (429) 
P498539

>  <HIPPO Compound ID>  (429) 
293411

>  <ref_mols>  (429) 
A0497a,A1105b

>  <distance_score>  (429) 
1.191765

>  <inspiration_score>  (429) 
None

$$$$
P498544
     RDKit          3D

 25 28  0  0  0  0  0  0  0  0999 V2000
   15.4726   -8.9464   17.3340 C   0  0  0  0  0  0  0  0  0  0  0  0
   16.7844   -8.7679   16.7598 N   0  0  0  0  0  0  0  0  0  0  0  0
   17.9713   -8.7453   17.4320 C   0  0  0  0  0  0  0  0  0  0  0  0
   18.8956   -8.3552   16.4992 C   0  0  0  0  0  0  0  0  0  0  0  0
   20.2513   -8.0843   16.7334 C   0  0  0  0  0  0  0  0  0  0  0  0
   20.9755   -8.2423   18.0425 C   0  0  1  0  0  0  0  0  0  0  0  0
   22.3627   -8.4496   17.8483 O   0  0  0  0  0  0  0  0  0  0  0  0
   20.7878   -7.0731   18.8543 N   0  0  0  0  0  0  0  0  0  0  0  0
   21.1076   -7.2463   20.2752 C   0  0  2  0  0  0  0  0  0  0  0  0
   20.0368   -8.0346   21.0321 C   0  0  0  0  0  0  0  0  0  0  0  0
   18.8870   -7.0352   21.1978 C   0  0  0  0  0  0  0  0  0  0  0  0
   19.5176   -5.7198   21.1781 N   0  0  0  0  0  0  0  0  0  0  0  0
   19.0663   -4.5949   20.5139 C   0  0  0  0  0  0  0  0  0  0  0  0
   19.6065   -3.4526   21.0228 N   0  0  0  0  0  0  0  0  0  0  0  0
   19.3162   -2.2670   20.4553 C   0  0  0  0  0  0  0  0  0  0  0  0
   18.4805   -2.1220   19.3763 C   0  0  0  0  0  0  0  0  0  0  0  0
   17.9172   -3.2634   18.8428 C   0  0  0  0  0  0  0  0  0  0  0  0
   18.2089   -4.5112   19.4014 C   0  0  0  0  0  0  0  0  0  0  0  0
   17.5062   -5.8105   18.5307 Cl  0  0  0  0  0  0  0  0  0  0  0  0
   20.9769   -5.8889   21.0023 C   0  0  0  0  0  0  0  0  0  0  0  0
   20.8664   -7.6290   15.5341 C   0  0  0  0  0  0  0  0  0  0  0  0
   20.2182   -7.5767   14.2621 C   0  0  0  0  0  0  0  0  0  0  0  0
   18.8714   -7.9416   14.0642 C   0  0  0  0  0  0  0  0  0  0  0  0
   18.1964   -8.2913   15.2418 C   0  0  0  0  0  0  0  0  0  0  0  0
   16.9077   -8.6306   15.4246 N   0  0  0  0  0  0  0  0  0  0  0  0
  1  2  1  0
  2  3  1  0
  3  4  2  0
  4  5  1  0
  5  6  1  0
  6  7  1  6
  6  8  1  0
  9  8  1  6
  9 10  1  0
 10 11  1  0
 11 12  1  0
 12 13  1  0
 13 14  2  0
 14 15  1  0
 15 16  2  0
 16 17  1  0
 17 18  2  0
 18 19  1  0
 12 20  1  0
  5 21  2  0
 21 22  1  0
 22 23  2  0
 23 24  1  0
 24 25  2  0
 25  2  1  0
 24  4  1  0
 20  9  1  0
 18 13  1  0
M  END
>  <energy_score>  (430) 
-33.636812

>  <inchikey>  (430) 
None

>  <smiles>  (430) 
None

>  <ref_pdb>  (430) 
A1105b

>  <alias>  (430) 
None

>  <HIPPO Pose ID>  (430) 
498544

>  <name>  (430) 
P498544

>  <HIPPO Compound ID>  (430) 
293412

>  <ref_mols>  (430) 
A0497a,A1105b

>  <distance_score>  (430) 
1.411076

>  <inspiration_score>  (430) 
None

$$$$
P498546
     RDKit          3D

 25 28  0  0  0  0  0  0  0  0999 V2000
   15.5861   -8.0928   17.9554 C   0  0  0  0  0  0  0  0  0  0  0  0
   16.8630   -8.0552   17.2815 N   0  0  0  0  0  0  0  0  0  0  0  0
   18.0904   -7.9484   17.8683 C   0  0  0  0  0  0  0  0  0  0  0  0
   18.9784   -7.8439   16.8303 C   0  0  0  0  0  0  0  0  0  0  0  0
   20.3737   -7.6976   16.9248 C   0  0  0  0  0  0  0  0  0  0  0  0
   21.2436   -7.7426   18.1620 C   0  0  2  0  0  0  0  0  0  0  0  0
   20.9578   -8.9175   18.9031 O   0  0  0  0  0  0  0  0  0  0  0  0
   21.0790   -6.5501   18.9556 N   0  0  0  0  0  0  0  0  0  0  0  0
   21.5858   -6.6117   20.3364 C   0  0  2  0  0  0  0  0  0  0  0  0
   20.6036   -7.2888   21.3177 C   0  0  0  0  0  0  0  0  0  0  0  0
   19.9960   -6.1741   22.1766 C   0  0  0  0  0  0  0  0  0  0  0  0
   20.3668   -4.9177   21.5303 N   0  0  0  0  0  0  0  0  0  0  0  0
   19.5284   -4.3245   20.5725 C   0  0  0  0  0  0  0  0  0  0  0  0
   19.9774   -3.1575   20.0519 N   0  0  0  0  0  0  0  0  0  0  0  0
   19.3717   -2.6583   18.9513 C   0  0  0  0  0  0  0  0  0  0  0  0
   18.2789   -3.2367   18.3400 C   0  0  0  0  0  0  0  0  0  0  0  0
   17.7502   -4.3750   18.9178 C   0  0  0  0  0  0  0  0  0  0  0  0
   18.3679   -4.9128   20.0450 C   0  0  0  0  0  0  0  0  0  0  0  0
   17.8930   -6.0787   20.5095 F   0  0  0  0  0  0  0  0  0  0  0  0
   21.6985   -5.1787   20.9282 C   0  0  0  0  0  0  0  0  0  0  0  0
   20.9341   -7.5657   15.6240 C   0  0  0  0  0  0  0  0  0  0  0  0
   20.1939   -7.6640   14.4054 C   0  0  0  0  0  0  0  0  0  0  0  0
   18.8059   -7.8993   14.3603 C   0  0  0  0  0  0  0  0  0  0  0  0
   18.1961   -7.9594   15.6221 C   0  0  0  0  0  0  0  0  0  0  0  0
   16.9042   -8.1565   15.9392 N   0  0  0  0  0  0  0  0  0  0  0  0
  1  2  1  0
  2  3  1  0
  3  4  2  0
  4  5  1  0
  5  6  1  0
  6  7  1  1
  6  8  1  0
  9  8  1  6
  9 10  1  0
 10 11  1  0
 11 12  1  0
 12 13  1  0
 13 14  2  0
 14 15  1  0
 15 16  2  0
 16 17  1  0
 17 18  2  0
 18 19  1  0
 12 20  1  0
  5 21  2  0
 21 22  1  0
 22 23  2  0
 23 24  1  0
 24 25  2  0
 25  2  1  0
 24  4  1  0
 20  9  1  0
 18 13  1  0
M  END
>  <energy_score>  (431) 
-36.837213

>  <inchikey>  (431) 
None

>  <smiles>  (431) 
None

>  <ref_pdb>  (431) 
A1105b

>  <alias>  (431) 
None

>  <HIPPO Pose ID>  (431) 
498546

>  <name>  (431) 
P498546

>  <HIPPO Compound ID>  (431) 
293413

>  <ref_mols>  (431) 
A0497a,A1105b

>  <distance_score>  (431) 
0.922575

>  <inspiration_score>  (431) 
None

$$$$
P498550
     RDKit          3D

 25 28  0  0  0  0  0  0  0  0999 V2000
   15.6838   -7.5207   18.0421 C   0  0  0  0  0  0  0  0  0  0  0  0
   16.8777   -7.6049   17.2346 N   0  0  0  0  0  0  0  0  0  0  0  0
   18.1042   -7.0905   17.5510 C   0  0  0  0  0  0  0  0  0  0  0  0
   18.8881   -7.3452   16.4563 C   0  0  0  0  0  0  0  0  0  0  0  0
   20.2310   -6.9871   16.2749 C   0  0  0  0  0  0  0  0  0  0  0  0
   21.1656   -6.2990   17.2271 C   0  0  0  0  0  0  0  0  0  0  0  0
   21.7241   -5.1086   16.5910 N   0  0  0  0  0  0  0  0  0  0  0  0
   22.6844   -4.3530   17.4197 C   0  0  1  0  0  0  0  0  0  0  0  0
   22.7314   -2.9096   16.9017 C   0  0  0  0  0  0  0  0  0  0  0  0
   21.4483   -2.3007   17.4891 C   0  0  0  0  0  0  0  0  0  0  0  0
   21.2788   -3.0084   18.7580 N   0  0  0  0  0  0  0  0  0  0  0  0
   20.0727   -3.2594   19.3750 C   0  0  0  0  0  0  0  0  0  0  0  0
   20.1630   -3.8269   20.6085 N   0  0  0  0  0  0  0  0  0  0  0  0
   19.0413   -4.0330   21.3214 C   0  0  0  0  0  0  0  0  0  0  0  0
   17.7829   -3.7325   20.8540 C   0  0  0  0  0  0  0  0  0  0  0  0
   17.6619   -3.2165   19.5735 C   0  0  0  0  0  0  0  0  0  0  0  0
   18.8148   -2.9573   18.8424 C   0  0  0  0  0  0  0  0  0  0  0  0
   18.6675   -2.4108   17.6307 F   0  0  0  0  0  0  0  0  0  0  0  0
   22.2846   -4.0684   18.8855 C   0  0  0  0  0  0  0  0  0  0  0  0
   20.6694   -7.3724   14.9780 C   0  0  0  0  0  0  0  0  0  0  0  0
   19.8552   -8.0382   14.0162 C   0  0  0  0  0  0  0  0  0  0  0  0
   20.6199   -8.4495   12.3254 Br  0  0  0  0  0  0  0  0  0  0  0  0
   18.5205   -8.4140   14.2437 C   0  0  0  0  0  0  0  0  0  0  0  0
   18.0442   -8.0386   15.5079 C   0  0  0  0  0  0  0  0  0  0  0  0
   16.8298   -8.2389   16.0465 N   0  0  0  0  0  0  0  0  0  0  0  0
  1  2  1  0
  2  3  1  0
  3  4  2  0
  4  5  1  0
  5  6  1  0
  6  7  1  0
  8  7  1  6
  8  9  1  0
  9 10  1  0
 10 11  1  0
 11 12  1  0
 12 13  2  0
 13 14  1  0
 14 15  2  0
 15 16  1  0
 16 17  2  0
 17 18  1  0
 11 19  1  0
  5 20  2  0
 20 21  1  0
 21 22  1  0
 21 23  2  0
 23 24  1  0
 24 25  2  0
 25  2  1  0
 24  4  1  0
 19  8  1  0
 17 12  1  0
M  END
>  <energy_score>  (432) 
-38.952326

>  <inchikey>  (432) 
None

>  <smiles>  (432) 
None

>  <ref_pdb>  (432) 
A1105b

>  <alias>  (432) 
None

>  <HIPPO Pose ID>  (432) 
498550

>  <name>  (432) 
P498550

>  <HIPPO Compound ID>  (432) 
293414

>  <ref_mols>  (432) 
A0497a,A1105b

>  <distance_score>  (432) 
1.116072

>  <inspiration_score>  (432) 
None

$$$$
P498551
     RDKit          3D

 25 28  0  0  0  0  0  0  0  0999 V2000
   13.0392   -3.9860   17.1750 C   0  0  0  0  0  0  0  0  0  0  0  0
   14.3036   -4.0922   17.7813 N   0  0  0  0  0  0  0  0  0  0  0  0
   14.8893   -3.0005   18.2820 N   0  0  0  0  0  0  0  0  0  0  0  0
   16.1288   -3.4061   18.4766 C   0  0  0  0  0  0  0  0  0  0  0  0
   16.2667   -4.7656   18.1444 C   0  0  0  0  0  0  0  0  0  0  0  0
   17.3238   -5.6498   18.1727 C   0  0  0  0  0  0  0  0  0  0  0  0
   18.6813   -5.1189   18.4476 C   0  0  1  0  0  0  0  0  0  0  0  0
   18.8169   -3.8259   17.8801 O   0  0  0  0  0  0  0  0  0  0  0  0
   18.9958   -5.1032   19.8621 N   0  0  0  0  0  0  0  0  0  0  0  0
   20.4435   -4.9530   20.1482 C   0  0  2  0  0  0  0  0  0  0  0  0
   21.1811   -3.8044   19.4613 C   0  0  0  0  0  0  0  0  0  0  0  0
   21.6939   -4.3915   18.1316 C   0  0  0  0  0  0  0  0  0  0  0  0
   21.7742   -5.8620   18.3368 N   0  0  0  0  0  0  0  0  0  0  0  0
   21.2584   -6.7405   17.3680 C   0  0  0  0  0  0  0  0  0  0  0  0
   20.8042   -7.9443   17.8194 N   0  0  0  0  0  0  0  0  0  0  0  0
   20.0543   -8.7244   17.0081 C   0  0  0  0  0  0  0  0  0  0  0  0
   19.7241   -8.3932   15.7136 C   0  0  0  0  0  0  0  0  0  0  0  0
   20.2501   -7.2210   15.2063 C   0  0  0  0  0  0  0  0  0  0  0  0
   21.0360   -6.4067   16.0160 C   0  0  0  0  0  0  0  0  0  0  0  0
   21.4546   -5.2659   15.4564 F   0  0  0  0  0  0  0  0  0  0  0  0
   21.3548   -6.1449   19.7310 C   0  0  0  0  0  0  0  0  0  0  0  0
   17.0464   -7.0099   17.9286 C   0  0  0  0  0  0  0  0  0  0  0  0
   15.7741   -7.4532   17.5692 C   0  0  0  0  0  0  0  0  0  0  0  0
   14.7290   -6.5498   17.4473 C   0  0  0  0  0  0  0  0  0  0  0  0
   15.0317   -5.2228   17.7622 C   0  0  0  0  0  0  0  0  0  0  0  0
  1  2  1  0
  2  3  1  0
  3  4  2  0
  4  5  1  0
  5  6  2  0
  6  7  1  0
  7  8  1  1
  7  9  1  0
 10  9  1  6
 10 11  1  0
 11 12  1  0
 12 13  1  0
 13 14  1  0
 14 15  2  0
 15 16  1  0
 16 17  2  0
 17 18  1  0
 18 19  2  0
 19 20  1  0
 13 21  1  0
  6 22  1  0
 22 23  2  0
 23 24  1  0
 24 25  2  0
 25  2  1  0
 25  5  1  0
 21 10  1  0
 19 14  1  0
M  END
>  <energy_score>  (433) 
-22.37561

>  <inchikey>  (433) 
None

>  <smiles>  (433) 
None

>  <ref_pdb>  (433) 
A1105b

>  <alias>  (433) 
None

>  <HIPPO Pose ID>  (433) 
498551

>  <name>  (433) 
P498551

>  <HIPPO Compound ID>  (433) 
293415

>  <ref_mols>  (433) 
A0497a,A1105b

>  <distance_score>  (433) 
1.804632

>  <inspiration_score>  (433) 
None

$$$$
P498561
     RDKit          3D

 26 29  0  0  0  0  0  0  0  0999 V2000
   18.7115   -3.1190   17.4591 C   0  0  0  0  0  0  0  0  0  0  0  0
   18.2689   -3.0190   18.7878 O   0  0  0  0  0  0  0  0  0  0  0  0
   17.5091   -4.1309   19.2380 C   0  0  2  0  0  0  0  0  0  0  0  0
   18.3511   -5.1861   19.7867 N   0  0  0  0  0  0  0  0  0  0  0  0
   19.5299   -4.6839   20.5192 C   0  0  1  0  0  0  0  0  0  0  0  0
   19.9866   -5.7574   21.4969 C   0  0  0  0  0  0  0  0  0  0  0  0
   20.7682   -6.7652   20.6356 C   0  0  0  0  0  0  0  0  0  0  0  0
   21.2241   -6.0053   19.4449 N   0  0  0  0  0  0  0  0  0  0  0  0
   20.8264   -6.5423   18.2023 C   0  0  0  0  0  0  0  0  0  0  0  0
   21.1306   -5.8794   17.0125 C   0  0  0  0  0  0  0  0  0  0  0  0
   20.5728   -6.3059   15.8114 C   0  0  0  0  0  0  0  0  0  0  0  0
   19.7672   -7.4311   15.7988 C   0  0  0  0  0  0  0  0  0  0  0  0
   19.5820   -8.1129   16.9879 C   0  0  0  0  0  0  0  0  0  0  0  0
   18.8851   -9.4415   16.9878 C   0  0  0  0  0  0  0  0  0  0  0  0
   20.0945   -7.6770   18.1664 N   0  0  0  0  0  0  0  0  0  0  0  0
   20.8186   -4.5945   19.6598 C   0  0  0  0  0  0  0  0  0  0  0  0
   16.3688   -4.6350   18.3227 C   0  0  0  0  0  0  0  0  0  0  0  0
   15.4013   -3.6777   17.9335 C   0  0  0  0  0  0  0  0  0  0  0  0
   14.2143   -4.0211   17.2922 C   0  0  0  0  0  0  0  0  0  0  0  0
   13.9039   -5.3458   17.0304 C   0  0  0  0  0  0  0  0  0  0  0  0
   14.8352   -6.3126   17.4050 C   0  0  0  0  0  0  0  0  0  0  0  0
   16.0501   -5.9961   18.0182 C   0  0  0  0  0  0  0  0  0  0  0  0
   16.5993   -7.2735   18.3028 C   0  0  0  0  0  0  0  0  0  0  0  0
   15.8617   -8.2939   17.8563 N   0  0  0  0  0  0  0  0  0  0  0  0
   14.7780   -7.6825   17.3563 N   0  0  0  0  0  0  0  0  0  0  0  0
   13.6679   -8.4833   16.9016 C   0  0  0  0  0  0  0  0  0  0  0  0
  1  2  1  0
  2  3  1  0
  3  4  1  6
  5  4  1  6
  5  6  1  0
  6  7  1  0
  7  8  1  0
  8  9  1  0
  9 10  2  0
 10 11  1  0
 11 12  2  0
 12 13  1  0
 13 14  1  0
 13 15  2  0
  8 16  1  0
  3 17  1  0
 17 18  2  0
 18 19  1  0
 19 20  2  0
 20 21  1  0
 21 22  2  0
 22 23  1  0
 23 24  2  0
 24 25  1  0
 25 26  1  0
 16  5  1  0
 22 17  1  0
 15  9  1  0
 25 21  1  0
M  END
>  <energy_score>  (434) 
-26.676556

>  <inchikey>  (434) 
None

>  <smiles>  (434) 
None

>  <ref_pdb>  (434) 
A1105b

>  <alias>  (434) 
None

>  <HIPPO Pose ID>  (434) 
498561

>  <name>  (434) 
P498561

>  <HIPPO Compound ID>  (434) 
293419

>  <ref_mols>  (434) 
A0497a,A1105b

>  <distance_score>  (434) 
1.662195

>  <inspiration_score>  (434) 
None

$$$$
P498567
     RDKit          3D

 26 29  0  0  0  0  0  0  0  0999 V2000
   18.7355   -2.8416   17.7649 C   0  0  0  0  0  0  0  0  0  0  0  0
   18.6777   -4.2101   18.0922 O   0  0  0  0  0  0  0  0  0  0  0  0
   17.6653   -4.5525   19.0078 C   0  0  2  0  0  0  0  0  0  0  0  0
   18.1578   -5.6537   19.8207 N   0  0  0  0  0  0  0  0  0  0  0  0
   19.2715   -5.4256   20.7583 C   0  0  2  0  0  0  0  0  0  0  0  0
   20.1786   -4.2032   20.6332 C   0  0  0  0  0  0  0  0  0  0  0  0
   21.2420   -4.5820   19.5920 C   0  0  0  0  0  0  0  0  0  0  0  0
   21.2103   -6.0613   19.4742 N   0  0  0  0  0  0  0  0  0  0  0  0
   20.8262   -6.5029   18.1783 C   0  0  0  0  0  0  0  0  0  0  0  0
   19.7764   -7.3661   18.0896 N   0  0  0  0  0  0  0  0  0  0  0  0
   19.2867   -7.6831   16.8663 C   0  0  0  0  0  0  0  0  0  0  0  0
   19.7803   -7.1832   15.6850 C   0  0  0  0  0  0  0  0  0  0  0  0
   20.9035   -6.3772   15.7523 C   0  0  0  0  0  0  0  0  0  0  0  0
   21.4590   -6.0633   16.9945 C   0  0  0  0  0  0  0  0  0  0  0  0
   22.9489   -5.1753   16.9845 Cl  0  0  0  0  0  0  0  0  0  0  0  0
   20.3468   -6.5445   20.5792 C   0  0  0  0  0  0  0  0  0  0  0  0
   16.3798   -4.9372   18.2480 C   0  0  0  0  0  0  0  0  0  0  0  0
   15.4933   -3.8855   17.9026 C   0  0  0  0  0  0  0  0  0  0  0  0
   14.2580   -4.1081   17.3019 C   0  0  0  0  0  0  0  0  0  0  0  0
   13.8309   -5.3951   17.0148 C   0  0  0  0  0  0  0  0  0  0  0  0
   14.6744   -6.4529   17.3530 C   0  0  0  0  0  0  0  0  0  0  0  0
   15.9168   -6.2586   17.9598 C   0  0  0  0  0  0  0  0  0  0  0  0
   16.3387   -7.5847   18.2374 C   0  0  0  0  0  0  0  0  0  0  0  0
   15.5394   -8.5274   17.7319 N   0  0  0  0  0  0  0  0  0  0  0  0
   14.5104   -7.8119   17.2492 N   0  0  0  0  0  0  0  0  0  0  0  0
   13.3613   -8.5124   16.7314 C   0  0  0  0  0  0  0  0  0  0  0  0
  1  2  1  0
  2  3  1  0
  3  4  1  6
  5  4  1  6
  5  6  1  0
  6  7  1  0
  7  8  1  0
  8  9  1  0
  9 10  2  0
 10 11  1  0
 11 12  2  0
 12 13  1  0
 13 14  2  0
 14 15  1  0
  8 16  1  0
  3 17  1  0
 17 18  2  0
 18 19  1  0
 19 20  2  0
 20 21  1  0
 21 22  2  0
 22 23  1  0
 23 24  2  0
 24 25  1  0
 25 26  1  0
 16  5  1  0
 22 17  1  0
 14  9  1  0
 25 21  1  0
M  END
>  <energy_score>  (435) 
-28.448763

>  <inchikey>  (435) 
None

>  <smiles>  (435) 
None

>  <ref_pdb>  (435) 
A1105b

>  <alias>  (435) 
None

>  <HIPPO Pose ID>  (435) 
498567

>  <name>  (435) 
P498567

>  <HIPPO Compound ID>  (435) 
293420

>  <ref_mols>  (435) 
A0497a,A1105b

>  <distance_score>  (435) 
1.351489

>  <inspiration_score>  (435) 
None

$$$$
P498569
     RDKit          3D

 26 29  0  0  0  0  0  0  0  0999 V2000
   18.9315   -2.9430   17.6749 C   0  0  0  0  0  0  0  0  0  0  0  0
   18.3277   -3.3758   18.8748 O   0  0  0  0  0  0  0  0  0  0  0  0
   17.9710   -4.7495   18.8635 C   0  0  1  0  0  0  0  0  0  0  0  0
   18.0246   -5.1476   20.2681 N   0  0  0  0  0  0  0  0  0  0  0  0
   19.3383   -5.5067   20.8296 C   0  0  2  0  0  0  0  0  0  0  0  0
   20.4766   -4.4955   20.7144 C   0  0  0  0  0  0  0  0  0  0  0  0
   21.2870   -4.9312   19.4901 C   0  0  0  0  0  0  0  0  0  0  0  0
   20.9634   -6.3516   19.2628 N   0  0  0  0  0  0  0  0  0  0  0  0
   20.6800   -6.7491   17.9467 C   0  0  0  0  0  0  0  0  0  0  0  0
   19.7554   -7.7249   17.7624 N   0  0  0  0  0  0  0  0  0  0  0  0
   19.2847   -7.9555   16.5162 C   0  0  0  0  0  0  0  0  0  0  0  0
   19.7312   -7.2967   15.3929 C   0  0  0  0  0  0  0  0  0  0  0  0
   20.7629   -6.3872   15.5497 C   0  0  0  0  0  0  0  0  0  0  0  0
   21.2547   -6.1322   16.8232 C   0  0  0  0  0  0  0  0  0  0  0  0
   22.2489   -5.2379   16.9485 F   0  0  0  0  0  0  0  0  0  0  0  0
   20.0066   -6.7945   20.2920 C   0  0  0  0  0  0  0  0  0  0  0  0
   16.5969   -4.9814   18.2603 C   0  0  0  0  0  0  0  0  0  0  0  0
   15.6653   -3.9404   17.9818 C   0  0  0  0  0  0  0  0  0  0  0  0
   14.3665   -4.1274   17.4115 C   0  0  0  0  0  0  0  0  0  0  0  0
   13.8483   -5.3829   17.0591 C   0  0  0  0  0  0  0  0  0  0  0  0
   14.7034   -6.4495   17.3514 C   0  0  0  0  0  0  0  0  0  0  0  0
   14.5156   -7.7689   17.1595 N   0  0  0  0  0  0  0  0  0  0  0  0
   15.5806   -8.3402   17.7512 N   0  0  0  0  0  0  0  0  0  0  0  0
   15.6369   -9.7770   17.8589 C   0  0  0  0  0  0  0  0  0  0  0  0
   16.5099   -7.4576   18.2101 C   0  0  0  0  0  0  0  0  0  0  0  0
   16.0086   -6.2169   17.9293 C   0  0  0  0  0  0  0  0  0  0  0  0
  1  2  1  0
  2  3  1  0
  3  4  1  1
  5  4  1  6
  5  6  1  0
  6  7  1  0
  7  8  1  0
  8  9  1  0
  9 10  2  0
 10 11  1  0
 11 12  2  0
 12 13  1  0
 13 14  2  0
 14 15  1  0
  8 16  1  0
  3 17  1  0
 17 18  2  0
 18 19  1  0
 19 20  2  0
 20 21  1  0
 21 22  2  0
 22 23  1  0
 23 24  1  0
 23 25  1  0
 25 26  2  0
 16  5  1  0
 26 17  1  0
 14  9  1  0
 26 21  1  0
M  END
>  <energy_score>  (436) 
-57.130803

>  <inchikey>  (436) 
None

>  <smiles>  (436) 
None

>  <ref_pdb>  (436) 
A1105b

>  <alias>  (436) 
None

>  <HIPPO Pose ID>  (436) 
498569

>  <name>  (436) 
P498569

>  <HIPPO Compound ID>  (436) 
293421

>  <ref_mols>  (436) 
A0497a,A1105b

>  <distance_score>  (436) 
1.255151

>  <inspiration_score>  (436) 
None

$$$$
P498575
     RDKit          3D

 26 29  0  0  0  0  0  0  0  0999 V2000
   18.8293   -2.9218   17.7899 C   0  0  0  0  0  0  0  0  0  0  0  0
   18.2776   -3.5055   18.9500 O   0  0  0  0  0  0  0  0  0  0  0  0
   17.9612   -4.8814   18.7999 C   0  0  1  0  0  0  0  0  0  0  0  0
   18.0456   -5.4974   20.1273 N   0  0  0  0  0  0  0  0  0  0  0  0
   19.3634   -5.6610   20.7617 C   0  0  2  0  0  0  0  0  0  0  0  0
   20.4029   -4.5467   20.6845 C   0  0  0  0  0  0  0  0  0  0  0  0
   21.2728   -4.8924   19.4725 C   0  0  0  0  0  0  0  0  0  0  0  0
   21.0567   -6.3260   19.1997 N   0  0  0  0  0  0  0  0  0  0  0  0
   20.7453   -6.7331   17.8986 C   0  0  0  0  0  0  0  0  0  0  0  0
   21.1659   -6.0111   16.7813 C   0  0  0  0  0  0  0  0  0  0  0  0
   20.6635   -6.3153   15.5220 C   0  0  0  0  0  0  0  0  0  0  0  0
   19.8120   -7.3939   15.3755 C   0  0  0  0  0  0  0  0  0  0  0  0
   19.5348   -8.1604   16.4916 C   0  0  0  0  0  0  0  0  0  0  0  0
   18.7971   -9.4546   16.3297 C   0  0  0  0  0  0  0  0  0  0  0  0
   19.9833   -7.8405   17.7296 N   0  0  0  0  0  0  0  0  0  0  0  0
   20.1894   -6.8716   20.2549 C   0  0  0  0  0  0  0  0  0  0  0  0
   16.5758   -5.0801   18.2002 C   0  0  0  0  0  0  0  0  0  0  0  0
   15.6532   -4.0145   17.9808 C   0  0  0  0  0  0  0  0  0  0  0  0
   14.3440   -4.1571   17.4289 C   0  0  0  0  0  0  0  0  0  0  0  0
   13.7986   -5.3907   17.0493 C   0  0  0  0  0  0  0  0  0  0  0  0
   14.6367   -6.4823   17.2924 C   0  0  0  0  0  0  0  0  0  0  0  0
   14.4107   -7.7903   17.0733 N   0  0  0  0  0  0  0  0  0  0  0  0
   15.4818   -8.4030   17.6059 N   0  0  0  0  0  0  0  0  0  0  0  0
   15.4788   -9.8415   17.7096 C   0  0  0  0  0  0  0  0  0  0  0  0
   16.4684   -7.5566   18.0183 C   0  0  0  0  0  0  0  0  0  0  0  0
   15.9638   -6.2964   17.8378 C   0  0  0  0  0  0  0  0  0  0  0  0
  1  2  1  0
  2  3  1  0
  3  4  1  1
  5  4  1  6
  5  6  1  0
  6  7  1  0
  7  8  1  0
  8  9  1  0
  9 10  2  0
 10 11  1  0
 11 12  2  0
 12 13  1  0
 13 14  1  0
 13 15  2  0
  8 16  1  0
  3 17  1  0
 17 18  2  0
 18 19  1  0
 19 20  2  0
 20 21  1  0
 21 22  2  0
 22 23  1  0
 23 24  1  0
 23 25  1  0
 25 26  2  0
 16  5  1  0
 26 17  1  0
 15  9  1  0
 26 21  1  0
M  END
>  <energy_score>  (437) 
-28.655601

>  <inchikey>  (437) 
None

>  <smiles>  (437) 
None

>  <ref_pdb>  (437) 
A1105b

>  <alias>  (437) 
None

>  <HIPPO Pose ID>  (437) 
498575

>  <name>  (437) 
P498575

>  <HIPPO Compound ID>  (437) 
293423

>  <ref_mols>  (437) 
A0497a,A1105b

>  <distance_score>  (437) 
1.420572

>  <inspiration_score>  (437) 
None

$$$$
P498579
     RDKit          3D

 26 29  0  0  0  0  0  0  0  0999 V2000
   18.6644   -2.3623   18.6393 C   0  0  0  0  0  0  0  0  0  0  0  0
   17.7513   -3.2733   19.2188 O   0  0  0  0  0  0  0  0  0  0  0  0
   17.8212   -4.5902   18.6758 C   0  0  1  0  0  0  0  0  0  0  0  0
   18.3139   -5.4919   19.7181 N   0  0  0  0  0  0  0  0  0  0  0  0
   19.5782   -5.0414   20.3349 C   0  0  1  0  0  0  0  0  0  0  0  0
   20.0823   -6.1336   21.2665 C   0  0  0  0  0  0  0  0  0  0  0  0
   20.7802   -7.1384   20.3333 C   0  0  0  0  0  0  0  0  0  0  0  0
   21.2165   -6.3559   19.1550 N   0  0  0  0  0  0  0  0  0  0  0  0
   20.7305   -6.7809   17.8939 C   0  0  0  0  0  0  0  0  0  0  0  0
   19.6611   -7.6155   17.8615 N   0  0  0  0  0  0  0  0  0  0  0  0
   19.0797   -7.8667   16.6655 C   0  0  0  0  0  0  0  0  0  0  0  0
   19.4923   -7.3161   15.4731 C   0  0  0  0  0  0  0  0  0  0  0  0
   20.6156   -6.5060   15.4883 C   0  0  0  0  0  0  0  0  0  0  0  0
   21.2598   -6.2522   16.6955 C   0  0  0  0  0  0  0  0  0  0  0  0
   22.6913   -5.2785   16.6578 Cl  0  0  0  0  0  0  0  0  0  0  0  0
   20.8051   -4.9515   19.3923 C   0  0  0  0  0  0  0  0  0  0  0  0
   16.4408   -4.9817   18.1565 C   0  0  0  0  0  0  0  0  0  0  0  0
   15.4942   -3.9707   17.7966 C   0  0  0  0  0  0  0  0  0  0  0  0
   14.2028   -4.1928   17.2407 C   0  0  0  0  0  0  0  0  0  0  0  0
   13.7069   -5.4695   16.9644 C   0  0  0  0  0  0  0  0  0  0  0  0
   14.5604   -6.5131   17.3302 C   0  0  0  0  0  0  0  0  0  0  0  0
   14.3643   -7.8382   17.2046 N   0  0  0  0  0  0  0  0  0  0  0  0
   15.3986   -8.3817   17.8637 N   0  0  0  0  0  0  0  0  0  0  0  0
   15.4207   -9.8072   18.0810 C   0  0  0  0  0  0  0  0  0  0  0  0
   16.3343   -7.4817   18.2807 C   0  0  0  0  0  0  0  0  0  0  0  0
   15.8649   -6.2487   17.9094 C   0  0  0  0  0  0  0  0  0  0  0  0
  1  2  1  0
  2  3  1  0
  3  4  1  1
  5  4  1  6
  5  6  1  0
  6  7  1  0
  7  8  1  0
  8  9  1  0
  9 10  2  0
 10 11  1  0
 11 12  2  0
 12 13  1  0
 13 14  2  0
 14 15  1  0
  8 16  1  0
  3 17  1  0
 17 18  2  0
 18 19  1  0
 19 20  2  0
 20 21  1  0
 21 22  2  0
 22 23  1  0
 23 24  1  0
 23 25  1  0
 25 26  2  0
 16  5  1  0
 26 17  1  0
 14  9  1  0
 26 21  1  0
M  END
>  <energy_score>  (438) 
-33.479538

>  <inchikey>  (438) 
None

>  <smiles>  (438) 
None

>  <ref_pdb>  (438) 
A1105b

>  <alias>  (438) 
None

>  <HIPPO Pose ID>  (438) 
498579

>  <name>  (438) 
P498579

>  <HIPPO Compound ID>  (438) 
293424

>  <ref_mols>  (438) 
A0497a,A1105b

>  <distance_score>  (438) 
1.281967

>  <inspiration_score>  (438) 
None

$$$$
P498580
     RDKit          3D

 26 29  0  0  0  0  0  0  0  0999 V2000
   18.9616   -8.1659   19.1478 C   0  0  0  0  0  0  0  0  0  0  0  0
   18.7991   -8.3313   17.6762 C   0  0  0  0  0  0  0  0  0  0  0  0
   19.2861   -7.7154   16.5303 C   0  0  0  0  0  0  0  0  0  0  0  0
   20.1661   -6.6105   16.3608 C   0  0  0  0  0  0  0  0  0  0  0  0
   20.7208   -5.5463   17.2936 C   0  0  2  0  0  0  0  0  0  0  0  0
   21.1649   -6.0467   18.5369 O   0  0  0  0  0  0  0  0  0  0  0  0
   19.8909   -4.3510   17.3927 N   0  0  0  0  0  0  0  0  0  0  0  0
   19.1564   -4.1834   18.6501 C   0  0  1  0  0  0  0  0  0  0  0  0
   18.3629   -2.8851   18.6361 C   0  0  0  0  0  0  0  0  0  0  0  0
   17.0181   -3.2637   18.0303 C   0  0  0  0  0  0  0  0  0  0  0  0
   16.7831   -4.6136   18.4810 N   0  0  0  0  0  0  0  0  0  0  0  0
   15.8029   -5.4609   17.9874 C   0  0  0  0  0  0  0  0  0  0  0  0
   15.9876   -6.7897   18.2084 N   0  0  0  0  0  0  0  0  0  0  0  0
   15.0375   -7.6751   17.8269 C   0  0  0  0  0  0  0  0  0  0  0  0
   13.8720   -7.3413   17.1916 C   0  0  0  0  0  0  0  0  0  0  0  0
   13.6647   -6.0037   16.9716 C   0  0  0  0  0  0  0  0  0  0  0  0
   14.6050   -5.0638   17.3880 C   0  0  0  0  0  0  0  0  0  0  0  0
   14.1236   -3.4727   17.0722 Cl  0  0  0  0  0  0  0  0  0  0  0  0
   18.0457   -5.2123   18.8920 C   0  0  0  0  0  0  0  0  0  0  0  0
   20.5200   -6.4698   14.9766 C   0  0  0  0  0  0  0  0  0  0  0  0
   20.0522   -7.2795   13.9079 C   0  0  0  0  0  0  0  0  0  0  0  0
   19.1157   -8.2993   14.0905 C   0  0  0  0  0  0  0  0  0  0  0  0
   18.7454   -8.5101   15.4262 C   0  0  0  0  0  0  0  0  0  0  0  0
   17.9039   -9.4429   15.8844 N   0  0  0  0  0  0  0  0  0  0  0  0
   17.9861   -9.3442   17.2154 N   0  0  0  0  0  0  0  0  0  0  0  0
   17.3813  -10.4019   17.9982 C   0  0  0  0  0  0  0  0  0  0  0  0
  1  2  1  0
  2  3  2  0
  3  4  1  0
  4  5  1  0
  5  6  1  1
  5  7  1  0
  8  7  1  6
  8  9  1  0
  9 10  1  0
 10 11  1  0
 11 12  1  0
 12 13  2  0
 13 14  1  0
 14 15  2  0
 15 16  1  0
 16 17  2  0
 17 18  1  0
 11 19  1  0
  4 20  2  0
 20 21  1  0
 21 22  2  0
 22 23  1  0
 23 24  2  0
 24 25  1  0
 25 26  1  0
 25  2  1  0
 23  3  1  0
 19  8  1  0
 17 12  1  0
M  END
>  <energy_score>  (439) 
-31.447431

>  <inchikey>  (439) 
None

>  <smiles>  (439) 
None

>  <ref_pdb>  (439) 
A1105b

>  <alias>  (439) 
None

>  <HIPPO Pose ID>  (439) 
498580

>  <name>  (439) 
P498580

>  <HIPPO Compound ID>  (439) 
293425

>  <ref_mols>  (439) 
A0497a,A1105b

>  <distance_score>  (439) 
1.649014

>  <inspiration_score>  (439) 
None

$$$$
P498587
     RDKit          3D

 26 29  0  0  0  0  0  0  0  0999 V2000
   18.2036   -8.1930   19.2615 C   0  0  0  0  0  0  0  0  0  0  0  0
   18.1954   -8.2618   17.7812 C   0  0  0  0  0  0  0  0  0  0  0  0
   19.0302   -7.7980   16.7807 C   0  0  0  0  0  0  0  0  0  0  0  0
   20.2623   -7.1006   16.8885 C   0  0  0  0  0  0  0  0  0  0  0  0
   21.0339   -6.6765   18.1222 C   0  0  1  0  0  0  0  0  0  0  0  0
   22.2005   -5.9246   17.8431 O   0  0  0  0  0  0  0  0  0  0  0  0
   20.3015   -5.9891   19.1592 N   0  0  0  0  0  0  0  0  0  0  0  0
   19.7586   -4.6551   18.9195 C   0  0  1  0  0  0  0  0  0  0  0  0
   19.3717   -4.2046   17.5190 C   0  0  0  0  0  0  0  0  0  0  0  0
   18.4051   -3.0682   17.8101 C   0  0  0  0  0  0  0  0  0  0  0  0
   17.5830   -3.5535   18.9331 N   0  0  0  0  0  0  0  0  0  0  0  0
   16.4365   -4.1993   18.3693 C   0  0  0  0  0  0  0  0  0  0  0  0
   16.4352   -5.5060   18.0270 N   0  0  0  0  0  0  0  0  0  0  0  0
   15.3022   -6.0174   17.4784 C   0  0  0  0  0  0  0  0  0  0  0  0
   14.1437   -5.3038   17.2546 C   0  0  0  0  0  0  0  0  0  0  0  0
   14.1427   -3.9735   17.6200 C   0  0  0  0  0  0  0  0  0  0  0  0
   15.2867   -3.4280   18.1892 C   0  0  0  0  0  0  0  0  0  0  0  0
   15.2780   -2.1586   18.6193 F   0  0  0  0  0  0  0  0  0  0  0  0
   18.4500   -4.4426   19.7260 C   0  0  0  0  0  0  0  0  0  0  0  0
   20.8200   -6.9047   15.5828 C   0  0  0  0  0  0  0  0  0  0  0  0
   20.2257   -7.3115   14.3534 C   0  0  0  0  0  0  0  0  0  0  0  0
   18.9950   -7.9772   14.2855 C   0  0  0  0  0  0  0  0  0  0  0  0
   18.4038   -8.2195   15.5337 C   0  0  0  0  0  0  0  0  0  0  0  0
   17.2568   -8.8682   15.7823 N   0  0  0  0  0  0  0  0  0  0  0  0
   17.1761   -8.9069   17.1207 N   0  0  0  0  0  0  0  0  0  0  0  0
   16.0849   -9.6512   17.7139 C   0  0  0  0  0  0  0  0  0  0  0  0
  1  2  1  0
  2  3  2  0
  3  4  1  0
  4  5  1  0
  5  6  1  6
  5  7  1  0
  8  7  1  6
  8  9  1  0
  9 10  1  0
 10 11  1  0
 11 12  1  0
 12 13  2  0
 13 14  1  0
 14 15  2  0
 15 16  1  0
 16 17  2  0
 17 18  1  0
 11 19  1  0
  4 20  2  0
 20 21  1  0
 21 22  2  0
 22 23  1  0
 23 24  2  0
 24 25  1  0
 25 26  1  0
 25  2  1  0
 23  3  1  0
 19  8  1  0
 17 12  1  0
M  END
>  <energy_score>  (440) 
-27.089668

>  <inchikey>  (440) 
None

>  <smiles>  (440) 
None

>  <ref_pdb>  (440) 
A1105b

>  <alias>  (440) 
None

>  <HIPPO Pose ID>  (440) 
498587

>  <name>  (440) 
P498587

>  <HIPPO Compound ID>  (440) 
293427

>  <ref_mols>  (440) 
A0497a,A1105b

>  <distance_score>  (440) 
1.415595

>  <inspiration_score>  (440) 
None

$$$$
P498593
     RDKit          3D

 26 29  0  0  0  0  0  0  0  0999 V2000
   15.5994   -8.4079   17.7055 C   0  0  0  0  0  0  0  0  0  0  0  0
   16.8929   -8.2162   17.0924 N   0  0  0  0  0  0  0  0  0  0  0  0
   18.0775   -8.0070   17.7359 C   0  0  0  0  0  0  0  0  0  0  0  0
   19.0007   -7.7802   16.7481 C   0  0  0  0  0  0  0  0  0  0  0  0
   20.3709   -7.4873   16.9198 C   0  0  0  0  0  0  0  0  0  0  0  0
   21.0991   -7.4541   18.2412 C   0  0  1  0  0  0  0  0  0  0  0  0
   22.1607   -8.3829   18.2229 O   0  0  0  0  0  0  0  0  0  0  0  0
   21.6190   -6.1491   18.5680 N   0  0  0  0  0  0  0  0  0  0  0  0
   22.3140   -5.9948   19.8651 C   0  0  2  0  0  0  0  0  0  0  0  0
   21.7888   -6.7650   21.1014 C   0  0  0  0  0  0  0  0  0  0  0  0
   21.1449   -5.7189   22.0206 C   0  0  0  0  0  0  0  0  0  0  0  0
   20.9772   -4.5263   21.1976 N   0  0  0  0  0  0  0  0  0  0  0  0
   19.8522   -4.2489   20.4176 C   0  0  0  0  0  0  0  0  0  0  0  0
   19.9877   -3.1070   19.6939 N   0  0  0  0  0  0  0  0  0  0  0  0
   19.1276   -2.8257   18.6944 C   0  0  0  0  0  0  0  0  0  0  0  0
   18.0713   -3.6263   18.3505 C   0  0  0  0  0  0  0  0  0  0  0  0
   17.8636   -4.7506   19.1258 C   0  0  0  0  0  0  0  0  0  0  0  0
   18.7189   -5.0535   20.2004 C   0  0  0  0  0  0  0  0  0  0  0  0
   18.3027   -6.4690   21.0996 Cl  0  0  0  0  0  0  0  0  0  0  0  0
   22.2048   -4.5194   20.3519 C   0  0  0  0  0  0  0  0  0  0  0  0
   20.9721   -7.3049   15.6364 C   0  0  0  0  0  0  0  0  0  0  0  0
   22.8231   -6.8306   15.4725 Br  0  0  0  0  0  0  0  0  0  0  0  0
   20.2948   -7.4813   14.3827 C   0  0  0  0  0  0  0  0  0  0  0  0
   18.9401   -7.8462   14.2719 C   0  0  0  0  0  0  0  0  0  0  0  0
   18.2870   -7.9635   15.5040 C   0  0  0  0  0  0  0  0  0  0  0  0
   17.0024   -8.2704   15.7540 N   0  0  0  0  0  0  0  0  0  0  0  0
  1  2  1  0
  2  3  1  0
  3  4  2  0
  4  5  1  0
  5  6  1  0
  6  7  1  6
  6  8  1  0
  9  8  1  6
  9 10  1  0
 10 11  1  0
 11 12  1  0
 12 13  1  0
 13 14  2  0
 14 15  1  0
 15 16  2  0
 16 17  1  0
 17 18  2  0
 18 19  1  0
 12 20  1  0
  5 21  2  0
 21 22  1  0
 21 23  1  0
 23 24  2  0
 24 25  1  0
 25 26  2  0
 26  2  1  0
 25  4  1  0
 20  9  1  0
 18 13  1  0
M  END
>  <energy_score>  (441) 
-45.749129

>  <inchikey>  (441) 
None

>  <smiles>  (441) 
None

>  <ref_pdb>  (441) 
A1105b

>  <alias>  (441) 
None

>  <HIPPO Pose ID>  (441) 
498593

>  <name>  (441) 
P498593

>  <HIPPO Compound ID>  (441) 
293429

>  <ref_mols>  (441) 
A0497a,A1105b

>  <distance_score>  (441) 
1.011193

>  <inspiration_score>  (441) 
None

$$$$
P498602
     RDKit          3D

 26 29  0  0  0  0  0  0  0  0999 V2000
   15.5231   -7.4203   17.8950 C   0  0  0  0  0  0  0  0  0  0  0  0
   16.7492   -7.5198   17.1383 N   0  0  0  0  0  0  0  0  0  0  0  0
   17.9413   -6.9371   17.4621 C   0  0  0  0  0  0  0  0  0  0  0  0
   18.7760   -7.2280   16.4149 C   0  0  0  0  0  0  0  0  0  0  0  0
   20.1150   -6.8278   16.2725 C   0  0  0  0  0  0  0  0  0  0  0  0
   20.9276   -6.0527   17.2663 C   0  0  1  0  0  0  0  0  0  0  0  0
   21.3621   -6.9886   18.2270 O   0  0  0  0  0  0  0  0  0  0  0  0
   22.1300   -5.4391   16.7188 N   0  0  0  0  0  0  0  0  0  0  0  0
   22.5551   -4.2194   17.4372 C   0  0  1  0  0  0  0  0  0  0  0  0
   21.8741   -2.9768   16.8371 C   0  0  0  0  0  0  0  0  0  0  0  0
   21.7535   -2.0174   18.0058 C   0  0  0  0  0  0  0  0  0  0  0  0
   21.5431   -2.8789   19.1588 N   0  0  0  0  0  0  0  0  0  0  0  0
   20.2647   -3.1715   19.6258 C   0  0  0  0  0  0  0  0  0  0  0  0
   20.2326   -3.7188   20.8670 N   0  0  0  0  0  0  0  0  0  0  0  0
   19.0391   -3.9586   21.4411 C   0  0  0  0  0  0  0  0  0  0  0  0
   17.8331   -3.7082   20.8239 C   0  0  0  0  0  0  0  0  0  0  0  0
   17.8428   -3.2195   19.5277 C   0  0  0  0  0  0  0  0  0  0  0  0
   19.0662   -2.9350   18.9338 C   0  0  0  0  0  0  0  0  0  0  0  0
   19.0541   -2.4447   17.6884 F   0  0  0  0  0  0  0  0  0  0  0  0
   22.3613   -4.0871   18.9786 C   0  0  0  0  0  0  0  0  0  0  0  0
   20.6324   -7.3319   15.0480 C   0  0  0  0  0  0  0  0  0  0  0  0
   19.8847   -8.0979   14.1103 C   0  0  0  0  0  0  0  0  0  0  0  0
   20.5097   -8.4905   12.9885 F   0  0  0  0  0  0  0  0  0  0  0  0
   18.5504   -8.4849   14.2879 C   0  0  0  0  0  0  0  0  0  0  0  0
   18.0024   -8.0284   15.4926 C   0  0  0  0  0  0  0  0  0  0  0  0
   16.7725   -8.2337   15.9940 N   0  0  0  0  0  0  0  0  0  0  0  0
  1  2  1  0
  2  3  1  0
  3  4  2  0
  4  5  1  0
  5  6  1  0
  6  7  1  1
  6  8  1  0
  9  8  1  6
  9 10  1  0
 10 11  1  0
 11 12  1  0
 12 13  1  0
 13 14  2  0
 14 15  1  0
 15 16  2  0
 16 17  1  0
 17 18  2  0
 18 19  1  0
 12 20  1  0
  5 21  2  0
 21 22  1  0
 22 23  1  0
 22 24  2  0
 24 25  1  0
 25 26  2  0
 26  2  1  0
 25  4  1  0
 20  9  1  0
 18 13  1  0
M  END
>  <energy_score>  (442) 
-48.424194

>  <inchikey>  (442) 
None

>  <smiles>  (442) 
None

>  <ref_pdb>  (442) 
A1105b

>  <alias>  (442) 
None

>  <HIPPO Pose ID>  (442) 
498602

>  <name>  (442) 
P498602

>  <HIPPO Compound ID>  (442) 
293433

>  <ref_mols>  (442) 
A0497a,A1105b

>  <distance_score>  (442) 
1.085203

>  <inspiration_score>  (442) 
None

$$$$
P498605
     RDKit          3D

 26 29  0  0  0  0  0  0  0  0999 V2000
   20.7437   -9.3870   17.9483 C   0  0  0  0  0  0  0  0  0  0  0  0
   20.5333   -7.9794   17.4781 C   0  0  0  0  0  0  0  0  0  0  0  0
   20.2328   -7.7319   16.1515 C   0  0  0  0  0  0  0  0  0  0  0  0
   20.2887   -6.4243   15.7151 C   0  0  0  0  0  0  0  0  0  0  0  0
   20.5999   -5.4120   16.6189 C   0  0  0  0  0  0  0  0  0  0  0  0
   20.7715   -5.6976   17.9715 C   0  0  0  0  0  0  0  0  0  0  0  0
   20.9492   -4.7247   18.9519 N   0  0  0  0  0  0  0  0  0  0  0  0
   20.8136   -3.2867   18.6821 C   0  0  0  0  0  0  0  0  0  0  0  0
   19.8780   -2.7239   19.7590 C   0  0  0  0  0  0  0  0  0  0  0  0
   19.1805   -3.9310   20.3698 C   0  0  1  0  0  0  0  0  0  0  0  0
   17.8342   -4.3261   19.9290 N   0  0  0  0  0  0  0  0  0  0  0  0
   17.2970   -3.9213   18.6298 C   0  0  1  0  0  0  0  0  0  0  0  0
   18.2686   -3.6850   17.6513 O   0  0  0  0  0  0  0  0  0  0  0  0
   16.2557   -4.8807   18.1001 C   0  0  0  0  0  0  0  0  0  0  0  0
   14.9918   -4.4254   17.6246 C   0  0  0  0  0  0  0  0  0  0  0  0
   13.9670   -5.2718   17.0793 C   0  0  0  0  0  0  0  0  0  0  0  0
   14.0948   -6.6753   16.9337 C   0  0  0  0  0  0  0  0  0  0  0  0
   13.1006   -7.5834   16.3058 C   0  0  0  0  0  0  0  0  0  0  0  0
   15.2932   -7.1603   17.4700 C   0  0  0  0  0  0  0  0  0  0  0  0
   15.6917   -8.4411   17.5768 N   0  0  0  0  0  0  0  0  0  0  0  0
   16.8317   -8.3704   18.2736 N   0  0  0  0  0  0  0  0  0  0  0  0
   17.3981   -9.5876   18.7954 C   0  0  0  0  0  0  0  0  0  0  0  0
   17.2825   -7.1043   18.4798 C   0  0  0  0  0  0  0  0  0  0  0  0
   16.3025   -6.2806   17.9999 C   0  0  0  0  0  0  0  0  0  0  0  0
   20.2554   -5.0329   20.2094 C   0  0  0  0  0  0  0  0  0  0  0  0
   20.7933   -6.9947   18.3723 N   0  0  0  0  0  0  0  0  0  0  0  0
  1  2  1  0
  2  3  2  0
  3  4  1  0
  4  5  2  0
  5  6  1  0
  6  7  1  0
  7  8  1  0
  8  9  1  0
  9 10  1  0
 10 11  1  6
 11 12  1  0
 12 13  1  6
 12 14  1  0
 14 15  2  0
 15 16  1  0
 16 17  2  0
 17 18  1  0
 17 19  1  0
 19 20  2  0
 20 21  1  0
 21 22  1  0
 21 23  1  0
 23 24  2  0
 10 25  1  0
  6 26  2  0
 26  2  1  0
 25  7  1  0
 24 14  1  0
 24 19  1  0
M  END
>  <energy_score>  (443) 
-12.625867

>  <inchikey>  (443) 
None

>  <smiles>  (443) 
None

>  <ref_pdb>  (443) 
A1105b

>  <alias>  (443) 
None

>  <HIPPO Pose ID>  (443) 
498605

>  <name>  (443) 
P498605

>  <HIPPO Compound ID>  (443) 
293434

>  <ref_mols>  (443) 
A0497a,A1105b

>  <distance_score>  (443) 
1.506466

>  <inspiration_score>  (443) 
None

$$$$
P498608
     RDKit          3D

 26 29  0  0  0  0  0  0  0  0999 V2000
   17.9769   -8.6882   12.9378 C   0  0  0  0  0  0  0  0  0  0  0  0
   18.7423   -8.1693   14.1087 C   0  0  0  0  0  0  0  0  0  0  0  0
   20.0966   -7.7839   13.9986 C   0  0  0  0  0  0  0  0  0  0  0  0
   20.8898   -7.3516   15.1029 C   0  0  0  0  0  0  0  0  0  0  0  0
   20.4533   -7.2696   16.4603 C   0  0  0  0  0  0  0  0  0  0  0  0
   21.4817   -6.8675   17.5044 C   0  0  1  0  0  0  0  0  0  0  0  0
   21.9185   -5.5535   17.2246 O   0  0  0  0  0  0  0  0  0  0  0  0
   21.0275   -6.9466   18.8764 N   0  0  0  0  0  0  0  0  0  0  0  0
   22.0582   -6.5951   19.8788 C   0  0  2  0  0  0  0  0  0  0  0  0
   21.6037   -7.1452   21.2480 C   0  0  0  0  0  0  0  0  0  0  0  0
   21.1179   -5.9391   22.0663 C   0  0  0  0  0  0  0  0  0  0  0  0
   21.1069   -4.8008   21.1543 N   0  0  0  0  0  0  0  0  0  0  0  0
   19.9991   -4.2996   20.4751 C   0  0  0  0  0  0  0  0  0  0  0  0
   20.2774   -3.1551   19.7989 N   0  0  0  0  0  0  0  0  0  0  0  0
   19.4432   -2.7146   18.8366 C   0  0  0  0  0  0  0  0  0  0  0  0
   18.2743   -3.3464   18.4995 C   0  0  0  0  0  0  0  0  0  0  0  0
   17.9193   -4.4530   19.2496 C   0  0  0  0  0  0  0  0  0  0  0  0
   18.7508   -4.9157   20.2844 C   0  0  0  0  0  0  0  0  0  0  0  0
   18.2091   -6.3210   21.1301 Cl  0  0  0  0  0  0  0  0  0  0  0  0
   22.2066   -5.0807   20.1915 C   0  0  0  0  0  0  0  0  0  0  0  0
   19.0913   -7.6204   16.5255 C   0  0  0  0  0  0  0  0  0  0  0  0
   18.2946   -7.6916   17.6365 C   0  0  0  0  0  0  0  0  0  0  0  0
   17.0569   -8.0496   17.1913 N   0  0  0  0  0  0  0  0  0  0  0  0
   15.8587   -8.1784   17.9866 C   0  0  0  0  0  0  0  0  0  0  0  0
   17.0085   -8.3350   15.8799 N   0  0  0  0  0  0  0  0  0  0  0  0
   18.2443   -8.0552   15.4235 C   0  0  0  0  0  0  0  0  0  0  0  0
  1  2  1  0
  2  3  2  0
  3  4  1  0
  4  5  2  0
  5  6  1  0
  6  7  1  6
  6  8  1  0
  9  8  1  6
  9 10  1  0
 10 11  1  0
 11 12  1  0
 12 13  1  0
 13 14  2  0
 14 15  1  0
 15 16  2  0
 16 17  1  0
 17 18  2  0
 18 19  1  0
 12 20  1  0
  5 21  1  0
 21 22  2  0
 22 23  1  0
 23 24  1  0
 23 25  1  0
 25 26  2  0
 26  2  1  0
 20  9  1  0
 26 21  1  0
 18 13  1  0
M  END
>  <energy_score>  (444) 
-23.235098

>  <inchikey>  (444) 
None

>  <smiles>  (444) 
None

>  <ref_pdb>  (444) 
A1105b

>  <alias>  (444) 
None

>  <HIPPO Pose ID>  (444) 
498608

>  <name>  (444) 
P498608

>  <HIPPO Compound ID>  (444) 
293435

>  <ref_mols>  (444) 
A0497a,A1105b

>  <distance_score>  (444) 
1.141764

>  <inspiration_score>  (444) 
None

$$$$
P498612
     RDKit          3D

 26 29  0  0  0  0  0  0  0  0999 V2000
   18.2985   -9.6937   13.4411 C   0  0  0  0  0  0  0  0  0  0  0  0
   18.8165   -8.6693   14.3941 C   0  0  0  0  0  0  0  0  0  0  0  0
   20.1053   -8.1004   14.2415 C   0  0  0  0  0  0  0  0  0  0  0  0
   20.6518   -7.1175   15.1205 C   0  0  0  0  0  0  0  0  0  0  0  0
   19.9804   -6.5774   16.2497 C   0  0  0  0  0  0  0  0  0  0  0  0
   20.6075   -5.5343   17.1229 C   0  0  2  0  0  0  0  0  0  0  0  0
   21.0845   -4.4877   16.3015 O   0  0  0  0  0  0  0  0  0  0  0  0
   21.7723   -5.9735   17.8616 N   0  0  0  0  0  0  0  0  0  0  0  0
   21.5856   -6.9781   18.9182 C   0  0  1  0  0  0  0  0  0  0  0  0
   22.6862   -6.7503   19.9580 C   0  0  0  0  0  0  0  0  0  0  0  0
   22.1405   -5.5796   20.7924 C   0  0  0  0  0  0  0  0  0  0  0  0
   20.6683   -5.7409   20.7698 N   0  0  0  0  0  0  0  0  0  0  0  0
   19.9237   -4.5850   20.4390 C   0  0  0  0  0  0  0  0  0  0  0  0
   20.5661   -3.4457   20.0929 N   0  0  0  0  0  0  0  0  0  0  0  0
   19.8440   -2.4209   19.5905 C   0  0  0  0  0  0  0  0  0  0  0  0
   18.4748   -2.4498   19.4305 C   0  0  0  0  0  0  0  0  0  0  0  0
   17.7971   -3.5827   19.8411 C   0  0  0  0  0  0  0  0  0  0  0  0
   18.5225   -4.6420   20.3748 C   0  0  0  0  0  0  0  0  0  0  0  0
   17.8729   -5.7499   20.7657 F   0  0  0  0  0  0  0  0  0  0  0  0
   20.3625   -6.8661   19.8560 C   0  0  0  0  0  0  0  0  0  0  0  0
   18.6969   -7.1369   16.3535 C   0  0  0  0  0  0  0  0  0  0  0  0
   17.7212   -6.7895   17.2501 C   0  0  0  0  0  0  0  0  0  0  0  0
   16.6527   -7.5813   16.9507 N   0  0  0  0  0  0  0  0  0  0  0  0
   15.3639   -7.5512   17.6029 C   0  0  0  0  0  0  0  0  0  0  0  0
   16.8694   -8.4393   15.9350 N   0  0  0  0  0  0  0  0  0  0  0  0
   18.1085   -8.1431   15.4956 C   0  0  0  0  0  0  0  0  0  0  0  0
  1  2  1  0
  2  3  2  0
  3  4  1  0
  4  5  2  0
  5  6  1  0
  6  7  1  6
  6  8  1  0
  9  8  1  6
  9 10  1  0
 10 11  1  0
 11 12  1  0
 12 13  1  0
 13 14  2  0
 14 15  1  0
 15 16  2  0
 16 17  1  0
 17 18  2  0
 18 19  1  0
 12 20  1  0
  5 21  1  0
 21 22  2  0
 22 23  1  0
 23 24  1  0
 23 25  1  0
 25 26  2  0
 26  2  1  0
 20  9  1  0
 26 21  1  0
 18 13  1  0
M  END
>  <energy_score>  (445) 
-37.604537

>  <inchikey>  (445) 
None

>  <smiles>  (445) 
None

>  <ref_pdb>  (445) 
A1105b

>  <alias>  (445) 
None

>  <HIPPO Pose ID>  (445) 
498612

>  <name>  (445) 
P498612

>  <HIPPO Compound ID>  (445) 
293436

>  <ref_mols>  (445) 
A0497a,A1105b

>  <distance_score>  (445) 
1.072815

>  <inspiration_score>  (445) 
None

$$$$
P498626
     RDKit          3D

 26 29  0  0  0  0  0  0  0  0999 V2000
   15.7614   -8.2649   18.0118 C   0  0  0  0  0  0  0  0  0  0  0  0
   16.9781   -8.0793   17.2558 N   0  0  0  0  0  0  0  0  0  0  0  0
   18.1895   -7.6819   17.7451 C   0  0  0  0  0  0  0  0  0  0  0  0
   19.0155   -7.5535   16.6610 C   0  0  0  0  0  0  0  0  0  0  0  0
   20.3593   -7.1266   16.6309 C   0  0  0  0  0  0  0  0  0  0  0  0
   21.3143   -6.6418   17.7105 C   0  0  2  0  0  0  0  0  0  0  0  0
   22.6230   -7.0395   17.3412 O   0  0  0  0  0  0  0  0  0  0  0  0
   21.0831   -7.1827   19.0398 N   0  0  0  0  0  0  0  0  0  0  0  0
   22.0727   -6.7248   20.0533 C   0  0  2  0  0  0  0  0  0  0  0  0
   21.5712   -7.1333   21.4568 C   0  0  0  0  0  0  0  0  0  0  0  0
   21.1077   -5.8371   22.1411 C   0  0  0  0  0  0  0  0  0  0  0  0
   21.1517   -4.8012   21.1150 N   0  0  0  0  0  0  0  0  0  0  0  0
   20.0838   -4.3172   20.3693 C   0  0  0  0  0  0  0  0  0  0  0  0
   20.4270   -3.2559   19.5949 N   0  0  0  0  0  0  0  0  0  0  0  0
   19.5988   -2.8252   18.6214 C   0  0  0  0  0  0  0  0  0  0  0  0
   18.3719   -3.3830   18.3701 C   0  0  0  0  0  0  0  0  0  0  0  0
   17.9642   -4.4103   19.2026 C   0  0  0  0  0  0  0  0  0  0  0  0
   18.7997   -4.8683   20.2360 C   0  0  0  0  0  0  0  0  0  0  0  0
   18.2126   -6.1983   21.1681 Cl  0  0  0  0  0  0  0  0  0  0  0  0
   22.2686   -5.1957   20.2258 C   0  0  0  0  0  0  0  0  0  0  0  0
   20.7974   -7.1112   15.2673 C   0  0  0  0  0  0  0  0  0  0  0  0
   20.0364   -7.5447   14.1465 C   0  0  0  0  0  0  0  0  0  0  0  0
   20.6144   -7.4889   12.9357 F   0  0  0  0  0  0  0  0  0  0  0  0
   18.7268   -8.0221   14.2268 C   0  0  0  0  0  0  0  0  0  0  0  0
   18.2105   -7.9882   15.5262 C   0  0  0  0  0  0  0  0  0  0  0  0
   16.9788   -8.3366   15.9380 N   0  0  0  0  0  0  0  0  0  0  0  0
  1  2  1  0
  2  3  1  0
  3  4  2  0
  4  5  1  0
  5  6  1  0
  6  7  1  6
  6  8  1  0
  9  8  1  6
  9 10  1  0
 10 11  1  0
 11 12  1  0
 12 13  1  0
 13 14  2  0
 14 15  1  0
 15 16  2  0
 16 17  1  0
 17 18  2  0
 18 19  1  0
 12 20  1  0
  5 21  2  0
 21 22  1  0
 22 23  1  0
 22 24  2  0
 24 25  1  0
 25 26  2  0
 26  2  1  0
 25  4  1  0
 20  9  1  0
 18 13  1  0
M  END
>  <energy_score>  (446) 
-39.808898

>  <inchikey>  (446) 
None

>  <smiles>  (446) 
None

>  <ref_pdb>  (446) 
A1105b

>  <alias>  (446) 
None

>  <HIPPO Pose ID>  (446) 
498626

>  <name>  (446) 
P498626

>  <HIPPO Compound ID>  (446) 
293442

>  <ref_mols>  (446) 
A0497a,A1105b

>  <distance_score>  (446) 
0.961311

>  <inspiration_score>  (446) 
None

$$$$
P498631
     RDKit          3D

 26 29  0  0  0  0  0  0  0  0999 V2000
   19.2476   -9.1863   17.3420 C   0  0  0  0  0  0  0  0  0  0  0  0
   19.7693   -7.8059   17.0844 C   0  0  0  0  0  0  0  0  0  0  0  0
   19.8830   -7.3505   15.7846 C   0  0  0  0  0  0  0  0  0  0  0  0
   20.5754   -6.1730   15.5688 C   0  0  0  0  0  0  0  0  0  0  0  0
   21.0968   -5.4737   16.6526 C   0  0  0  0  0  0  0  0  0  0  0  0
   20.8600   -5.9177   17.9527 C   0  0  0  0  0  0  0  0  0  0  0  0
   21.2411   -5.1541   19.0772 N   0  0  0  0  0  0  0  0  0  0  0  0
   21.0028   -3.6907   18.9632 C   0  0  0  0  0  0  0  0  0  0  0  0
   20.0250   -3.3339   20.0901 C   0  0  0  0  0  0  0  0  0  0  0  0
   19.3565   -4.6589   20.4623 C   0  0  1  0  0  0  0  0  0  0  0  0
   18.2715   -5.1884   19.6151 N   0  0  0  0  0  0  0  0  0  0  0  0
   17.5103   -4.2440   18.8354 C   0  0  1  0  0  0  0  0  0  0  0  0
   18.3032   -3.6447   17.8348 O   0  0  0  0  0  0  0  0  0  0  0  0
   16.2913   -4.8423   18.1825 C   0  0  0  0  0  0  0  0  0  0  0  0
   15.2928   -3.9372   17.7459 C   0  0  0  0  0  0  0  0  0  0  0  0
   14.0851   -4.3140   17.1268 C   0  0  0  0  0  0  0  0  0  0  0  0
   13.3236   -3.3273   16.6551 F   0  0  0  0  0  0  0  0  0  0  0  0
   13.6921   -5.6325   16.9006 C   0  0  0  0  0  0  0  0  0  0  0  0
   14.6257   -6.5752   17.3282 C   0  0  0  0  0  0  0  0  0  0  0  0
   14.5630   -7.9151   17.2497 N   0  0  0  0  0  0  0  0  0  0  0  0
   15.6404   -8.3329   17.9343 N   0  0  0  0  0  0  0  0  0  0  0  0
   15.7709   -9.7373   18.2363 C   0  0  0  0  0  0  0  0  0  0  0  0
   16.4881   -7.3328   18.3117 C   0  0  0  0  0  0  0  0  0  0  0  0
   15.8776   -6.1669   17.9330 C   0  0  0  0  0  0  0  0  0  0  0  0
   20.6023   -5.5852   20.3456 C   0  0  0  0  0  0  0  0  0  0  0  0
   20.2285   -7.1027   18.1489 N   0  0  0  0  0  0  0  0  0  0  0  0
  1  2  1  0
  2  3  2  0
  3  4  1  0
  4  5  2  0
  5  6  1  0
  6  7  1  0
  7  8  1  0
  8  9  1  0
  9 10  1  0
 10 11  1  6
 11 12  1  0
 12 13  1  6
 12 14  1  0
 14 15  2  0
 15 16  1  0
 16 17  1  0
 16 18  2  0
 18 19  1  0
 19 20  2  0
 20 21  1  0
 21 22  1  0
 21 23  1  0
 23 24  2  0
 10 25  1  0
  6 26  2  0
 26  2  1  0
 25  7  1  0
 24 14  1  0
 24 19  1  0
M  END
>  <energy_score>  (447) 
-35.981911

>  <inchikey>  (447) 
None

>  <smiles>  (447) 
None

>  <ref_pdb>  (447) 
A1105b

>  <alias>  (447) 
None

>  <HIPPO Pose ID>  (447) 
498631

>  <name>  (447) 
P498631

>  <HIPPO Compound ID>  (447) 
293443

>  <ref_mols>  (447) 
A0497a,A1105b

>  <distance_score>  (447) 
1.204539

>  <inspiration_score>  (447) 
None

$$$$
P498635
     RDKit          3D

 27 30  0  0  0  0  0  0  0  0999 V2000
   19.2637   -9.1960   17.4391 C   0  0  0  0  0  0  0  0  0  0  0  0
   19.7690   -7.8163   17.1479 C   0  0  0  0  0  0  0  0  0  0  0  0
   19.8902   -7.3925   15.8382 C   0  0  0  0  0  0  0  0  0  0  0  0
   20.5627   -6.2075   15.6002 C   0  0  0  0  0  0  0  0  0  0  0  0
   21.0609   -5.4726   16.6715 C   0  0  0  0  0  0  0  0  0  0  0  0
   20.8200   -5.8900   17.9796 C   0  0  0  0  0  0  0  0  0  0  0  0
   21.1767   -5.0985   19.0916 N   0  0  0  0  0  0  0  0  0  0  0  0
   20.9420   -3.6384   18.9385 C   0  0  0  0  0  0  0  0  0  0  0  0
   19.9585   -3.2545   20.0512 C   0  0  0  0  0  0  0  0  0  0  0  0
   19.2743   -4.5678   20.4371 C   0  0  1  0  0  0  0  0  0  0  0  0
   18.2001   -5.1051   19.5797 N   0  0  0  0  0  0  0  0  0  0  0  0
   17.4390   -4.1612   18.7966 C   0  0  1  0  0  0  0  0  0  0  0  0
   18.2350   -3.5686   17.7957 O   0  0  0  0  0  0  0  0  0  0  0  0
   16.2128   -4.7537   18.1469 C   0  0  0  0  0  0  0  0  0  0  0  0
   15.1891   -3.8472   17.7519 C   0  0  0  0  0  0  0  0  0  0  0  0
   13.9643   -4.2126   17.1461 C   0  0  0  0  0  0  0  0  0  0  0  0
   13.6156   -5.5416   16.8854 C   0  0  0  0  0  0  0  0  0  0  0  0
   14.5613   -6.4875   17.2851 C   0  0  0  0  0  0  0  0  0  0  0  0
   14.4934   -7.8260   17.1983 N   0  0  0  0  0  0  0  0  0  0  0  0
   15.5846   -8.2538   17.8765 N   0  0  0  0  0  0  0  0  0  0  0  0
   15.7037   -9.6626   18.2345 C   0  0  0  0  0  0  0  0  0  0  0  0
   16.5655   -9.8558   19.2718 F   0  0  0  0  0  0  0  0  0  0  0  0
   16.1820  -10.4020   17.1960 F   0  0  0  0  0  0  0  0  0  0  0  0
   16.4407   -7.2445   18.2319 C   0  0  0  0  0  0  0  0  0  0  0  0
   15.8141   -6.0791   17.8785 C   0  0  0  0  0  0  0  0  0  0  0  0
   20.5162   -5.5024   20.3577 C   0  0  0  0  0  0  0  0  0  0  0  0
   20.2051   -7.0790   18.1979 N   0  0  0  0  0  0  0  0  0  0  0  0
  1  2  1  0
  2  3  2  0
  3  4  1  0
  4  5  2  0
  5  6  1  0
  6  7  1  0
  7  8  1  0
  8  9  1  0
  9 10  1  0
 10 11  1  6
 11 12  1  0
 12 13  1  6
 12 14  1  0
 14 15  2  0
 15 16  1  0
 16 17  2  0
 17 18  1  0
 18 19  2  0
 19 20  1  0
 20 21  1  0
 21 22  1  0
 21 23  1  0
 20 24  1  0
 24 25  2  0
 10 26  1  0
  6 27  2  0
 27  2  1  0
 26  7  1  0
 25 14  1  0
 25 18  1  0
M  END
>  <energy_score>  (448) 
-50.055743

>  <inchikey>  (448) 
None

>  <smiles>  (448) 
None

>  <ref_pdb>  (448) 
A1105b

>  <alias>  (448) 
None

>  <HIPPO Pose ID>  (448) 
498635

>  <name>  (448) 
P498635

>  <HIPPO Compound ID>  (448) 
293445

>  <ref_mols>  (448) 
A0497a,A1105b

>  <distance_score>  (448) 
1.431659

>  <inspiration_score>  (448) 
None

$$$$
P498637
     RDKit          3D

 27 30  0  0  0  0  0  0  0  0999 V2000
   15.5805   -8.9767   18.0551 O   0  0  0  0  0  0  0  0  0  0  0  0
   16.5263   -8.0689   17.5262 C   0  0  2  0  0  0  0  0  0  0  0  0
   17.7416   -8.3426   18.2582 N   0  0  0  0  0  0  0  0  0  0  0  0
   18.9994   -8.0626   17.5472 C   0  0  2  0  0  0  0  0  0  0  0  0
   19.1091   -6.9520   16.4874 C   0  0  0  0  0  0  0  0  0  0  0  0
   20.1500   -7.4796   15.5160 C   0  0  0  0  0  0  0  0  0  0  0  0
   19.9294   -8.9315   15.4950 N   0  0  0  0  0  0  0  0  0  0  0  0
   18.9839   -9.3783   14.5436 C   0  0  0  0  0  0  0  0  0  0  0  0
   18.2097   -8.4867   13.8880 N   0  0  0  0  0  0  0  0  0  0  0  0
   17.3590   -8.9664   12.9580 C   0  0  0  0  0  0  0  0  0  0  0  0
   17.2063  -10.3070   12.6413 C   0  0  0  0  0  0  0  0  0  0  0  0
   17.9903  -11.2250   13.3185 C   0  0  0  0  0  0  0  0  0  0  0  0
   18.8870  -10.7570   14.2688 C   0  0  0  0  0  0  0  0  0  0  0  0
   19.6558  -11.6466   14.9181 F   0  0  0  0  0  0  0  0  0  0  0  0
   19.4910   -9.3376   16.8396 C   0  0  0  0  0  0  0  0  0  0  0  0
   15.9669   -6.6732   17.6569 C   0  0  0  0  0  0  0  0  0  0  0  0
   14.6464   -6.3873   17.1884 C   0  0  0  0  0  0  0  0  0  0  0  0
   14.0291   -5.1032   17.1935 C   0  0  0  0  0  0  0  0  0  0  0  0
   14.6655   -3.9539   17.6764 C   0  0  0  0  0  0  0  0  0  0  0  0
   15.9492   -4.1742   18.1850 C   0  0  0  0  0  0  0  0  0  0  0  0
   16.7734   -3.3010   18.7912 N   0  0  0  0  0  0  0  0  0  0  0  0
   17.8431   -4.0309   19.1571 N   0  0  0  0  0  0  0  0  0  0  0  0
   18.9670   -3.4237   19.8560 C   0  0  0  0  0  0  0  0  0  0  0  0
   19.1735   -4.0116   21.0636 F   0  0  0  0  0  0  0  0  0  0  0  0
   20.1245   -3.5850   19.1568 F   0  0  0  0  0  0  0  0  0  0  0  0
   17.7274   -5.3570   18.8495 C   0  0  0  0  0  0  0  0  0  0  0  0
   16.5474   -5.4941   18.1629 C   0  0  0  0  0  0  0  0  0  0  0  0
  2  1  1  1
  2  3  1  0
  4  3  1  6
  4  5  1  0
  5  6  1  0
  6  7  1  0
  7  8  1  0
  8  9  2  0
  9 10  1  0
 10 11  2  0
 11 12  1  0
 12 13  2  0
 13 14  1  0
  7 15  1  0
  2 16  1  0
 16 17  2  0
 17 18  1  0
 18 19  2  0
 19 20  1  0
 20 21  2  0
 21 22  1  0
 22 23  1  0
 23 24  1  0
 23 25  1  0
 22 26  1  0
 26 27  2  0
 15  4  1  0
 27 16  1  0
 13  8  1  0
 27 20  1  0
M  END
>  <energy_score>  (449) 
-35.103629

>  <inchikey>  (449) 
None

>  <smiles>  (449) 
None

>  <ref_pdb>  (449) 
A1105b

>  <alias>  (449) 
None

>  <HIPPO Pose ID>  (449) 
498637

>  <name>  (449) 
P498637

>  <HIPPO Compound ID>  (449) 
293446

>  <ref_mols>  (449) 
A0497a,A1105b

>  <distance_score>  (449) 
1.903265

>  <inspiration_score>  (449) 
None

$$$$
P498640
     RDKit          3D

 27 30  0  0  0  0  0  0  0  0999 V2000
   16.9248   -8.4611   18.6201 O   0  0  0  0  0  0  0  0  0  0  0  0
   16.4669   -7.8624   17.4290 C   0  0  2  0  0  0  0  0  0  0  0  0
   17.4857   -7.9581   16.4091 N   0  0  0  0  0  0  0  0  0  0  0  0
   18.7283   -7.1558   16.5234 C   0  0  1  0  0  0  0  0  0  0  0  0
   19.7215   -7.8241   17.4587 C   0  0  0  0  0  0  0  0  0  0  0  0
   20.1869   -9.0197   16.6335 C   0  0  0  0  0  0  0  0  0  0  0  0
   20.1392   -8.5721   15.2175 N   0  0  0  0  0  0  0  0  0  0  0  0
   19.3644   -9.4458   14.4109 C   0  0  0  0  0  0  0  0  0  0  0  0
   18.2191   -8.9711   13.8465 N   0  0  0  0  0  0  0  0  0  0  0  0
   17.4960   -9.7884   13.0616 C   0  0  0  0  0  0  0  0  0  0  0  0
   17.8451  -11.0940   12.7752 C   0  0  0  0  0  0  0  0  0  0  0  0
   19.0208  -11.5862   13.3224 C   0  0  0  0  0  0  0  0  0  0  0  0
   19.7967  -10.7614   14.1399 C   0  0  0  0  0  0  0  0  0  0  0  0
   21.2867  -11.4146   14.7314 Cl  0  0  0  0  0  0  0  0  0  0  0  0
   19.5920   -7.2012   15.2364 C   0  0  0  0  0  0  0  0  0  0  0  0
   15.9420   -6.4862   17.6566 C   0  0  0  0  0  0  0  0  0  0  0  0
   14.6582   -6.0639   17.2081 C   0  0  0  0  0  0  0  0  0  0  0  0
   14.1701   -4.7287   17.3113 C   0  0  0  0  0  0  0  0  0  0  0  0
   14.9269   -3.6837   17.8666 C   0  0  0  0  0  0  0  0  0  0  0  0
   16.1789   -4.0606   18.3580 C   0  0  0  0  0  0  0  0  0  0  0  0
   17.1058   -3.3301   19.0037 N   0  0  0  0  0  0  0  0  0  0  0  0
   18.0661   -4.2197   19.3462 N   0  0  0  0  0  0  0  0  0  0  0  0
   19.2874   -3.7812   20.0043 C   0  0  0  0  0  0  0  0  0  0  0  0
   19.1726   -3.8281   21.3540 F   0  0  0  0  0  0  0  0  0  0  0  0
   20.3435   -4.5804   19.6810 F   0  0  0  0  0  0  0  0  0  0  0  0
   17.7637   -5.5034   19.0034 C   0  0  0  0  0  0  0  0  0  0  0  0
   16.6152   -5.4217   18.2605 C   0  0  0  0  0  0  0  0  0  0  0  0
  2  1  1  1
  2  3  1  0
  4  3  1  6
  4  5  1  0
  5  6  1  0
  6  7  1  0
  7  8  1  0
  8  9  2  0
  9 10  1  0
 10 11  2  0
 11 12  1  0
 12 13  2  0
 13 14  1  0
  7 15  1  0
  2 16  1  0
 16 17  2  0
 17 18  1  0
 18 19  2  0
 19 20  1  0
 20 21  2  0
 21 22  1  0
 22 23  1  0
 23 24  1  0
 23 25  1  0
 22 26  1  0
 26 27  2  0
 15  4  1  0
 27 16  1  0
 13  8  1  0
 27 20  1  0
M  END
>  <energy_score>  (450) 
-39.257906

>  <inchikey>  (450) 
None

>  <smiles>  (450) 
None

>  <ref_pdb>  (450) 
A1105b

>  <alias>  (450) 
None

>  <HIPPO Pose ID>  (450) 
498640

>  <name>  (450) 
P498640

>  <HIPPO Compound ID>  (450) 
293447

>  <ref_mols>  (450) 
A0497a,A1105b

>  <distance_score>  (450) 
1.856287

>  <inspiration_score>  (450) 
None

$$$$
P498645
     RDKit          3D

 27 30  0  0  0  0  0  0  0  0999 V2000
   17.0805   -9.2227   13.0530 C   0  0  0  0  0  0  0  0  0  0  0  0
   18.1015   -8.2353   12.9439 O   0  0  0  0  0  0  0  0  0  0  0  0
   18.7537   -7.9917   14.1384 C   0  0  0  0  0  0  0  0  0  0  0  0
   20.1019   -7.5893   14.0696 C   0  0  0  0  0  0  0  0  0  0  0  0
   20.9188   -7.3735   15.2215 C   0  0  0  0  0  0  0  0  0  0  0  0
   20.4898   -7.5432   16.5674 C   0  0  0  0  0  0  0  0  0  0  0  0
   21.4437   -7.5022   17.7389 C   0  0  1  0  0  0  0  0  0  0  0  0
   22.7289   -7.9159   17.3244 O   0  0  0  0  0  0  0  0  0  0  0  0
   21.5827   -6.1791   18.2956 N   0  0  0  0  0  0  0  0  0  0  0  0
   22.2606   -6.1086   19.6094 C   0  0  2  0  0  0  0  0  0  0  0  0
   21.6268   -6.9546   20.7391 C   0  0  0  0  0  0  0  0  0  0  0  0
   21.1660   -5.9542   21.8027 C   0  0  0  0  0  0  0  0  0  0  0  0
   21.0023   -4.6929   21.0879 N   0  0  0  0  0  0  0  0  0  0  0  0
   19.8612   -4.3312   20.3630 C   0  0  0  0  0  0  0  0  0  0  0  0
   20.0151   -3.1649   19.6855 N   0  0  0  0  0  0  0  0  0  0  0  0
   19.1589   -2.8325   18.6988 C   0  0  0  0  0  0  0  0  0  0  0  0
   18.0770   -3.5940   18.3434 C   0  0  0  0  0  0  0  0  0  0  0  0
   17.8352   -4.7266   19.0976 C   0  0  0  0  0  0  0  0  0  0  0  0
   18.6911   -5.0817   20.1549 C   0  0  0  0  0  0  0  0  0  0  0  0
   18.2227   -6.4766   21.0613 Cl  0  0  0  0  0  0  0  0  0  0  0  0
   22.1920   -4.6631   20.1888 C   0  0  0  0  0  0  0  0  0  0  0  0
   19.1114   -7.8227   16.5914 C   0  0  0  0  0  0  0  0  0  0  0  0
   18.3412   -8.0026   17.7086 C   0  0  0  0  0  0  0  0  0  0  0  0
   17.0773   -8.2175   17.2450 N   0  0  0  0  0  0  0  0  0  0  0  0
   15.8800   -8.3672   18.0388 C   0  0  0  0  0  0  0  0  0  0  0  0
   16.9948   -8.3333   15.9082 N   0  0  0  0  0  0  0  0  0  0  0  0
   18.2347   -8.0507   15.4549 C   0  0  0  0  0  0  0  0  0  0  0  0
  1  2  1  0
  2  3  1  0
  3  4  2  0
  4  5  1  0
  5  6  2  0
  6  7  1  0
  7  8  1  6
  7  9  1  0
 10  9  1  6
 10 11  1  0
 11 12  1  0
 12 13  1  0
 13 14  1  0
 14 15  2  0
 15 16  1  0
 16 17  2  0
 17 18  1  0
 18 19  2  0
 19 20  1  0
 13 21  1  0
  6 22  1  0
 22 23  2  0
 23 24  1  0
 24 25  1  0
 24 26  1  0
 26 27  2  0
 27  3  1  0
 21 10  1  0
 27 22  1  0
 19 14  1  0
M  END
>  <energy_score>  (451) 
-40.739602

>  <inchikey>  (451) 
None

>  <smiles>  (451) 
None

>  <ref_pdb>  (451) 
A1105b

>  <alias>  (451) 
None

>  <HIPPO Pose ID>  (451) 
498645

>  <name>  (451) 
P498645

>  <HIPPO Compound ID>  (451) 
293449

>  <ref_mols>  (451) 
A0497a,A1105b

>  <distance_score>  (451) 
1.052275

>  <inspiration_score>  (451) 
None

$$$$
P498648
     RDKit          3D

 27 30  0  0  0  0  0  0  0  0999 V2000
   19.1066   -9.0989   12.1605 C   0  0  0  0  0  0  0  0  0  0  0  0
   18.2339   -8.7962   13.2379 O   0  0  0  0  0  0  0  0  0  0  0  0
   18.8150   -8.2831   14.3625 C   0  0  0  0  0  0  0  0  0  0  0  0
   20.1677   -7.9038   14.5191 C   0  0  0  0  0  0  0  0  0  0  0  0
   20.7122   -7.3843   15.7383 C   0  0  0  0  0  0  0  0  0  0  0  0
   19.9721   -7.1600   16.9277 C   0  0  0  0  0  0  0  0  0  0  0  0
   20.5778   -6.6406   18.2040 C   0  0  2  0  0  0  0  0  0  0  0  0
   21.6733   -5.8095   17.8905 O   0  0  0  0  0  0  0  0  0  0  0  0
   21.0380   -7.7101   19.0793 N   0  0  0  0  0  0  0  0  0  0  0  0
   21.0005   -7.4043   20.5224 C   0  0  2  0  0  0  0  0  0  0  0  0
   19.5896   -7.5941   21.1147 C   0  0  0  0  0  0  0  0  0  0  0  0
   19.4266   -6.4609   22.1231 C   0  0  0  0  0  0  0  0  0  0  0  0
   20.2299   -5.3658   21.5736 N   0  0  0  0  0  0  0  0  0  0  0  0
   19.6499   -4.4714   20.6637 C   0  0  0  0  0  0  0  0  0  0  0  0
   18.2877   -4.1880   20.6487 C   0  0  0  0  0  0  0  0  0  0  0  0
   17.7327   -3.4636   19.5919 C   0  0  0  0  0  0  0  0  0  0  0  0
   18.5596   -2.9566   18.6065 C   0  0  0  0  0  0  0  0  0  0  0  0
   19.9199   -3.1424   18.7420 C   0  0  0  0  0  0  0  0  0  0  0  0
   20.8740   -2.5270   17.7602 C   0  0  0  0  0  0  0  0  0  0  0  0
   20.4547   -3.8919   19.7418 N   0  0  0  0  0  0  0  0  0  0  0  0
   21.4642   -6.0181   21.0711 C   0  0  0  0  0  0  0  0  0  0  0  0
   18.6294   -7.5075   16.7232 C   0  0  0  0  0  0  0  0  0  0  0  0
   17.6090   -7.3417   17.6231 C   0  0  0  0  0  0  0  0  0  0  0  0
   16.4978   -7.8102   16.9894 N   0  0  0  0  0  0  0  0  0  0  0  0
   15.1489   -7.7881   17.5053 C   0  0  0  0  0  0  0  0  0  0  0  0
   16.7330   -8.3239   15.7682 N   0  0  0  0  0  0  0  0  0  0  0  0
   18.0367   -8.0664   15.5272 C   0  0  0  0  0  0  0  0  0  0  0  0
  1  2  1  0
  2  3  1  0
  3  4  2  0
  4  5  1  0
  5  6  2  0
  6  7  1  0
  7  8  1  6
  7  9  1  0
 10  9  1  6
 10 11  1  0
 11 12  1  0
 12 13  1  0
 13 14  1  0
 14 15  2  0
 15 16  1  0
 16 17  2  0
 17 18  1  0
 18 19  1  0
 18 20  2  0
 13 21  1  0
  6 22  1  0
 22 23  2  0
 23 24  1  0
 24 25  1  0
 24 26  1  0
 26 27  2  0
 27  3  1  0
 21 10  1  0
 27 22  1  0
 20 14  1  0
M  END
>  <energy_score>  (452) 
-36.325543

>  <inchikey>  (452) 
None

>  <smiles>  (452) 
None

>  <ref_pdb>  (452) 
A1105b

>  <alias>  (452) 
None

>  <HIPPO Pose ID>  (452) 
498648

>  <name>  (452) 
P498648

>  <HIPPO Compound ID>  (452) 
293450

>  <ref_mols>  (452) 
A0497a,A1105b

>  <distance_score>  (452) 
1.004163

>  <inspiration_score>  (452) 
None

$$$$
P498653
     RDKit          3D

 27 30  0  0  0  0  0  0  0  0999 V2000
   19.4825   -9.5243   17.3905 C   0  0  0  0  0  0  0  0  0  0  0  0
   19.9005   -8.1276   17.0348 C   0  0  0  0  0  0  0  0  0  0  0  0
   19.9677   -7.7455   15.7083 C   0  0  0  0  0  0  0  0  0  0  0  0
   20.5204   -6.5121   15.4134 C   0  0  0  0  0  0  0  0  0  0  0  0
   20.9483   -5.6868   16.4475 C   0  0  0  0  0  0  0  0  0  0  0  0
   20.7561   -6.0717   17.7734 C   0  0  0  0  0  0  0  0  0  0  0  0
   20.9960   -5.2016   18.8389 N   0  0  0  0  0  0  0  0  0  0  0  0
   20.8892   -3.7422   18.6256 C   0  0  0  0  0  0  0  0  0  0  0  0
   20.1384   -3.1977   19.8426 C   0  0  0  0  0  0  0  0  0  0  0  0
   19.3314   -4.3833   20.3555 C   0  0  1  0  0  0  0  0  0  0  0  0
   17.9696   -4.5870   19.8243 N   0  0  0  0  0  0  0  0  0  0  0  0
   17.7782   -4.5319   18.3816 C   0  0  2  0  0  0  0  0  0  0  0  0
   18.0296   -3.2412   17.8604 O   0  0  0  0  0  0  0  0  0  0  0  0
   16.3738   -4.9489   17.9945 C   0  0  0  0  0  0  0  0  0  0  0  0
   15.3547   -3.9904   17.8084 C   0  0  0  0  0  0  0  0  0  0  0  0
   14.0968   -4.3438   17.3335 C   0  0  0  0  0  0  0  0  0  0  0  0
   13.7881   -5.6729   17.0564 C   0  0  0  0  0  0  0  0  0  0  0  0
   14.7512   -6.6408   17.3430 C   0  0  0  0  0  0  0  0  0  0  0  0
   16.0153   -6.3057   17.8101 C   0  0  0  0  0  0  0  0  0  0  0  0
   16.6469   -7.5496   18.0158 C   0  0  0  0  0  0  0  0  0  0  0  0
   15.9012   -8.5939   17.6501 N   0  0  0  0  0  0  0  0  0  0  0  0
   14.7380   -8.0134   17.2531 N   0  0  0  0  0  0  0  0  0  0  0  0
   13.6504   -8.8336   16.7397 C   0  0  0  0  0  0  0  0  0  0  0  0
   12.5208   -8.7138   17.4849 F   0  0  0  0  0  0  0  0  0  0  0  0
   13.3167   -8.4729   15.4665 F   0  0  0  0  0  0  0  0  0  0  0  0
   20.3252   -5.5444   20.1030 C   0  0  0  0  0  0  0  0  0  0  0  0
   20.2770   -7.3102   18.0479 N   0  0  0  0  0  0  0  0  0  0  0  0
  1  2  1  0
  2  3  2  0
  3  4  1  0
  4  5  2  0
  5  6  1  0
  6  7  1  0
  7  8  1  0
  8  9  1  0
  9 10  1  0
 10 11  1  6
 11 12  1  0
 12 13  1  1
 12 14  1  0
 14 15  2  0
 15 16  1  0
 16 17  2  0
 17 18  1  0
 18 19  2  0
 19 20  1  0
 20 21  2  0
 21 22  1  0
 22 23  1  0
 23 24  1  0
 23 25  1  0
 10 26  1  0
  6 27  2  0
 27  2  1  0
 26  7  1  0
 19 14  1  0
 22 18  1  0
M  END
>  <energy_score>  (453) 
-33.326987

>  <inchikey>  (453) 
None

>  <smiles>  (453) 
None

>  <ref_pdb>  (453) 
A1105b

>  <alias>  (453) 
None

>  <HIPPO Pose ID>  (453) 
498653

>  <name>  (453) 
P498653

>  <HIPPO Compound ID>  (453) 
293451

>  <ref_mols>  (453) 
A0497a,A1105b

>  <distance_score>  (453) 
1.43487

>  <inspiration_score>  (453) 
None

$$$$
P498658
     RDKit          3D

 27 30  0  0  0  0  0  0  0  0999 V2000
   18.1441   -3.5269   17.7924 O   0  0  0  0  0  0  0  0  0  0  0  0
   17.3674   -4.1553   18.7863 C   0  0  2  0  0  0  0  0  0  0  0  0
   18.1593   -5.1116   19.5225 N   0  0  0  0  0  0  0  0  0  0  0  0
   19.2404   -4.6001   20.3813 C   0  0  2  0  0  0  0  0  0  0  0  0
   19.9326   -3.2880   20.0176 C   0  0  0  0  0  0  0  0  0  0  0  0
   20.8983   -3.6575   18.8870 C   0  0  0  0  0  0  0  0  0  0  0  0
   21.1648   -5.1179   19.0338 N   0  0  0  0  0  0  0  0  0  0  0  0
   20.8238   -5.8411   17.8611 C   0  0  0  0  0  0  0  0  0  0  0  0
   19.8736   -6.8125   17.9647 N   0  0  0  0  0  0  0  0  0  0  0  0
   19.4405   -7.4381   16.8451 C   0  0  0  0  0  0  0  0  0  0  0  0
   19.8909   -7.1433   15.5813 C   0  0  0  0  0  0  0  0  0  0  0  0
   20.9022   -6.2032   15.4650 C   0  0  0  0  0  0  0  0  0  0  0  0
   21.3978   -5.5668   16.6046 C   0  0  0  0  0  0  0  0  0  0  0  0
   22.7421   -4.4956   16.3945 Cl  0  0  0  0  0  0  0  0  0  0  0  0
   20.4681   -5.5516   20.2703 C   0  0  0  0  0  0  0  0  0  0  0  0
   16.1434   -4.7827   18.1328 C   0  0  0  0  0  0  0  0  0  0  0  0
   15.1331   -3.8819   17.7333 C   0  0  0  0  0  0  0  0  0  0  0  0
   13.9562   -4.3091   17.1422 C   0  0  0  0  0  0  0  0  0  0  0  0
   13.7226   -5.6608   16.9225 C   0  0  0  0  0  0  0  0  0  0  0  0
   14.6949   -6.5722   17.3321 C   0  0  0  0  0  0  0  0  0  0  0  0
   15.8827   -6.1691   17.9363 C   0  0  0  0  0  0  0  0  0  0  0  0
   16.4976   -7.3963   18.2875 C   0  0  0  0  0  0  0  0  0  0  0  0
   15.8583   -8.4745   17.8264 N   0  0  0  0  0  0  0  0  0  0  0  0
   14.7360   -7.9464   17.2808 N   0  0  0  0  0  0  0  0  0  0  0  0
   13.7447   -8.8198   16.6690 C   0  0  0  0  0  0  0  0  0  0  0  0
   13.6909   -8.6334   15.3181 F   0  0  0  0  0  0  0  0  0  0  0  0
   12.4897   -8.5852   17.1362 F   0  0  0  0  0  0  0  0  0  0  0  0
  2  1  1  6
  2  3  1  0
  4  3  1  6
  4  5  1  0
  5  6  1  0
  6  7  1  0
  7  8  1  0
  8  9  2  0
  9 10  1  0
 10 11  2  0
 11 12  1  0
 12 13  2  0
 13 14  1  0
  7 15  1  0
  2 16  1  0
 16 17  2  0
 17 18  1  0
 18 19  2  0
 19 20  1  0
 20 21  2  0
 21 22  1  0
 22 23  2  0
 23 24  1  0
 24 25  1  0
 25 26  1  0
 25 27  1  0
 15  4  1  0
 21 16  1  0
 13  8  1  0
 24 20  1  0
M  END
>  <energy_score>  (454) 
-51.306731

>  <inchikey>  (454) 
None

>  <smiles>  (454) 
None

>  <ref_pdb>  (454) 
A1105b

>  <alias>  (454) 
None

>  <HIPPO Pose ID>  (454) 
498658

>  <name>  (454) 
P498658

>  <HIPPO Compound ID>  (454) 
293452

>  <ref_mols>  (454) 
A0497a,A1105b

>  <distance_score>  (454) 
1.174384

>  <inspiration_score>  (454) 
None

$$$$
P498661
     RDKit          3D

 27 31  0  0  0  0  0  0  0  0999 V2000
   15.6434   -7.6843   17.9521 C   0  0  0  0  0  0  0  0  0  0  0  0
   16.8612   -7.6638   17.1759 N   0  0  0  0  0  0  0  0  0  0  0  0
   18.0616   -7.1439   17.5694 C   0  0  0  0  0  0  0  0  0  0  0  0
   18.8932   -7.3091   16.4919 C   0  0  0  0  0  0  0  0  0  0  0  0
   20.2452   -6.9355   16.4059 C   0  0  0  0  0  0  0  0  0  0  0  0
   21.0929   -6.3661   17.5058 C   0  0  1  0  0  0  0  0  0  0  0  0
   21.7107   -7.4905   18.1132 O   0  0  0  0  0  0  0  0  0  0  0  0
   22.1746   -5.4567   17.1163 N   0  0  0  0  0  0  0  0  0  0  0  0
   22.6830   -4.7678   18.3519 C   0  0  0  0  0  0  0  0  0  0  0  0
   22.4002   -3.2697   18.0956 C   0  0  1  0  0  0  0  0  0  0  0  0
   22.7870   -3.2385   16.6160 C   0  0  0  0  0  0  0  0  0  0  0  0
   21.7412   -4.2971   16.2571 C   0  0  2  0  0  0  0  0  0  0  0  0
   20.4699   -3.5571   16.7558 C   0  0  0  0  0  0  0  0  0  0  0  0
   20.9363   -2.9660   18.0262 N   0  0  0  0  0  0  0  0  0  0  0  0
   20.1585   -3.2285   19.1430 C   0  0  0  0  0  0  0  0  0  0  0  0
   18.7623   -3.2094   19.0838 C   0  0  0  0  0  0  0  0  0  0  0  0
   18.0147   -3.6383   20.1807 C   0  0  0  0  0  0  0  0  0  0  0  0
   18.6845   -4.0699   21.3137 C   0  0  0  0  0  0  0  0  0  0  0  0
   17.8326   -4.7329   22.8477 Br  0  0  0  0  0  0  0  0  0  0  0  0
   20.0583   -3.9848   21.3279 C   0  0  0  0  0  0  0  0  0  0  0  0
   20.7920   -3.5521   20.2862 N   0  0  0  0  0  0  0  0  0  0  0  0
   20.7598   -7.2757   15.1252 C   0  0  0  0  0  0  0  0  0  0  0  0
   19.9973   -7.8898   14.0866 C   0  0  0  0  0  0  0  0  0  0  0  0
   20.8612   -8.2346   12.4289 Br  0  0  0  0  0  0  0  0  0  0  0  0
   18.6496   -8.2683   14.2166 C   0  0  0  0  0  0  0  0  0  0  0  0
   18.1049   -7.9592   15.4707 C   0  0  0  0  0  0  0  0  0  0  0  0
   16.8675   -8.1975   15.9383 N   0  0  0  0  0  0  0  0  0  0  0  0
  1  2  1  0
  2  3  1  0
  3  4  2  0
  4  5  1  0
  5  6  1  0
  6  7  1  6
  6  8  1  0
  8  9  1  0
 10  9  1  6
 10 11  1  0
 11 12  1  0
 12 13  1  1
 13 14  1  0
 14 15  1  0
 15 16  2  0
 16 17  1  0
 17 18  2  0
 18 19  1  0
 18 20  1  0
 20 21  2  0
  5 22  2  0
 22 23  1  0
 23 24  1  0
 23 25  2  0
 25 26  1  0
 26 27  2  0
 27  2  1  0
 26  4  1  0
 12  8  1  0
 21 15  1  0
 14 10  1  0
M  END
>  <energy_score>  (455) 
-57.864294

>  <inchikey>  (455) 
None

>  <smiles>  (455) 
None

>  <ref_pdb>  (455) 
A1105b

>  <alias>  (455) 
None

>  <HIPPO Pose ID>  (455) 
498661

>  <name>  (455) 
P498661

>  <HIPPO Compound ID>  (455) 
293454

>  <ref_mols>  (455) 
A0497a,A1105b

>  <distance_score>  (455) 
1.192897

>  <inspiration_score>  (455) 
None

$$$$
P498668
     RDKit          3D

 27 31  0  0  0  0  0  0  0  0999 V2000
   16.1929   -8.4412   18.1576 C   0  0  0  0  0  0  0  0  0  0  0  0
   17.3190   -8.2413   17.2754 N   0  0  0  0  0  0  0  0  0  0  0  0
   18.6131   -7.9864   17.6364 C   0  0  0  0  0  0  0  0  0  0  0  0
   19.2958   -7.8110   16.4610 C   0  0  0  0  0  0  0  0  0  0  0  0
   20.6642   -7.5113   16.2918 C   0  0  0  0  0  0  0  0  0  0  0  0
   21.7854   -7.3790   17.3026 C   0  0  2  0  0  0  0  0  0  0  0  0
   21.9808   -8.6613   17.8729 O   0  0  0  0  0  0  0  0  0  0  0  0
   21.4977   -6.4343   18.3516 N   0  0  0  0  0  0  0  0  0  0  0  0
   21.3637   -5.0368   17.8356 C   0  0  0  0  0  0  0  0  0  0  0  0
   22.0041   -4.2077   18.9845 C   0  0  2  0  0  0  0  0  0  0  0  0
   23.2921   -5.0249   19.1113 C   0  0  0  0  0  0  0  0  0  0  0  0
   22.5262   -6.3059   19.4291 C   0  0  1  0  0  0  0  0  0  0  0  0
   21.7895   -5.8121   20.7123 C   0  0  0  0  0  0  0  0  0  0  0  0
   21.3105   -4.4598   20.3150 N   0  0  0  0  0  0  0  0  0  0  0  0
   19.9385   -4.2188   20.1242 C   0  0  0  0  0  0  0  0  0  0  0  0
   19.0110   -5.2540   20.0235 C   0  0  0  0  0  0  0  0  0  0  0  0
   17.8246   -5.0391   19.3421 C   0  0  0  0  0  0  0  0  0  0  0  0
   17.4915   -3.7700   18.9253 C   0  0  0  0  0  0  0  0  0  0  0  0
   15.8361   -3.5243   18.0788 Br  0  0  0  0  0  0  0  0  0  0  0  0
   18.3845   -2.7562   19.1918 C   0  0  0  0  0  0  0  0  0  0  0  0
   19.5985   -2.9592   19.7645 N   0  0  0  0  0  0  0  0  0  0  0  0
   20.9585   -7.4136   14.9033 C   0  0  0  0  0  0  0  0  0  0  0  0
   20.0225   -7.6469   13.8581 C   0  0  0  0  0  0  0  0  0  0  0  0
   20.4612   -7.5384   12.5936 F   0  0  0  0  0  0  0  0  0  0  0  0
   18.6837   -8.0005   14.0601 C   0  0  0  0  0  0  0  0  0  0  0  0
   18.3250   -8.0543   15.4106 C   0  0  0  0  0  0  0  0  0  0  0  0
   17.1310   -8.3518   15.9495 N   0  0  0  0  0  0  0  0  0  0  0  0
  1  2  1  0
  2  3  1  0
  3  4  2  0
  4  5  1  0
  5  6  1  0
  6  7  1  1
  6  8  1  0
  8  9  1  0
 10  9  1  6
 10 11  1  0
 11 12  1  0
 12 13  1  1
 13 14  1  0
 14 15  1  0
 15 16  2  0
 16 17  1  0
 17 18  2  0
 18 19  1  0
 18 20  1  0
 20 21  2  0
  5 22  2  0
 22 23  1  0
 23 24  1  0
 23 25  2  0
 25 26  1  0
 26 27  2  0
 27  2  1  0
 26  4  1  0
 12  8  1  0
 21 15  1  0
 14 10  1  0
M  END
>  <energy_score>  (456) 
-30.394653

>  <inchikey>  (456) 
None

>  <smiles>  (456) 
None

>  <ref_pdb>  (456) 
A1105b

>  <alias>  (456) 
None

>  <HIPPO Pose ID>  (456) 
498668

>  <name>  (456) 
P498668

>  <HIPPO Compound ID>  (456) 
293456

>  <ref_mols>  (456) 
A0497a,A1105b

>  <distance_score>  (456) 
1.246363

>  <inspiration_score>  (456) 
None

$$$$
P498675
     RDKit          3D

 27 30  0  0  0  0  0  0  0  0999 V2000
   18.8592   -3.0145   17.6311 C   0  0  0  0  0  0  0  0  0  0  0  0
   18.2621   -3.3683   18.8588 O   0  0  0  0  0  0  0  0  0  0  0  0
   17.9189   -4.7467   18.9515 C   0  0  1  0  0  0  0  0  0  0  0  0
   18.0235   -5.0335   20.3786 N   0  0  0  0  0  0  0  0  0  0  0  0
   19.3798   -5.2444   20.9257 C   0  0  2  0  0  0  0  0  0  0  0  0
   20.3754   -4.0878   20.8428 C   0  0  0  0  0  0  0  0  0  0  0  0
   21.3156   -4.4245   19.6817 C   0  0  0  0  0  0  0  0  0  0  0  0
   21.1926   -5.8744   19.4412 N   0  0  0  0  0  0  0  0  0  0  0  0
   20.9818   -6.2375   18.0997 C   0  0  0  0  0  0  0  0  0  0  0  0
   21.7578   -5.6820   17.0831 C   0  0  0  0  0  0  0  0  0  0  0  0
   21.3912   -5.8491   15.7533 C   0  0  0  0  0  0  0  0  0  0  0  0
   20.2592   -6.5816   15.4552 C   0  0  0  0  0  0  0  0  0  0  0  0
   19.5739   -7.1780   16.4950 C   0  0  0  0  0  0  0  0  0  0  0  0
   18.3061   -7.8998   16.2027 C   0  0  0  0  0  0  0  0  0  0  0  0
   19.9593   -7.0620   17.7870 N   0  0  0  0  0  0  0  0  0  0  0  0
   20.2361   -6.4293   20.4132 C   0  0  0  0  0  0  0  0  0  0  0  0
   16.5355   -5.0332   18.3603 C   0  0  0  0  0  0  0  0  0  0  0  0
   15.6626   -3.9602   17.9882 C   0  0  0  0  0  0  0  0  0  0  0  0
   14.3870   -4.0946   17.3688 C   0  0  0  0  0  0  0  0  0  0  0  0
   13.8328   -5.3283   17.0274 C   0  0  0  0  0  0  0  0  0  0  0  0
   14.6068   -6.4287   17.4042 C   0  0  0  0  0  0  0  0  0  0  0  0
   14.3297   -7.7259   17.2112 N   0  0  0  0  0  0  0  0  0  0  0  0
   15.2698   -8.3699   17.9139 N   0  0  0  0  0  0  0  0  0  0  0  0
   15.1834   -9.8105   17.9981 C   0  0  0  0  0  0  0  0  0  0  0  0
   16.1839   -7.5518   18.5386 C   0  0  0  0  0  0  0  0  0  0  0  0
   17.1259   -8.1088   19.5402 C   0  0  0  0  0  0  0  0  0  0  0  0
   15.8907   -6.2757   18.0813 C   0  0  0  0  0  0  0  0  0  0  0  0
  1  2  1  0
  2  3  1  0
  3  4  1  1
  5  4  1  6
  5  6  1  0
  6  7  1  0
  7  8  1  0
  8  9  1  0
  9 10  2  0
 10 11  1  0
 11 12  2  0
 12 13  1  0
 13 14  1  0
 13 15  2  0
  8 16  1  0
  3 17  1  0
 17 18  2  0
 18 19  1  0
 19 20  2  0
 20 21  1  0
 21 22  2  0
 22 23  1  0
 23 24  1  0
 23 25  1  0
 25 26  1  0
 25 27  2  0
 16  5  1  0
 27 17  1  0
 15  9  1  0
 27 21  1  0
M  END
>  <energy_score>  (457) 
-55.281331

>  <inchikey>  (457) 
None

>  <smiles>  (457) 
None

>  <ref_pdb>  (457) 
A1105b

>  <alias>  (457) 
None

>  <HIPPO Pose ID>  (457) 
498675

>  <name>  (457) 
P498675

>  <HIPPO Compound ID>  (457) 
293458

>  <ref_mols>  (457) 
A0497a,A1105b

>  <distance_score>  (457) 
1.57783

>  <inspiration_score>  (457) 
None

$$$$
P498678
     RDKit          3D

 27 30  0  0  0  0  0  0  0  0999 V2000
   17.9778   -3.2445   17.7521 O   0  0  0  0  0  0  0  0  0  0  0  0
   17.3885   -4.0414   18.7530 C   0  0  2  0  0  0  0  0  0  0  0  0
   18.3222   -4.9822   19.3111 N   0  0  0  0  0  0  0  0  0  0  0  0
   19.5717   -4.4945   19.9118 C   0  0  2  0  0  0  0  0  0  0  0  0
   20.3429   -3.3862   19.2006 C   0  0  0  0  0  0  0  0  0  0  0  0
   20.8852   -4.0838   17.9466 C   0  0  0  0  0  0  0  0  0  0  0  0
   21.0917   -5.4998   18.3495 N   0  0  0  0  0  0  0  0  0  0  0  0
   20.5466   -6.4838   17.4969 C   0  0  0  0  0  0  0  0  0  0  0  0
   20.1572   -7.6565   18.0703 N   0  0  0  0  0  0  0  0  0  0  0  0
   19.5340   -8.5883   17.3142 C   0  0  0  0  0  0  0  0  0  0  0  0
   19.2822   -8.4469   15.9683 C   0  0  0  0  0  0  0  0  0  0  0  0
   19.7507   -7.3047   15.3514 C   0  0  0  0  0  0  0  0  0  0  0  0
   20.4034   -6.3358   16.1033 C   0  0  0  0  0  0  0  0  0  0  0  0
   20.8571   -5.2762   15.4206 F   0  0  0  0  0  0  0  0  0  0  0  0
   20.6395   -5.6174   19.7615 C   0  0  0  0  0  0  0  0  0  0  0  0
   16.1653   -4.7022   18.1302 C   0  0  0  0  0  0  0  0  0  0  0  0
   15.1072   -3.8334   17.7870 C   0  0  0  0  0  0  0  0  0  0  0  0
   13.9319   -4.2889   17.2136 C   0  0  0  0  0  0  0  0  0  0  0  0
   13.7361   -5.6423   16.9742 C   0  0  0  0  0  0  0  0  0  0  0  0
   14.7524   -6.5239   17.3373 C   0  0  0  0  0  0  0  0  0  0  0  0
   15.9531   -6.0879   17.8908 C   0  0  0  0  0  0  0  0  0  0  0  0
   16.6549   -7.2912   18.1298 C   0  0  0  0  0  0  0  0  0  0  0  0
   16.0063   -8.3907   17.7359 N   0  0  0  0  0  0  0  0  0  0  0  0
   14.8345   -7.8953   17.2689 N   0  0  0  0  0  0  0  0  0  0  0  0
   13.8248   -8.7937   16.7273 C   0  0  0  0  0  0  0  0  0  0  0  0
   13.6236   -8.5672   15.3969 F   0  0  0  0  0  0  0  0  0  0  0  0
   12.6163   -8.6335   17.3303 F   0  0  0  0  0  0  0  0  0  0  0  0
  2  1  1  6
  2  3  1  0
  4  3  1  6
  4  5  1  0
  5  6  1  0
  6  7  1  0
  7  8  1  0
  8  9  2  0
  9 10  1  0
 10 11  2  0
 11 12  1  0
 12 13  2  0
 13 14  1  0
  7 15  1  0
  2 16  1  0
 16 17  2  0
 17 18  1  0
 18 19  2  0
 19 20  1  0
 20 21  2  0
 21 22  1  0
 22 23  2  0
 23 24  1  0
 24 25  1  0
 25 26  1  0
 25 27  1  0
 15  4  1  0
 21 16  1  0
 13  8  1  0
 24 20  1  0
M  END
>  <energy_score>  (458) 
-29.999301

>  <inchikey>  (458) 
None

>  <smiles>  (458) 
None

>  <ref_pdb>  (458) 
A1105b

>  <alias>  (458) 
None

>  <HIPPO Pose ID>  (458) 
498678

>  <name>  (458) 
P498678

>  <HIPPO Compound ID>  (458) 
293459

>  <ref_mols>  (458) 
A0497a,A1105b

>  <distance_score>  (458) 
1.486936

>  <inspiration_score>  (458) 
None

$$$$
P498686
     RDKit          3D

 27 31  0  0  0  0  0  0  0  0999 V2000
   17.6091   -9.0883   13.2052 C   0  0  0  0  0  0  0  0  0  0  0  0
   18.5192   -8.4387   14.1929 C   0  0  0  0  0  0  0  0  0  0  0  0
   19.8623   -8.1344   13.8724 C   0  0  0  0  0  0  0  0  0  0  0  0
   20.7766   -7.5267   14.7816 C   0  0  0  0  0  0  0  0  0  0  0  0
   20.4724   -7.1483   16.1199 C   0  0  0  0  0  0  0  0  0  0  0  0
   21.5121   -6.4752   16.9904 C   0  0  1  0  0  0  0  0  0  0  0  0
   22.5758   -7.3925   17.1719 O   0  0  0  0  0  0  0  0  0  0  0  0
   22.0485   -5.2823   16.3393 N   0  0  0  0  0  0  0  0  0  0  0  0
   20.9652   -4.2608   16.2251 C   0  0  0  0  0  0  0  0  0  0  0  0
   21.5226   -3.0400   16.9620 C   0  0  2  0  0  0  0  0  0  0  0  0
   22.9873   -3.1464   16.5190 C   0  0  0  0  0  0  0  0  0  0  0  0
   23.1274   -4.5589   17.0888 C   0  0  1  0  0  0  0  0  0  0  0  0
   22.7875   -4.2458   18.5659 C   0  0  0  0  0  0  0  0  0  0  0  0
   21.6384   -3.3151   18.4093 N   0  0  0  0  0  0  0  0  0  0  0  0
   20.6137   -3.5423   19.2898 C   0  0  0  0  0  0  0  0  0  0  0  0
   19.2593   -3.3439   19.0288 C   0  0  0  0  0  0  0  0  0  0  0  0
   18.3104   -3.6857   20.0061 C   0  0  0  0  0  0  0  0  0  0  0  0
   18.7575   -4.1837   21.2230 C   0  0  0  0  0  0  0  0  0  0  0  0
   17.6774   -4.6263   22.6811 Br  0  0  0  0  0  0  0  0  0  0  0  0
   20.1071   -4.3194   21.4192 C   0  0  0  0  0  0  0  0  0  0  0  0
   21.0153   -4.0057   20.4923 N   0  0  0  0  0  0  0  0  0  0  0  0
   19.1272   -7.4408   16.3998 C   0  0  0  0  0  0  0  0  0  0  0  0
   18.4491   -7.1789   17.5624 C   0  0  0  0  0  0  0  0  0  0  0  0
   17.1797   -7.6340   17.3440 N   0  0  0  0  0  0  0  0  0  0  0  0
   16.0751   -7.5722   18.2701 C   0  0  0  0  0  0  0  0  0  0  0  0
   16.9883   -8.1961   16.1377 N   0  0  0  0  0  0  0  0  0  0  0  0
   18.1680   -8.0616   15.5061 C   0  0  0  0  0  0  0  0  0  0  0  0
  1  2  1  0
  2  3  2  0
  3  4  1  0
  4  5  2  0
  5  6  1  0
  6  7  1  6
  6  8  1  0
  8  9  1  0
 10  9  1  6
 10 11  1  0
 11 12  1  0
 12 13  1  1
 13 14  1  0
 14 15  1  0
 15 16  2  0
 16 17  1  0
 17 18  2  0
 18 19  1  0
 18 20  1  0
 20 21  2  0
  5 22  1  0
 22 23  2  0
 23 24  1  0
 24 25  1  0
 24 26  1  0
 26 27  2  0
 27  2  1  0
 12  8  1  0
 21 15  1  0
 27 22  1  0
 14 10  1  0
M  END
>  <energy_score>  (459) 
-45.104529

>  <inchikey>  (459) 
None

>  <smiles>  (459) 
None

>  <ref_pdb>  (459) 
A1105b

>  <alias>  (459) 
None

>  <HIPPO Pose ID>  (459) 
498686

>  <name>  (459) 
P498686

>  <HIPPO Compound ID>  (459) 
293461

>  <ref_mols>  (459) 
A0497a,A1105b

>  <distance_score>  (459) 
1.351272

>  <inspiration_score>  (459) 
None

$$$$
P498687
     RDKit          3D

 27 31  0  0  0  0  0  0  0  0999 V2000
   18.1894   -8.3134   19.3616 C   0  0  0  0  0  0  0  0  0  0  0  0
   18.3003   -8.4151   17.8830 C   0  0  0  0  0  0  0  0  0  0  0  0
   19.1019   -7.7862   16.9500 C   0  0  0  0  0  0  0  0  0  0  0  0
   20.0887   -6.8041   17.1750 C   0  0  0  0  0  0  0  0  0  0  0  0
   20.3327   -6.0002   18.4337 C   0  0  1  0  0  0  0  0  0  0  0  0
   21.6540   -6.2703   18.8670 O   0  0  0  0  0  0  0  0  0  0  0  0
   20.2414   -4.5517   18.3030 N   0  0  0  0  0  0  0  0  0  0  0  0
   19.2842   -4.0953   17.2665 C   0  0  0  0  0  0  0  0  0  0  0  0
   18.4680   -2.9823   17.9467 C   0  0  2  0  0  0  0  0  0  0  0  0
   19.5260   -2.4460   18.9121 C   0  0  0  0  0  0  0  0  0  0  0  0
   19.7510   -3.8339   19.5131 C   0  0  1  0  0  0  0  0  0  0  0  0
   18.2837   -4.1584   19.9529 C   0  0  0  0  0  0  0  0  0  0  0  0
   17.4523   -3.5209   18.9016 N   0  0  0  0  0  0  0  0  0  0  0  0
   16.4803   -4.3253   18.3029 C   0  0  0  0  0  0  0  0  0  0  0  0
   15.2724   -3.7725   17.8718 C   0  0  0  0  0  0  0  0  0  0  0  0
   14.2499   -4.5914   17.3570 C   0  0  0  0  0  0  0  0  0  0  0  0
   14.4714   -5.9527   17.2868 C   0  0  0  0  0  0  0  0  0  0  0  0
   13.2911   -7.2473   16.6132 Br  0  0  0  0  0  0  0  0  0  0  0  0
   15.6808   -6.4133   17.7354 C   0  0  0  0  0  0  0  0  0  0  0  0
   16.6713   -5.6497   18.2409 N   0  0  0  0  0  0  0  0  0  0  0  0
   20.7874   -6.5293   15.9576 C   0  0  0  0  0  0  0  0  0  0  0  0
   20.4797   -7.0996   14.6855 C   0  0  0  0  0  0  0  0  0  0  0  0
   19.4341   -8.0170   14.4896 C   0  0  0  0  0  0  0  0  0  0  0  0
   18.7533   -8.3638   15.6661 C   0  0  0  0  0  0  0  0  0  0  0  0
   17.7389   -9.2277   15.8165 N   0  0  0  0  0  0  0  0  0  0  0  0
   17.5348   -9.2879   17.1426 N   0  0  0  0  0  0  0  0  0  0  0  0
   16.5851  -10.2612   17.6382 C   0  0  0  0  0  0  0  0  0  0  0  0
  1  2  1  0
  2  3  2  0
  3  4  1  0
  4  5  1  0
  5  6  1  6
  5  7  1  0
  7  8  1  0
  9  8  1  6
  9 10  1  0
 10 11  1  0
 11 12  1  6
 12 13  1  0
 13 14  1  0
 14 15  2  0
 15 16  1  0
 16 17  2  0
 17 18  1  0
 17 19  1  0
 19 20  2  0
  4 21  2  0
 21 22  1  0
 22 23  2  0
 23 24  1  0
 24 25  2  0
 25 26  1  0
 26 27  1  0
 26  2  1  0
 24  3  1  0
 11  7  1  0
 20 14  1  0
 13  9  1  0
M  END
>  <energy_score>  (460) 
-31.150129

>  <inchikey>  (460) 
None

>  <smiles>  (460) 
None

>  <ref_pdb>  (460) 
A1105b

>  <alias>  (460) 
None

>  <HIPPO Pose ID>  (460) 
498687

>  <name>  (460) 
P498687

>  <HIPPO Compound ID>  (460) 
293462

>  <ref_mols>  (460) 
A0497a,A1105b

>  <distance_score>  (460) 
1.255389

>  <inspiration_score>  (460) 
None

$$$$
P498694
     RDKit          3D

 28 31  0  0  0  0  0  0  0  0999 V2000
   18.7699   -2.8305   17.9352 C   0  0  0  0  0  0  0  0  0  0  0  0
   18.1193   -3.4731   19.0117 O   0  0  0  0  0  0  0  0  0  0  0  0
   17.8796   -4.8546   18.7920 C   0  0  1  0  0  0  0  0  0  0  0  0
   18.0230   -5.5194   20.0878 N   0  0  0  0  0  0  0  0  0  0  0  0
   19.3620   -5.7054   20.6638 C   0  0  2  0  0  0  0  0  0  0  0  0
   20.4570   -4.6573   20.4824 C   0  0  0  0  0  0  0  0  0  0  0  0
   21.2870   -5.1297   19.2823 C   0  0  0  0  0  0  0  0  0  0  0  0
   20.9302   -6.5460   19.0609 N   0  0  0  0  0  0  0  0  0  0  0  0
   20.4917   -6.8709   17.7654 C   0  0  0  0  0  0  0  0  0  0  0  0
   19.4007   -7.6727   17.6225 N   0  0  0  0  0  0  0  0  0  0  0  0
   18.9300   -7.9080   16.3762 C   0  0  0  0  0  0  0  0  0  0  0  0
   19.4769   -7.3719   15.2314 C   0  0  0  0  0  0  0  0  0  0  0  0
   20.6103   -6.5879   15.3599 C   0  0  0  0  0  0  0  0  0  0  0  0
   21.1336   -6.3605   16.6232 C   0  0  0  0  0  0  0  0  0  0  0  0
   22.2513   -5.6223   16.7240 F   0  0  0  0  0  0  0  0  0  0  0  0
   20.0862   -6.9861   20.1747 C   0  0  0  0  0  0  0  0  0  0  0  0
   16.4761   -5.1065   18.1959 C   0  0  0  0  0  0  0  0  0  0  0  0
   15.6094   -4.0235   17.9090 C   0  0  0  0  0  0  0  0  0  0  0  0
   14.3436   -4.1987   17.3562 C   0  0  0  0  0  0  0  0  0  0  0  0
   13.8694   -5.4677   17.0556 C   0  0  0  0  0  0  0  0  0  0  0  0
   14.6756   -6.5650   17.3742 C   0  0  0  0  0  0  0  0  0  0  0  0
   15.9369   -6.4075   17.9506 C   0  0  0  0  0  0  0  0  0  0  0  0
   16.3317   -7.7351   18.2277 C   0  0  0  0  0  0  0  0  0  0  0  0
   15.4788   -8.6593   17.7964 N   0  0  0  0  0  0  0  0  0  0  0  0
   14.4588   -7.9359   17.2518 N   0  0  0  0  0  0  0  0  0  0  0  0
   13.3944   -8.6117   16.6046 C   0  0  0  0  0  0  0  0  0  0  0  0
   12.6238   -7.9491   15.9140 O   0  0  0  0  0  0  0  0  0  0  0  0
   13.2971  -10.3445   16.7917 Cl  0  0  0  0  0  0  0  0  0  0  0  0
  1  2  1  0
  2  3  1  0
  3  4  1  1
  5  4  1  6
  5  6  1  0
  6  7  1  0
  7  8  1  0
  8  9  1  0
  9 10  2  0
 10 11  1  0
 11 12  2  0
 12 13  1  0
 13 14  2  0
 14 15  1  0
  8 16  1  0
  3 17  1  0
 17 18  2  0
 18 19  1  0
 19 20  2  0
 20 21  1  0
 21 22  2  0
 22 23  1  0
 23 24  2  0
 24 25  1  0
 25 26  1  0
 26 27  2  0
 26 28  1  0
 16  5  1  0
 22 17  1  0
 14  9  1  0
 25 21  1  0
M  END
>  <energy_score>  (461) 
-39.032292

>  <inchikey>  (461) 
None

>  <smiles>  (461) 
None

>  <ref_pdb>  (461) 
A1105b

>  <alias>  (461) 
None

>  <HIPPO Pose ID>  (461) 
498694

>  <name>  (461) 
P498694

>  <HIPPO Compound ID>  (461) 
293464

>  <ref_mols>  (461) 
A0497a,A1105b

>  <distance_score>  (461) 
1.555655

>  <inspiration_score>  (461) 
None

$$$$
P498697
     RDKit          3D

 28 32  0  0  0  0  0  0  0  0999 V2000
   17.8873   -3.1156   17.3810 O   0  0  0  0  0  0  0  0  0  0  0  0
   17.7504   -4.2987   18.1620 C   0  0  2  0  0  0  0  0  0  0  0  0
   16.3321   -4.7682   17.9831 C   0  0  0  0  0  0  0  0  0  0  0  0
   15.2735   -3.8333   17.8350 C   0  0  0  0  0  0  0  0  0  0  0  0
   13.9801   -4.1510   17.3503 C   0  0  0  0  0  0  0  0  0  0  0  0
   13.5876   -5.4512   17.0135 C   0  0  0  0  0  0  0  0  0  0  0  0
   14.5397   -6.4342   17.2804 C   0  0  0  0  0  0  0  0  0  0  0  0
   14.4513   -7.7657   17.1164 N   0  0  0  0  0  0  0  0  0  0  0  0
   15.6330   -8.2367   17.5784 N   0  0  0  0  0  0  0  0  0  0  0  0
   15.8507   -9.6737   17.7001 C   0  0  0  0  0  0  0  0  0  0  0  0
   16.1085  -10.2443   16.4923 F   0  0  0  0  0  0  0  0  0  0  0  0
   16.9261   -9.9540   18.4908 F   0  0  0  0  0  0  0  0  0  0  0  0
   16.5132   -7.2503   17.9346 C   0  0  0  0  0  0  0  0  0  0  0  0
   15.8535   -6.0699   17.7493 C   0  0  0  0  0  0  0  0  0  0  0  0
   18.1636   -4.0140   19.5427 N   0  0  0  0  0  0  0  0  0  0  0  0
   18.7073   -5.2421   20.1844 C   0  0  0  0  0  0  0  0  0  0  0  0
   20.2230   -4.9680   20.3243 C   0  0  2  0  0  0  0  0  0  0  0  0
   20.1013   -3.5237   20.8211 C   0  0  0  0  0  0  0  0  0  0  0  0
   19.3708   -3.0889   19.5586 C   0  0  1  0  0  0  0  0  0  0  0  0
   20.4991   -3.4464   18.5357 C   0  0  0  0  0  0  0  0  0  0  0  0
   20.9233   -4.8001   18.9973 N   0  0  0  0  0  0  0  0  0  0  0  0
   20.7831   -5.8380   18.0655 C   0  0  0  0  0  0  0  0  0  0  0  0
   20.9867   -5.6079   16.6976 C   0  0  0  0  0  0  0  0  0  0  0  0
   20.4502   -6.4804   15.7539 C   0  0  0  0  0  0  0  0  0  0  0  0
   19.8028   -7.6172   16.1917 C   0  0  0  0  0  0  0  0  0  0  0  0
   18.8603   -8.7114   14.9865 Br  0  0  0  0  0  0  0  0  0  0  0  0
   19.8381   -7.8943   17.5431 C   0  0  0  0  0  0  0  0  0  0  0  0
   20.3183   -7.0373   18.4807 N   0  0  0  0  0  0  0  0  0  0  0  0
  2  1  1  6
  2  3  1  0
  3  4  2  0
  4  5  1  0
  5  6  2  0
  6  7  1  0
  7  8  2  0
  8  9  1  0
  9 10  1  0
 10 11  1  0
 10 12  1  0
  9 13  1  0
 13 14  2  0
  2 15  1  0
 15 16  1  0
 17 16  1  6
 17 18  1  0
 18 19  1  0
 19 20  1  6
 20 21  1  0
 21 22  1  0
 22 23  2  0
 23 24  1  0
 24 25  2  0
 25 26  1  0
 25 27  1  0
 27 28  2  0
 14  3  1  0
 19 15  1  0
 28 22  1  0
 14  7  1  0
 21 17  1  0
M  END
>  <energy_score>  (462) 
-32.118253

>  <inchikey>  (462) 
None

>  <smiles>  (462) 
None

>  <ref_pdb>  (462) 
A1105b

>  <alias>  (462) 
None

>  <HIPPO Pose ID>  (462) 
498697

>  <name>  (462) 
P498697

>  <HIPPO Compound ID>  (462) 
293465

>  <ref_mols>  (462) 
A0497a,A1105b

>  <distance_score>  (462) 
1.489017

>  <inspiration_score>  (462) 
None

$$$$
P498701
     RDKit          3D

 28 32  0  0  0  0  0  0  0  0999 V2000
   16.7043   -9.7134   13.6507 C   0  0  0  0  0  0  0  0  0  0  0  0
   17.8339   -8.9850   13.1826 O   0  0  0  0  0  0  0  0  0  0  0  0
   18.5777   -8.3832   14.1813 C   0  0  0  0  0  0  0  0  0  0  0  0
   19.8946   -8.0153   13.8490 C   0  0  0  0  0  0  0  0  0  0  0  0
   20.7884   -7.3923   14.7654 C   0  0  0  0  0  0  0  0  0  0  0  0
   20.4759   -7.0500   16.1127 C   0  0  0  0  0  0  0  0  0  0  0  0
   21.5060   -6.3717   16.9940 C   0  0  1  0  0  0  0  0  0  0  0  0
   22.5671   -7.2918   17.1809 O   0  0  0  0  0  0  0  0  0  0  0  0
   22.0499   -5.1782   16.3530 N   0  0  0  0  0  0  0  0  0  0  0  0
   20.9740   -4.1473   16.2424 C   0  0  0  0  0  0  0  0  0  0  0  0
   21.5322   -2.9354   16.9955 C   0  0  2  0  0  0  0  0  0  0  0  0
   22.9963   -3.0409   16.5541 C   0  0  0  0  0  0  0  0  0  0  0  0
   23.1308   -4.4606   17.1067 C   0  0  1  0  0  0  0  0  0  0  0  0
   22.7919   -4.1630   18.5870 C   0  0  0  0  0  0  0  0  0  0  0  0
   21.6415   -3.2316   18.4439 N   0  0  0  0  0  0  0  0  0  0  0  0
   20.6149   -3.4803   19.3158 C   0  0  0  0  0  0  0  0  0  0  0  0
   19.2591   -3.3005   19.0490 C   0  0  0  0  0  0  0  0  0  0  0  0
   18.3097   -3.6669   20.0173 C   0  0  0  0  0  0  0  0  0  0  0  0
   18.7573   -4.1695   21.2321 C   0  0  0  0  0  0  0  0  0  0  0  0
   17.6772   -4.6431   22.6805 Br  0  0  0  0  0  0  0  0  0  0  0  0
   20.1079   -4.2846   21.4354 C   0  0  0  0  0  0  0  0  0  0  0  0
   21.0165   -3.9461   20.5179 N   0  0  0  0  0  0  0  0  0  0  0  0
   19.1405   -7.3889   16.3968 C   0  0  0  0  0  0  0  0  0  0  0  0
   18.4646   -7.1513   17.5656 C   0  0  0  0  0  0  0  0  0  0  0  0
   17.2053   -7.6320   17.3520 N   0  0  0  0  0  0  0  0  0  0  0  0
   16.1018   -7.5872   18.2808 C   0  0  0  0  0  0  0  0  0  0  0  0
   17.0221   -8.2049   16.1501 N   0  0  0  0  0  0  0  0  0  0  0  0
   18.1917   -8.0362   15.5008 C   0  0  0  0  0  0  0  0  0  0  0  0
  1  2  1  0
  2  3  1  0
  3  4  2  0
  4  5  1  0
  5  6  2  0
  6  7  1  0
  7  8  1  6
  7  9  1  0
  9 10  1  0
 11 10  1  6
 11 12  1  0
 12 13  1  0
 13 14  1  1
 14 15  1  0
 15 16  1  0
 16 17  2  0
 17 18  1  0
 18 19  2  0
 19 20  1  0
 19 21  1  0
 21 22  2  0
  6 23  1  0
 23 24  2  0
 24 25  1  0
 25 26  1  0
 25 27  1  0
 27 28  2  0
 28  3  1  0
 13  9  1  0
 22 16  1  0
 28 23  1  0
 15 11  1  0
M  END
>  <energy_score>  (463) 
-57.8837

>  <inchikey>  (463) 
None

>  <smiles>  (463) 
None

>  <ref_pdb>  (463) 
A1105b

>  <alias>  (463) 
None

>  <HIPPO Pose ID>  (463) 
498701

>  <name>  (463) 
P498701

>  <HIPPO Compound ID>  (463) 
293466

>  <ref_mols>  (463) 
A0497a,A1105b

>  <distance_score>  (463) 
1.341944

>  <inspiration_score>  (463) 
None

$$$$
P498702
     RDKit          3D

 28 31  0  0  0  0  0  0  0  0999 V2000
   18.6761   -2.8240   17.7334 C   0  0  0  0  0  0  0  0  0  0  0  0
   18.6602   -4.1858   18.0865 O   0  0  0  0  0  0  0  0  0  0  0  0
   17.6631   -4.5368   19.0144 C   0  0  2  0  0  0  0  0  0  0  0  0
   18.2044   -5.5899   19.8585 N   0  0  0  0  0  0  0  0  0  0  0  0
   19.3166   -5.2967   20.7814 C   0  0  2  0  0  0  0  0  0  0  0  0
   20.1763   -4.0457   20.6158 C   0  0  0  0  0  0  0  0  0  0  0  0
   21.2425   -4.4095   19.5709 C   0  0  0  0  0  0  0  0  0  0  0  0
   21.2577   -5.8897   19.4806 N   0  0  0  0  0  0  0  0  0  0  0  0
   20.8724   -6.3808   18.2044 C   0  0  0  0  0  0  0  0  0  0  0  0
   19.8654   -7.2974   18.1617 N   0  0  0  0  0  0  0  0  0  0  0  0
   19.3743   -7.6859   16.9599 C   0  0  0  0  0  0  0  0  0  0  0  0
   19.8180   -7.1996   15.7536 C   0  0  0  0  0  0  0  0  0  0  0  0
   20.8953   -6.3304   15.7739 C   0  0  0  0  0  0  0  0  0  0  0  0
   21.4566   -5.9456   16.9944 C   0  0  0  0  0  0  0  0  0  0  0  0
   22.8938   -4.9762   16.9206 Cl  0  0  0  0  0  0  0  0  0  0  0  0
   20.4339   -6.3778   20.6150 C   0  0  0  0  0  0  0  0  0  0  0  0
   16.4011   -5.0087   18.2563 C   0  0  0  0  0  0  0  0  0  0  0  0
   15.4722   -4.0158   17.8630 C   0  0  0  0  0  0  0  0  0  0  0  0
   14.2545   -4.3281   17.2713 C   0  0  0  0  0  0  0  0  0  0  0  0
   13.9046   -5.6514   17.0186 C   0  0  0  0  0  0  0  0  0  0  0  0
   14.7940   -6.6705   17.3884 C   0  0  0  0  0  0  0  0  0  0  0  0
   16.0041   -6.3651   18.0267 C   0  0  0  0  0  0  0  0  0  0  0  0
   16.4856   -7.6315   18.4211 C   0  0  0  0  0  0  0  0  0  0  0  0
   15.7691   -8.6517   17.9690 N   0  0  0  0  0  0  0  0  0  0  0  0
   14.7236   -8.0691   17.3141 N   0  0  0  0  0  0  0  0  0  0  0  0
   13.8073   -8.9348   16.6511 C   0  0  0  0  0  0  0  0  0  0  0  0
   13.8548  -10.1370   16.9092 O   0  0  0  0  0  0  0  0  0  0  0  0
   12.7394   -8.2766   15.4511 Cl  0  0  0  0  0  0  0  0  0  0  0  0
  1  2  1  0
  2  3  1  0
  3  4  1  1
  5  4  1  6
  5  6  1  0
  6  7  1  0
  7  8  1  0
  8  9  1  0
  9 10  2  0
 10 11  1  0
 11 12  2  0
 12 13  1  0
 13 14  2  0
 14 15  1  0
  8 16  1  0
  3 17  1  0
 17 18  2  0
 18 19  1  0
 19 20  2  0
 20 21  1  0
 21 22  2  0
 22 23  1  0
 23 24  2  0
 24 25  1  0
 25 26  1  0
 26 27  2  0
 26 28  1  0
 16  5  1  0
 22 17  1  0
 14  9  1  0
 25 21  1  0
M  END
>  <energy_score>  (464) 
-15.932619

>  <inchikey>  (464) 
None

>  <smiles>  (464) 
None

>  <ref_pdb>  (464) 
A1105b

>  <alias>  (464) 
None

>  <HIPPO Pose ID>  (464) 
498702

>  <name>  (464) 
P498702

>  <HIPPO Compound ID>  (464) 
293467

>  <ref_mols>  (464) 
A0497a,A1105b

>  <distance_score>  (464) 
1.180055

>  <inspiration_score>  (464) 
None

$$$$
P498706
     RDKit          3D

 28 32  0  0  0  0  0  0  0  0999 V2000
   17.7451   -2.9357   17.8220 O   0  0  0  0  0  0  0  0  0  0  0  0
   17.6924   -4.2534   18.3357 C   0  0  2  0  0  0  0  0  0  0  0  0
   16.2853   -4.7892   18.0683 C   0  0  0  0  0  0  0  0  0  0  0  0
   15.2164   -3.8759   17.8851 C   0  0  0  0  0  0  0  0  0  0  0  0
   13.9807   -4.2571   17.3805 C   0  0  0  0  0  0  0  0  0  0  0  0
   13.7219   -5.5805   17.0669 C   0  0  0  0  0  0  0  0  0  0  0  0
   14.7078   -6.5195   17.3521 C   0  0  0  0  0  0  0  0  0  0  0  0
   15.9615   -6.1606   17.8461 C   0  0  0  0  0  0  0  0  0  0  0  0
   16.6017   -7.4093   17.9970 C   0  0  0  0  0  0  0  0  0  0  0  0
   15.8814   -8.4584   17.5982 N   0  0  0  0  0  0  0  0  0  0  0  0
   14.7161   -7.8884   17.2146 N   0  0  0  0  0  0  0  0  0  0  0  0
   13.6452   -8.7126   16.6724 C   0  0  0  0  0  0  0  0  0  0  0  0
   13.2524   -8.2762   15.4404 F   0  0  0  0  0  0  0  0  0  0  0  0
   12.5379   -8.6974   17.4602 F   0  0  0  0  0  0  0  0  0  0  0  0
   18.1571   -4.1432   19.7286 N   0  0  0  0  0  0  0  0  0  0  0  0
   18.6930   -5.4414   20.2217 C   0  0  0  0  0  0  0  0  0  0  0  0
   20.2209   -5.2284   20.3502 C   0  0  2  0  0  0  0  0  0  0  0  0
   20.1659   -3.8393   20.9833 C   0  0  0  0  0  0  0  0  0  0  0  0
   19.4137   -3.2674   19.7942 C   0  0  1  0  0  0  0  0  0  0  0  0
   20.4818   -3.5674   18.6891 C   0  0  0  0  0  0  0  0  0  0  0  0
   20.8856   -4.9584   19.0259 N   0  0  0  0  0  0  0  0  0  0  0  0
   20.7165   -5.9258   18.0283 C   0  0  0  0  0  0  0  0  0  0  0  0
   20.8743   -5.6056   16.6740 C   0  0  0  0  0  0  0  0  0  0  0  0
   20.3418   -6.4370   15.6914 C   0  0  0  0  0  0  0  0  0  0  0  0
   19.7392   -7.6176   16.0719 C   0  0  0  0  0  0  0  0  0  0  0  0
   18.8043   -8.6722   14.8263 Br  0  0  0  0  0  0  0  0  0  0  0  0
   19.8120   -7.9721   17.4025 C   0  0  0  0  0  0  0  0  0  0  0  0
   20.2883   -7.1584   18.3806 N   0  0  0  0  0  0  0  0  0  0  0  0
  2  1  1  1
  2  3  1  0
  3  4  2  0
  4  5  1  0
  5  6  2  0
  6  7  1  0
  7  8  2  0
  8  9  1  0
  9 10  2  0
 10 11  1  0
 11 12  1  0
 12 13  1  0
 12 14  1  0
  2 15  1  0
 15 16  1  0
 17 16  1  6
 17 18  1  0
 18 19  1  0
 19 20  1  6
 20 21  1  0
 21 22  1  0
 22 23  2  0
 23 24  1  0
 24 25  2  0
 25 26  1  0
 25 27  1  0
 27 28  2  0
  8  3  1  0
 19 15  1  0
 28 22  1  0
 11  7  1  0
 21 17  1  0
M  END
>  <energy_score>  (465) 
-25.699451

>  <inchikey>  (465) 
None

>  <smiles>  (465) 
None

>  <ref_pdb>  (465) 
A1105b

>  <alias>  (465) 
None

>  <HIPPO Pose ID>  (465) 
498706

>  <name>  (465) 
P498706

>  <HIPPO Compound ID>  (465) 
293468

>  <ref_mols>  (465) 
A0497a,A1105b

>  <distance_score>  (465) 
1.645665

>  <inspiration_score>  (465) 
None

$$$$
P498710
     RDKit          3D

 28 31  0  0  0  0  0  0  0  0999 V2000
   16.0439   -8.0680   18.2571 C   0  0  0  0  0  0  0  0  0  0  0  0
   17.1991   -7.9700   17.3962 N   0  0  0  0  0  0  0  0  0  0  0  0
   18.4816   -7.6857   17.7757 C   0  0  0  0  0  0  0  0  0  0  0  0
   19.1961   -7.6281   16.6082 C   0  0  0  0  0  0  0  0  0  0  0  0
   20.5653   -7.3478   16.4624 C   0  0  0  0  0  0  0  0  0  0  0  0
   21.6078   -7.1155   17.5186 C   0  0  0  0  0  0  0  0  0  0  0  0
   21.5185   -5.8455   18.2248 N   0  0  0  0  0  0  0  0  0  0  0  0
   22.0407   -4.6649   17.5037 C   0  0  1  0  0  0  0  0  0  0  0  0
   21.0667   -4.1195   16.4472 C   0  0  0  0  0  0  0  0  0  0  0  0
   20.6391   -2.7368   16.9384 C   0  0  0  0  0  0  0  0  0  0  0  0
   20.8907   -2.7305   18.3846 N   0  0  0  0  0  0  0  0  0  0  0  0
   19.9875   -3.2793   19.3060 C   0  0  0  0  0  0  0  0  0  0  0  0
   20.4983   -3.4160   20.5616 N   0  0  0  0  0  0  0  0  0  0  0  0
   19.9603   -4.2979   21.4270 C   0  0  0  0  0  0  0  0  0  0  0  0
   18.8925   -5.0991   21.1163 C   0  0  0  0  0  0  0  0  0  0  0  0
   18.4715   -6.1799   22.0482 C   0  0  0  0  0  0  0  0  0  0  0  0
   17.5379   -5.7712   22.9522 F   0  0  0  0  0  0  0  0  0  0  0  0
   17.8990   -7.2359   21.4021 F   0  0  0  0  0  0  0  0  0  0  0  0
   19.4911   -6.7052   22.7791 F   0  0  0  0  0  0  0  0  0  0  0  0
   18.2577   -4.8276   19.9119 C   0  0  0  0  0  0  0  0  0  0  0  0
   18.7384   -3.8489   19.0395 C   0  0  0  0  0  0  0  0  0  0  0  0
   17.6866   -3.5310   17.7295 Cl  0  0  0  0  0  0  0  0  0  0  0  0
   22.1956   -3.4493   18.4726 C   0  0  0  0  0  0  0  0  0  0  0  0
   20.9245   -7.3762   15.0871 C   0  0  0  0  0  0  0  0  0  0  0  0
   20.0343   -7.7000   14.0195 C   0  0  0  0  0  0  0  0  0  0  0  0
   18.6784   -8.0248   14.2148 C   0  0  0  0  0  0  0  0  0  0  0  0
   18.2637   -7.9618   15.5534 C   0  0  0  0  0  0  0  0  0  0  0  0
   17.0518   -8.2076   16.0793 N   0  0  0  0  0  0  0  0  0  0  0  0
  1  2  1  0
  2  3  1  0
  3  4  2  0
  4  5  1  0
  5  6  1  0
  6  7  1  0
  8  7  1  1
  8  9  1  0
  9 10  1  0
 10 11  1  0
 11 12  1  0
 12 13  2  0
 13 14  1  0
 14 15  2  0
 15 16  1  0
 16 17  1  0
 16 18  1  0
 16 19  1  0
 15 20  1  0
 20 21  2  0
 21 22  1  0
 11 23  1  0
  5 24  2  0
 24 25  1  0
 25 26  2  0
 26 27  1  0
 27 28  2  0
 28  2  1  0
 27  4  1  0
 23  8  1  0
 21 12  1  0
M  END
>  <energy_score>  (466) 
-25.469501

>  <inchikey>  (466) 
None

>  <smiles>  (466) 
None

>  <ref_pdb>  (466) 
A1105b

>  <alias>  (466) 
None

>  <HIPPO Pose ID>  (466) 
498710

>  <name>  (466) 
P498710

>  <HIPPO Compound ID>  (466) 
293469

>  <ref_mols>  (466) 
A0497a,A1105b

>  <distance_score>  (466) 
1.200869

>  <inspiration_score>  (466) 
None

$$$$
P498712
     RDKit          3D

 29 33  0  0  0  0  0  0  0  0999 V2000
   16.0595  -10.3774   13.4074 C   0  0  0  0  0  0  0  0  0  0  0  0
   17.1517   -9.4417   13.7312 C   0  0  0  0  0  0  0  0  0  0  0  0
   17.8183   -8.7626   12.7885 N   0  0  0  0  0  0  0  0  0  0  0  0
   18.7293   -8.0058   13.5340 O   0  0  0  0  0  0  0  0  0  0  0  0
   18.4949   -8.2932   14.8480 C   0  0  0  0  0  0  0  0  0  0  0  0
   19.2728   -7.5744   15.8322 C   0  0  0  0  0  0  0  0  0  0  0  0
   20.1110   -6.5055   15.5378 C   0  0  0  0  0  0  0  0  0  0  0  0
   20.6758   -5.7582   16.5723 C   0  0  0  0  0  0  0  0  0  0  0  0
   20.3639   -6.0622   17.8973 C   0  0  0  0  0  0  0  0  0  0  0  0
   20.6327   -5.1651   18.9362 N   0  0  0  0  0  0  0  0  0  0  0  0
   20.5920   -3.7200   18.6462 C   0  0  0  0  0  0  0  0  0  0  0  0
   19.9455   -3.0751   19.8739 C   0  0  0  0  0  0  0  0  0  0  0  0
   19.0740   -4.1731   20.4769 C   0  0  1  0  0  0  0  0  0  0  0  0
   17.6853   -4.2233   19.9839 N   0  0  0  0  0  0  0  0  0  0  0  0
   17.5389   -4.3876   18.5395 C   0  0  0  0  0  0  0  0  0  0  0  0
   16.1653   -4.7663   18.0976 C   0  0  0  0  0  0  0  0  0  0  0  0
   15.2034   -3.7868   17.7773 C   0  0  0  0  0  0  0  0  0  0  0  0
   13.9482   -4.0767   17.1880 C   0  0  0  0  0  0  0  0  0  0  0  0
   13.5144   -5.3783   16.8954 C   0  0  0  0  0  0  0  0  0  0  0  0
   14.3922   -6.3909   17.2811 C   0  0  0  0  0  0  0  0  0  0  0  0
   14.2719   -7.7257   17.1679 N   0  0  0  0  0  0  0  0  0  0  0  0
   15.3574   -8.2020   17.8097 N   0  0  0  0  0  0  0  0  0  0  0  0
   15.4950   -9.6256   17.9899 C   0  0  0  0  0  0  0  0  0  0  0  0
   16.2207   -7.2416   18.2436 C   0  0  0  0  0  0  0  0  0  0  0  0
   15.6591   -6.0550   17.8649 C   0  0  0  0  0  0  0  0  0  0  0  0
   19.9372   -5.4290   20.2122 C   0  0  0  0  0  0  0  0  0  0  0  0
   19.6902   -7.2036   18.1803 N   0  0  0  0  0  0  0  0  0  0  0  0
   19.1652   -7.9181   17.1622 C   0  0  0  0  0  0  0  0  0  0  0  0
   17.5468   -9.1910   15.0183 N   0  0  0  0  0  0  0  0  0  0  0  0
  1  2  1  0
  2  3  2  0
  3  4  1  0
  4  5  1  0
  5  6  1  0
  6  7  2  0
  7  8  1  0
  8  9  2  0
  9 10  1  0
 10 11  1  0
 11 12  1  0
 12 13  1  0
 13 14  1  6
 14 15  1  0
 15 16  1  0
 16 17  2  0
 17 18  1  0
 18 19  2  0
 19 20  1  0
 20 21  2  0
 21 22  1  0
 22 23  1  0
 22 24  1  0
 24 25  2  0
 13 26  1  0
  9 27  1  0
 27 28  2  0
  5 29  2  0
 29  2  1  0
 28  6  1  0
 26 10  1  0
 25 16  1  0
 25 20  1  0
M  END
>  <energy_score>  (467) 
-34.151566

>  <inchikey>  (467) 
None

>  <smiles>  (467) 
None

>  <ref_pdb>  (467) 
A1105b

>  <alias>  (467) 
None

>  <HIPPO Pose ID>  (467) 
498712

>  <name>  (467) 
P498712

>  <HIPPO Compound ID>  (467) 
293470

>  <ref_mols>  (467) 
A0497a,A1105b

>  <distance_score>  (467) 
1.656123

>  <inspiration_score>  (467) 
None

$$$$
P498718
     RDKit          3D

 29 32  0  0  0  0  0  0  0  0999 V2000
   16.0863   -6.6360   17.7198 C   0  0  0  0  0  0  0  0  0  0  0  0
   17.2350   -7.0850   16.9706 N   0  0  0  0  0  0  0  0  0  0  0  0
   18.3571   -6.3605   16.6912 C   0  0  0  0  0  0  0  0  0  0  0  0
   19.1306   -7.1585   15.8936 C   0  0  0  0  0  0  0  0  0  0  0  0
   20.3534   -6.8437   15.2694 C   0  0  0  0  0  0  0  0  0  0  0  0
   21.1169   -5.5546   15.1587 C   0  0  0  0  0  0  0  0  0  0  0  0
   22.0880   -5.3301   16.2288 N   0  0  0  0  0  0  0  0  0  0  0  0
   21.5205   -4.3800   17.1887 C   0  0  2  0  0  0  0  0  0  0  0  0
   21.5071   -2.9125   16.7299 C   0  0  0  0  0  0  0  0  0  0  0  0
   21.4647   -2.0998   18.0282 C   0  0  0  0  0  0  0  0  0  0  0  0
   21.6474   -3.0644   19.1083 N   0  0  0  0  0  0  0  0  0  0  0  0
   20.6345   -3.4304   19.9789 C   0  0  0  0  0  0  0  0  0  0  0  0
   21.1534   -3.9615   21.1113 N   0  0  0  0  0  0  0  0  0  0  0  0
   20.3468   -4.4321   22.0694 C   0  0  0  0  0  0  0  0  0  0  0  0
   18.9761   -4.4072   21.9956 C   0  0  0  0  0  0  0  0  0  0  0  0
   18.2434   -4.9206   23.1840 C   0  0  0  0  0  0  0  0  0  0  0  0
   16.9097   -5.0192   22.9949 F   0  0  0  0  0  0  0  0  0  0  0  0
   18.6382   -6.1803   23.5300 F   0  0  0  0  0  0  0  0  0  0  0  0
   18.4273   -4.1626   24.2960 F   0  0  0  0  0  0  0  0  0  0  0  0
   18.4103   -3.8650   20.8431 C   0  0  0  0  0  0  0  0  0  0  0  0
   19.2374   -3.3798   19.8158 C   0  0  0  0  0  0  0  0  0  0  0  0
   18.4058   -2.8296   18.4159 Cl  0  0  0  0  0  0  0  0  0  0  0  0
   22.2646   -4.2696   18.5210 C   0  0  0  0  0  0  0  0  0  0  0  0
   20.8207   -7.9598   14.5289 C   0  0  0  0  0  0  0  0  0  0  0  0
   20.1144   -9.1859   14.3852 C   0  0  0  0  0  0  0  0  0  0  0  0
   20.8956  -10.5471   13.3110 Br  0  0  0  0  0  0  0  0  0  0  0  0
   18.8698   -9.4513   14.9762 C   0  0  0  0  0  0  0  0  0  0  0  0
   18.3864   -8.3947   15.7569 C   0  0  0  0  0  0  0  0  0  0  0  0
   17.2331   -8.3240   16.4432 N   0  0  0  0  0  0  0  0  0  0  0  0
  1  2  1  0
  2  3  1  0
  3  4  2  0
  4  5  1  0
  5  6  1  0
  6  7  1  0
  8  7  1  6
  8  9  1  0
  9 10  1  0
 10 11  1  0
 11 12  1  0
 12 13  2  0
 13 14  1  0
 14 15  2  0
 15 16  1  0
 16 17  1  0
 16 18  1  0
 16 19  1  0
 15 20  1  0
 20 21  2  0
 21 22  1  0
 11 23  1  0
  5 24  2  0
 24 25  1  0
 25 26  1  0
 25 27  2  0
 27 28  1  0
 28 29  2  0
 29  2  1  0
 28  4  1  0
 23  8  1  0
 21 12  1  0
M  END
>  <energy_score>  (468) 
-39.523008

>  <inchikey>  (468) 
None

>  <smiles>  (468) 
None

>  <ref_pdb>  (468) 
A1105b

>  <alias>  (468) 
None

>  <HIPPO Pose ID>  (468) 
498718

>  <name>  (468) 
P498718

>  <HIPPO Compound ID>  (468) 
293473

>  <ref_mols>  (468) 
A0497a,A1105b

>  <distance_score>  (468) 
1.798507

>  <inspiration_score>  (468) 
None

$$$$
P498721
     RDKit          3D

 29 32  0  0  0  0  0  0  0  0999 V2000
   15.6303   -7.8624   17.8148 C   0  0  0  0  0  0  0  0  0  0  0  0
   16.8950   -7.8081   17.1186 N   0  0  0  0  0  0  0  0  0  0  0  0
   18.0681   -7.3100   17.6058 C   0  0  0  0  0  0  0  0  0  0  0  0
   18.9583   -7.3882   16.5687 C   0  0  0  0  0  0  0  0  0  0  0  0
   20.2948   -6.9546   16.5755 C   0  0  0  0  0  0  0  0  0  0  0  0
   21.0721   -6.3236   17.7068 C   0  0  2  0  0  0  0  0  0  0  0  0
   22.1455   -5.5878   17.1651 O   0  0  0  0  0  0  0  0  0  0  0  0
   21.6591   -7.3162   18.5994 N   0  0  0  0  0  0  0  0  0  0  0  0
   21.8186   -6.8843   20.0078 C   0  0  1  0  0  0  0  0  0  0  0  0
   22.6191   -5.5983   20.2730 C   0  0  0  0  0  0  0  0  0  0  0  0
   21.9394   -4.9777   21.4950 C   0  0  0  0  0  0  0  0  0  0  0  0
   20.5171   -5.3396   21.3584 N   0  0  0  0  0  0  0  0  0  0  0  0
   19.7771   -4.4578   20.5262 C   0  0  0  0  0  0  0  0  0  0  0  0
   20.4088   -3.4248   19.9262 N   0  0  0  0  0  0  0  0  0  0  0  0
   19.7731   -2.7712   18.9258 C   0  0  0  0  0  0  0  0  0  0  0  0
   18.4885   -3.0607   18.5113 C   0  0  0  0  0  0  0  0  0  0  0  0
   17.7891   -4.0337   19.2027 C   0  0  0  0  0  0  0  0  0  0  0  0
   18.4348   -4.7234   20.2256 C   0  0  0  0  0  0  0  0  0  0  0  0
   17.8011   -5.7333   20.8425 F   0  0  0  0  0  0  0  0  0  0  0  0
   20.5115   -6.7225   20.8353 C   0  0  0  0  0  0  0  0  0  0  0  0
   20.8737   -7.1992   15.3002 C   0  0  0  0  0  0  0  0  0  0  0  0
   20.2006   -7.8015   14.1950 C   0  0  0  0  0  0  0  0  0  0  0  0
   18.8554   -8.2489   14.2334 C   0  0  0  0  0  0  0  0  0  0  0  0
   18.1784   -8.8614   13.0595 C   0  0  0  0  0  0  0  0  0  0  0  0
   17.3333   -8.0033   12.4165 F   0  0  0  0  0  0  0  0  0  0  0  0
   19.0652   -9.2614   12.0965 F   0  0  0  0  0  0  0  0  0  0  0  0
   17.4477   -9.9738   13.3459 F   0  0  0  0  0  0  0  0  0  0  0  0
   18.2382   -8.0087   15.4716 C   0  0  0  0  0  0  0  0  0  0  0  0
   16.9830   -8.2895   15.8655 N   0  0  0  0  0  0  0  0  0  0  0  0
  1  2  1  0
  2  3  1  0
  3  4  2  0
  4  5  1  0
  5  6  1  0
  6  7  1  6
  6  8  1  0
  9  8  1  6
  9 10  1  0
 10 11  1  0
 11 12  1  0
 12 13  1  0
 13 14  2  0
 14 15  1  0
 15 16  2  0
 16 17  1  0
 17 18  2  0
 18 19  1  0
 12 20  1  0
  5 21  2  0
 21 22  1  0
 22 23  2  0
 23 24  1  0
 24 25  1  0
 24 26  1  0
 24 27  1  0
 23 28  1  0
 28 29  2  0
 29  2  1  0
 28  4  1  0
 20  9  1  0
 18 13  1  0
M  END
>  <energy_score>  (469) 
-60.124422

>  <inchikey>  (469) 
None

>  <smiles>  (469) 
None

>  <ref_pdb>  (469) 
A1105b

>  <alias>  (469) 
None

>  <HIPPO Pose ID>  (469) 
498721

>  <name>  (469) 
P498721

>  <HIPPO Compound ID>  (469) 
293475

>  <ref_mols>  (469) 
A0497a,A1105b

>  <distance_score>  (469) 
0.803546

>  <inspiration_score>  (469) 
None

$$$$
P498725
     RDKit          3D

 29 32  0  0  0  0  0  0  0  0999 V2000
   15.6223   -8.2381   17.7150 C   0  0  0  0  0  0  0  0  0  0  0  0
   16.9304   -8.0871   17.1212 N   0  0  0  0  0  0  0  0  0  0  0  0
   18.0899   -7.7851   17.7723 C   0  0  0  0  0  0  0  0  0  0  0  0
   19.0279   -7.6299   16.7860 C   0  0  0  0  0  0  0  0  0  0  0  0
   20.3807   -7.2967   16.9665 C   0  0  0  0  0  0  0  0  0  0  0  0
   21.1443   -7.2014   18.2668 C   0  0  1  0  0  0  0  0  0  0  0  0
   22.1421   -8.2111   18.2865 O   0  0  0  0  0  0  0  0  0  0  0  0
   21.7718   -5.9162   18.4814 N   0  0  0  0  0  0  0  0  0  0  0  0
   22.4357   -5.7862   19.7989 C   0  0  1  0  0  0  0  0  0  0  0  0
   23.0171   -4.3656   19.9707 C   0  0  0  0  0  0  0  0  0  0  0  0
   22.2076   -3.7028   21.1035 C   0  0  0  0  0  0  0  0  0  0  0  0
   20.9951   -4.5342   21.2743 N   0  0  0  0  0  0  0  0  0  0  0  0
   19.9667   -4.1678   20.3555 C   0  0  0  0  0  0  0  0  0  0  0  0
   20.2200   -3.1342   19.5150 N   0  0  0  0  0  0  0  0  0  0  0  0
   19.3983   -2.9166   18.4683 C   0  0  0  0  0  0  0  0  0  0  0  0
   18.2521   -3.6355   18.2323 C   0  0  0  0  0  0  0  0  0  0  0  0
   17.9208   -4.6205   19.1461 C   0  0  0  0  0  0  0  0  0  0  0  0
   18.7588   -4.8772   20.2386 C   0  0  0  0  0  0  0  0  0  0  0  0
   18.2663   -6.0680   21.3965 Cl  0  0  0  0  0  0  0  0  0  0  0  0
   21.5024   -5.9041   21.0287 C   0  0  0  0  0  0  0  0  0  0  0  0
   21.0278   -7.2184   15.7047 C   0  0  0  0  0  0  0  0  0  0  0  0
   20.4074   -7.5262   14.4565 C   0  0  0  0  0  0  0  0  0  0  0  0
   19.0548   -7.9399   14.3186 C   0  0  0  0  0  0  0  0  0  0  0  0
   18.4954   -8.3878   13.0151 C   0  0  0  0  0  0  0  0  0  0  0  0
   18.5737   -9.7394   12.8488 F   0  0  0  0  0  0  0  0  0  0  0  0
   19.1748   -7.8625   11.9481 F   0  0  0  0  0  0  0  0  0  0  0  0
   17.1946   -8.0566   12.7903 F   0  0  0  0  0  0  0  0  0  0  0  0
   18.3601   -7.9529   15.5395 C   0  0  0  0  0  0  0  0  0  0  0  0
   17.0832   -8.2885   15.7988 N   0  0  0  0  0  0  0  0  0  0  0  0
  1  2  1  0
  2  3  1  0
  3  4  2  0
  4  5  1  0
  5  6  1  0
  6  7  1  6
  6  8  1  0
  9  8  1  6
  9 10  1  0
 10 11  1  0
 11 12  1  0
 12 13  1  0
 13 14  2  0
 14 15  1  0
 15 16  2  0
 16 17  1  0
 17 18  2  0
 18 19  1  0
 12 20  1  0
  5 21  2  0
 21 22  1  0
 22 23  2  0
 23 24  1  0
 24 25  1  0
 24 26  1  0
 24 27  1  0
 23 28  1  0
 28 29  2  0
 29  2  1  0
 28  4  1  0
 20  9  1  0
 18 13  1  0
M  END
>  <energy_score>  (470) 
-52.072469

>  <inchikey>  (470) 
None

>  <smiles>  (470) 
None

>  <ref_pdb>  (470) 
A1105b

>  <alias>  (470) 
None

>  <HIPPO Pose ID>  (470) 
498725

>  <name>  (470) 
P498725

>  <HIPPO Compound ID>  (470) 
293476

>  <ref_mols>  (470) 
A0497a,A1105b

>  <distance_score>  (470) 
0.976737

>  <inspiration_score>  (470) 
None

$$$$
P498727
     RDKit          3D

 29 32  0  0  0  0  0  0  0  0999 V2000
   19.3378   -8.4657   17.6587 C   0  0  0  0  0  0  0  0  0  0  0  0
   19.8697   -7.1358   17.2616 C   0  0  0  0  0  0  0  0  0  0  0  0
   20.1163   -6.8614   15.9308 C   0  0  0  0  0  0  0  0  0  0  0  0
   20.7777   -5.6857   15.6287 C   0  0  0  0  0  0  0  0  0  0  0  0
   21.1185   -4.8072   16.6534 C   0  0  0  0  0  0  0  0  0  0  0  0
   20.7609   -5.0956   17.9692 C   0  0  0  0  0  0  0  0  0  0  0  0
   20.9495   -4.1548   19.0071 N   0  0  0  0  0  0  0  0  0  0  0  0
   20.3665   -2.8267   18.6858 C   0  0  0  0  0  0  0  0  0  0  0  0
   19.3077   -2.5601   19.7624 C   0  0  0  0  0  0  0  0  0  0  0  0
   18.9357   -3.9398   20.3016 C   0  0  1  0  0  0  0  0  0  0  0  0
   18.0211   -4.7991   19.5327 N   0  0  0  0  0  0  0  0  0  0  0  0
   17.0265   -4.1879   18.6797 C   0  0  1  0  0  0  0  0  0  0  0  0
   17.6492   -3.4789   17.6353 O   0  0  0  0  0  0  0  0  0  0  0  0
   16.0342   -5.1848   18.0968 C   0  0  0  0  0  0  0  0  0  0  0  0
   14.8444   -4.7148   17.4710 C   0  0  0  0  0  0  0  0  0  0  0  0
   13.8429   -5.5554   16.8771 C   0  0  0  0  0  0  0  0  0  0  0  0
   13.9268   -6.9718   16.8058 C   0  0  0  0  0  0  0  0  0  0  0  0
   13.0615   -7.8996   16.0292 C   0  0  0  0  0  0  0  0  0  0  0  0
   12.1100   -8.5338   16.7626 F   0  0  0  0  0  0  0  0  0  0  0  0
   12.3997   -7.2842   15.0077 F   0  0  0  0  0  0  0  0  0  0  0  0
   13.7598   -8.8903   15.3945 F   0  0  0  0  0  0  0  0  0  0  0  0
   14.9886   -7.4613   17.5614 C   0  0  0  0  0  0  0  0  0  0  0  0
   15.2652   -8.7443   17.8509 N   0  0  0  0  0  0  0  0  0  0  0  0
   16.2329   -8.6733   18.7673 N   0  0  0  0  0  0  0  0  0  0  0  0
   16.6293   -9.8724   19.4648 C   0  0  0  0  0  0  0  0  0  0  0  0
   16.7383   -7.4211   18.9382 C   0  0  0  0  0  0  0  0  0  0  0  0
   15.9762   -6.5920   18.1572 C   0  0  0  0  0  0  0  0  0  0  0  0
   20.3616   -4.5672   20.3090 C   0  0  0  0  0  0  0  0  0  0  0  0
   20.1784   -6.2795   18.2615 N   0  0  0  0  0  0  0  0  0  0  0  0
  1  2  1  0
  2  3  2  0
  3  4  1  0
  4  5  2  0
  5  6  1  0
  6  7  1  0
  7  8  1  0
  8  9  1  0
  9 10  1  0
 10 11  1  6
 11 12  1  0
 12 13  1  6
 12 14  1  0
 14 15  2  0
 15 16  1  0
 16 17  2  0
 17 18  1  0
 18 19  1  0
 18 20  1  0
 18 21  1  0
 17 22  1  0
 22 23  2  0
 23 24  1  0
 24 25  1  0
 24 26  1  0
 26 27  2  0
 10 28  1  0
  6 29  2  0
 29  2  1  0
 28  7  1  0
 27 14  1  0
 27 22  1  0
M  END
>  <energy_score>  (471) 
-34.665614

>  <inchikey>  (471) 
None

>  <smiles>  (471) 
None

>  <ref_pdb>  (471) 
A1105b

>  <alias>  (471) 
None

>  <HIPPO Pose ID>  (471) 
498727

>  <name>  (471) 
P498727

>  <HIPPO Compound ID>  (471) 
293477

>  <ref_mols>  (471) 
A0497a,A1105b

>  <distance_score>  (471) 
1.575395

>  <inspiration_score>  (471) 
None

$$$$
P498733
     RDKit          3D

 30 34  0  0  0  0  0  0  0  0999 V2000
   15.8788   -7.1366   17.6166 C   0  0  0  0  0  0  0  0  0  0  0  0
   17.0842   -7.3559   16.8521 N   0  0  0  0  0  0  0  0  0  0  0  0
   18.1875   -6.5515   16.8168 C   0  0  0  0  0  0  0  0  0  0  0  0
   19.0205   -7.1141   15.8865 C   0  0  0  0  0  0  0  0  0  0  0  0
   20.2586   -6.6204   15.4339 C   0  0  0  0  0  0  0  0  0  0  0  0
   20.9695   -5.3580   15.8198 C   0  0  0  0  0  0  0  0  0  0  0  0
   22.1466   -5.6306   16.6484 N   0  0  0  0  0  0  0  0  0  0  0  0
   22.5335   -4.5577   17.5752 C   0  0  0  0  0  0  0  0  0  0  0  0
   23.2907   -3.3745   16.9314 C   0  0  0  0  0  0  0  0  0  0  0  0
   23.2600   -2.1339   17.8595 C   0  0  0  0  0  0  0  0  0  0  0  0
   21.8917   -1.6644   18.1428 N   0  0  0  0  0  0  0  0  0  0  0  0
   21.7234   -0.8730   19.3867 C   0  0  2  0  0  0  0  0  0  0  0  0
   22.3262   -1.4430   20.6912 C   0  0  0  0  0  0  0  0  0  0  0  0
   21.2943   -1.1363   21.7818 C   0  0  0  0  0  0  0  0  0  0  0  0
   19.9966   -1.1661   21.0838 N   0  0  0  0  0  0  0  0  0  0  0  0
   19.4490   -2.4603   20.9551 C   0  0  0  0  0  0  0  0  0  0  0  0
   18.3260   -2.7136   20.1575 C   0  0  0  0  0  0  0  0  0  0  0  0
   17.9106   -4.0300   19.9245 C   0  0  0  0  0  0  0  0  0  0  0  0
   18.5633   -5.0662   20.5749 C   0  0  0  0  0  0  0  0  0  0  0  0
   18.1576   -6.7165   20.3547 Cl  0  0  0  0  0  0  0  0  0  0  0  0
   19.5957   -4.7379   21.4239 C   0  0  0  0  0  0  0  0  0  0  0  0
   20.0440   -3.4778   21.6136 N   0  0  0  0  0  0  0  0  0  0  0  0
   20.2638   -0.4768   19.8065 C   0  0  0  0  0  0  0  0  0  0  0  0
   20.8949   -2.7046   17.9032 C   0  0  0  0  0  0  0  0  0  0  0  0
   21.3527   -4.0646   18.4119 C   0  0  0  0  0  0  0  0  0  0  0  0
   20.7914   -7.4642   14.4288 C   0  0  0  0  0  0  0  0  0  0  0  0
   20.1450   -8.6327   13.9319 C   0  0  0  0  0  0  0  0  0  0  0  0
   18.8933   -9.0853   14.3941 C   0  0  0  0  0  0  0  0  0  0  0  0
   18.3313   -8.2870   15.4011 C   0  0  0  0  0  0  0  0  0  0  0  0
   17.1542   -8.4268   16.0349 N   0  0  0  0  0  0  0  0  0  0  0  0
  1  2  1  0
  2  3  1  0
  3  4  2  0
  4  5  1  0
  5  6  1  0
  6  7  1  0
  7  8  1  0
  8  9  1  0
  9 10  1  0
 10 11  1  0
 12 11  1  6
 12 13  1  0
 13 14  1  0
 14 15  1  0
 15 16  1  0
 16 17  2  0
 17 18  1  0
 18 19  2  0
 19 20  1  0
 19 21  1  0
 21 22  2  0
 15 23  1  0
 11 24  1  0
 24 25  1  0
  5 26  2  0
 26 27  1  0
 27 28  2  0
 28 29  1  0
 29 30  2  0
 30  2  1  0
 29  4  1  0
 25  8  1  0
 23 12  1  0
 22 16  1  0
M  END
>  <energy_score>  (472) 
-29.932622

>  <inchikey>  (472) 
None

>  <smiles>  (472) 
None

>  <ref_pdb>  (472) 
A1105b

>  <alias>  (472) 
None

>  <HIPPO Pose ID>  (472) 
498733

>  <name>  (472) 
P498733

>  <HIPPO Compound ID>  (472) 
293479

>  <ref_mols>  (472) 
A0497a,A1105b

>  <distance_score>  (472) 
1.318077

>  <inspiration_score>  (472) 
None

$$$$
P498734
     RDKit          3D

 30 33  0  0  0  0  0  0  0  0999 V2000
   15.8868   -8.0176   18.2492 C   0  0  0  0  0  0  0  0  0  0  0  0
   17.0603   -7.8904   17.4173 N   0  0  0  0  0  0  0  0  0  0  0  0
   18.3105   -7.5072   17.8168 C   0  0  0  0  0  0  0  0  0  0  0  0
   19.0810   -7.5009   16.6809 C   0  0  0  0  0  0  0  0  0  0  0  0
   20.4461   -7.1711   16.5443 C   0  0  0  0  0  0  0  0  0  0  0  0
   21.5356   -6.7982   17.5343 C   0  0  2  0  0  0  0  0  0  0  0  0
   22.6447   -7.6343   17.2530 O   0  0  0  0  0  0  0  0  0  0  0  0
   21.2066   -7.0099   18.9311 N   0  0  0  0  0  0  0  0  0  0  0  0
   22.2720   -6.5126   19.8392 C   0  0  2  0  0  0  0  0  0  0  0  0
   21.9499   -6.9672   21.2637 C   0  0  0  0  0  0  0  0  0  0  0  0
   20.8902   -5.9711   21.7423 C   0  0  0  0  0  0  0  0  0  0  0  0
   21.1285   -4.7279   20.9670 N   0  0  0  0  0  0  0  0  0  0  0  0
   19.9610   -4.2804   20.3137 C   0  0  0  0  0  0  0  0  0  0  0  0
   19.9420   -4.3352   18.9600 N   0  0  0  0  0  0  0  0  0  0  0  0
   18.8034   -4.0626   18.2800 C   0  0  0  0  0  0  0  0  0  0  0  0
   17.6227   -3.7392   18.8997 C   0  0  0  0  0  0  0  0  0  0  0  0
   16.3312   -3.6774   18.1507 C   0  0  0  0  0  0  0  0  0  0  0  0
   16.4682   -3.6461   16.8118 F   0  0  0  0  0  0  0  0  0  0  0  0
   15.5716   -4.7802   18.3873 F   0  0  0  0  0  0  0  0  0  0  0  0
   15.5804   -2.6099   18.5050 F   0  0  0  0  0  0  0  0  0  0  0  0
   17.6649   -3.5818   20.2834 C   0  0  0  0  0  0  0  0  0  0  0  0
   18.8220   -3.8627   21.0035 C   0  0  0  0  0  0  0  0  0  0  0  0
   18.7661   -3.6922   22.7215 Cl  0  0  0  0  0  0  0  0  0  0  0  0
   22.2779   -4.9804   20.0625 C   0  0  0  0  0  0  0  0  0  0  0  0
   20.8073   -7.2398   15.1597 C   0  0  0  0  0  0  0  0  0  0  0  0
   19.9522   -7.6596   14.1007 C   0  0  0  0  0  0  0  0  0  0  0  0
   20.6630   -7.7159   12.3388 Br  0  0  0  0  0  0  0  0  0  0  0  0
   18.6195   -8.0461   14.2873 C   0  0  0  0  0  0  0  0  0  0  0  0
   18.1876   -7.9331   15.6155 C   0  0  0  0  0  0  0  0  0  0  0  0
   16.9707   -8.2054   16.1151 N   0  0  0  0  0  0  0  0  0  0  0  0
  1  2  1  0
  2  3  1  0
  3  4  2  0
  4  5  1  0
  5  6  1  0
  6  7  1  6
  6  8  1  0
  9  8  1  6
  9 10  1  0
 10 11  1  0
 11 12  1  0
 12 13  1  0
 13 14  2  0
 14 15  1  0
 15 16  2  0
 16 17  1  0
 17 18  1  0
 17 19  1  0
 17 20  1  0
 16 21  1  0
 21 22  2  0
 22 23  1  0
 12 24  1  0
  5 25  2  0
 25 26  1  0
 26 27  1  0
 26 28  2  0
 28 29  1  0
 29 30  2  0
 30  2  1  0
 29  4  1  0
 24  9  1  0
 22 13  1  0
M  END
>  <energy_score>  (473) 
-52.769501

>  <inchikey>  (473) 
None

>  <smiles>  (473) 
None

>  <ref_pdb>  (473) 
A1105b

>  <alias>  (473) 
None

>  <HIPPO Pose ID>  (473) 
498734

>  <name>  (473) 
P498734

>  <HIPPO Compound ID>  (473) 
293480

>  <ref_mols>  (473) 
A0497a,A1105b

>  <distance_score>  (473) 
1.389008

>  <inspiration_score>  (473) 
None

$$$$
P498740
     RDKit          3D

 30 33  0  0  0  0  0  0  0  0999 V2000
   15.6960   -8.4103   17.7778 C   0  0  0  0  0  0  0  0  0  0  0  0
   16.9773   -8.2195   17.1395 N   0  0  0  0  0  0  0  0  0  0  0  0
   18.1765   -8.0101   17.7583 C   0  0  0  0  0  0  0  0  0  0  0  0
   19.0679   -7.7434   16.7510 C   0  0  0  0  0  0  0  0  0  0  0  0
   20.4351   -7.4187   16.8900 C   0  0  0  0  0  0  0  0  0  0  0  0
   21.2164   -7.4360   18.1838 C   0  0  1  0  0  0  0  0  0  0  0  0
   22.2165   -8.4417   18.1513 O   0  0  0  0  0  0  0  0  0  0  0  0
   21.8105   -6.1592   18.5366 N   0  0  0  0  0  0  0  0  0  0  0  0
   22.5644   -6.1819   19.8137 C   0  0  1  0  0  0  0  0  0  0  0  0
   23.1026   -4.7709   20.1417 C   0  0  0  0  0  0  0  0  0  0  0  0
   22.3899   -4.3304   21.4357 C   0  0  0  0  0  0  0  0  0  0  0  0
   21.2114   -5.2166   21.5619 N   0  0  0  0  0  0  0  0  0  0  0  0
   20.1078   -4.7484   20.7930 C   0  0  0  0  0  0  0  0  0  0  0  0
   20.2338   -3.5438   20.1758 N   0  0  0  0  0  0  0  0  0  0  0  0
   19.3219   -3.1709   19.2559 C   0  0  0  0  0  0  0  0  0  0  0  0
   18.2434   -3.9493   18.9001 C   0  0  0  0  0  0  0  0  0  0  0  0
   17.2537   -3.4589   17.9084 C   0  0  0  0  0  0  0  0  0  0  0  0
   17.8243   -2.6272   17.0126 F   0  0  0  0  0  0  0  0  0  0  0  0
   16.6128   -4.4435   17.2285 F   0  0  0  0  0  0  0  0  0  0  0  0
   16.2740   -2.7424   18.5275 F   0  0  0  0  0  0  0  0  0  0  0  0
   18.0671   -5.1436   19.5786 C   0  0  0  0  0  0  0  0  0  0  0  0
   18.9475   -5.5124   20.5905 C   0  0  0  0  0  0  0  0  0  0  0  0
   18.5082   -6.8770   21.5623 Cl  0  0  0  0  0  0  0  0  0  0  0  0
   21.7327   -6.5175   21.0763 C   0  0  0  0  0  0  0  0  0  0  0  0
   20.9995   -7.2092   15.5942 C   0  0  0  0  0  0  0  0  0  0  0  0
   22.8396   -6.7122   15.3947 Br  0  0  0  0  0  0  0  0  0  0  0  0
   20.2972   -7.3924   14.3567 C   0  0  0  0  0  0  0  0  0  0  0  0
   18.9507   -7.7937   14.2765 C   0  0  0  0  0  0  0  0  0  0  0  0
   18.3291   -7.9339   15.5220 C   0  0  0  0  0  0  0  0  0  0  0  0
   17.0611   -8.2811   15.7997 N   0  0  0  0  0  0  0  0  0  0  0  0
  1  2  1  0
  2  3  1  0
  3  4  2  0
  4  5  1  0
  5  6  1  0
  6  7  1  6
  6  8  1  0
  9  8  1  6
  9 10  1  0
 10 11  1  0
 11 12  1  0
 12 13  1  0
 13 14  2  0
 14 15  1  0
 15 16  2  0
 16 17  1  0
 17 18  1  0
 17 19  1  0
 17 20  1  0
 16 21  1  0
 21 22  2  0
 22 23  1  0
 12 24  1  0
  5 25  2  0
 25 26  1  0
 25 27  1  0
 27 28  2  0
 28 29  1  0
 29 30  2  0
 30  2  1  0
 29  4  1  0
 24  9  1  0
 22 13  1  0
M  END
>  <energy_score>  (474) 
-76.039224

>  <inchikey>  (474) 
None

>  <smiles>  (474) 
None

>  <ref_pdb>  (474) 
A1105b

>  <alias>  (474) 
None

>  <HIPPO Pose ID>  (474) 
498740

>  <name>  (474) 
P498740

>  <HIPPO Compound ID>  (474) 
293481

>  <ref_mols>  (474) 
A0497a,A1105b

>  <distance_score>  (474) 
1.122732

>  <inspiration_score>  (474) 
None

$$$$
P498744
     RDKit          3D

 30 33  0  0  0  0  0  0  0  0999 V2000
   18.1970   -8.6414   12.8412 C   0  0  0  0  0  0  0  0  0  0  0  0
   18.8769   -8.1267   14.0647 C   0  0  0  0  0  0  0  0  0  0  0  0
   20.1968   -7.6308   14.0317 C   0  0  0  0  0  0  0  0  0  0  0  0
   20.9057   -7.1796   15.1875 C   0  0  0  0  0  0  0  0  0  0  0  0
   20.4267   -7.2109   16.5347 C   0  0  0  0  0  0  0  0  0  0  0  0
   21.3104   -6.7101   17.6701 C   0  0  2  0  0  0  0  0  0  0  0  0
   22.6622   -6.7293   17.2443 O   0  0  0  0  0  0  0  0  0  0  0  0
   21.2555   -7.5160   18.8820 N   0  0  0  0  0  0  0  0  0  0  0  0
   22.2333   -7.1121   19.9282 C   0  0  2  0  0  0  0  0  0  0  0  0
   21.8383   -7.7631   21.2716 C   0  0  0  0  0  0  0  0  0  0  0  0
   21.3573   -6.6213   22.1798 C   0  0  0  0  0  0  0  0  0  0  0  0
   21.2710   -5.4339   21.3356 N   0  0  0  0  0  0  0  0  0  0  0  0
   20.1213   -4.9372   20.7322 C   0  0  0  0  0  0  0  0  0  0  0  0
   20.3107   -3.7229   20.1447 N   0  0  0  0  0  0  0  0  0  0  0  0
   19.4015   -3.2366   19.2736 C   0  0  0  0  0  0  0  0  0  0  0  0
   18.2715   -3.9284   18.9153 C   0  0  0  0  0  0  0  0  0  0  0  0
   17.3011   -3.3805   17.9344 C   0  0  0  0  0  0  0  0  0  0  0  0
   16.6386   -4.3358   17.2307 F   0  0  0  0  0  0  0  0  0  0  0  0
   16.3382   -2.6624   18.5699 F   0  0  0  0  0  0  0  0  0  0  0  0
   17.9017   -2.5531   17.0557 F   0  0  0  0  0  0  0  0  0  0  0  0
   18.0357   -5.1280   19.5620 C   0  0  0  0  0  0  0  0  0  0  0  0
   18.9084   -5.6083   20.5373 C   0  0  0  0  0  0  0  0  0  0  0  0
   18.4097   -7.0680   21.3153 Cl  0  0  0  0  0  0  0  0  0  0  0  0
   22.3318   -5.6124   20.3159 C   0  0  0  0  0  0  0  0  0  0  0  0
   19.0913   -7.6629   16.5166 C   0  0  0  0  0  0  0  0  0  0  0  0
   18.2498   -7.8331   17.5820 C   0  0  0  0  0  0  0  0  0  0  0  0
   17.0504   -8.2210   17.0604 N   0  0  0  0  0  0  0  0  0  0  0  0
   15.8160   -8.4158   17.7835 C   0  0  0  0  0  0  0  0  0  0  0  0
   17.0857   -8.4758   15.7446 N   0  0  0  0  0  0  0  0  0  0  0  0
   18.3213   -8.1027   15.3591 C   0  0  0  0  0  0  0  0  0  0  0  0
  1  2  1  0
  2  3  2  0
  3  4  1  0
  4  5  2  0
  5  6  1  0
  6  7  1  6
  6  8  1  0
  9  8  1  6
  9 10  1  0
 10 11  1  0
 11 12  1  0
 12 13  1  0
 13 14  2  0
 14 15  1  0
 15 16  2  0
 16 17  1  0
 17 18  1  0
 17 19  1  0
 17 20  1  0
 16 21  1  0
 21 22  2  0
 22 23  1  0
 12 24  1  0
  5 25  1  0
 25 26  2  0
 26 27  1  0
 27 28  1  0
 27 29  1  0
 29 30  2  0
 30  2  1  0
 24  9  1  0
 30 25  1  0
 22 13  1  0
M  END
>  <energy_score>  (475) 
-38.377932

>  <inchikey>  (475) 
None

>  <smiles>  (475) 
None

>  <ref_pdb>  (475) 
A1105b

>  <alias>  (475) 
None

>  <HIPPO Pose ID>  (475) 
498744

>  <name>  (475) 
P498744

>  <HIPPO Compound ID>  (475) 
293483

>  <ref_mols>  (475) 
A0497a,A1105b

>  <distance_score>  (475) 
1.09449

>  <inspiration_score>  (475) 
None

$$$$
P498748
     RDKit          3D

 30 33  0  0  0  0  0  0  0  0999 V2000
   18.6697   -2.8412   17.7974 C   0  0  0  0  0  0  0  0  0  0  0  0
   18.6323   -4.2335   18.0122 O   0  0  0  0  0  0  0  0  0  0  0  0
   17.6808   -4.6566   18.9600 C   0  0  2  0  0  0  0  0  0  0  0  0
   18.2257   -5.7963   19.6750 N   0  0  0  0  0  0  0  0  0  0  0  0
   19.4652   -5.6510   20.4572 C   0  0  2  0  0  0  0  0  0  0  0  0
   20.4203   -4.4792   20.2347 C   0  0  0  0  0  0  0  0  0  0  0  0
   21.2832   -4.8767   19.0234 C   0  0  0  0  0  0  0  0  0  0  0  0
   21.1311   -6.3425   18.8638 N   0  0  0  0  0  0  0  0  0  0  0  0
   20.5634   -6.7598   17.6355 C   0  0  0  0  0  0  0  0  0  0  0  0
   19.5601   -7.6806   17.6977 N   0  0  0  0  0  0  0  0  0  0  0  0
   18.9625   -8.1198   16.5688 C   0  0  0  0  0  0  0  0  0  0  0  0
   19.2804   -7.6727   15.3137 C   0  0  0  0  0  0  0  0  0  0  0  0
   18.6165   -8.2736   14.1194 C   0  0  0  0  0  0  0  0  0  0  0  0
   18.8590   -9.6146   14.0291 F   0  0  0  0  0  0  0  0  0  0  0  0
   17.2616   -8.1572   14.1245 F   0  0  0  0  0  0  0  0  0  0  0  0
   19.0332   -7.7581   12.9277 F   0  0  0  0  0  0  0  0  0  0  0  0
   20.3180   -6.7498   15.2263 C   0  0  0  0  0  0  0  0  0  0  0  0
   20.9917   -6.3165   16.3754 C   0  0  0  0  0  0  0  0  0  0  0  0
   22.4071   -5.3497   16.1178 Cl  0  0  0  0  0  0  0  0  0  0  0  0
   20.4374   -6.8172   20.0871 C   0  0  0  0  0  0  0  0  0  0  0  0
   16.3793   -5.0026   18.2373 C   0  0  0  0  0  0  0  0  0  0  0  0
   15.4828   -3.9430   17.8948 C   0  0  0  0  0  0  0  0  0  0  0  0
   14.2109   -4.1002   17.2770 C   0  0  0  0  0  0  0  0  0  0  0  0
   13.6772   -5.3455   16.9373 C   0  0  0  0  0  0  0  0  0  0  0  0
   14.4841   -6.4334   17.2748 C   0  0  0  0  0  0  0  0  0  0  0  0
   14.2339   -7.7424   17.0964 N   0  0  0  0  0  0  0  0  0  0  0  0
   15.2375   -8.3538   17.7411 N   0  0  0  0  0  0  0  0  0  0  0  0
   15.2090   -9.7889   17.8805 C   0  0  0  0  0  0  0  0  0  0  0  0
   16.1966   -7.5096   18.2174 C   0  0  0  0  0  0  0  0  0  0  0  0
   15.7804   -6.2418   17.8993 C   0  0  0  0  0  0  0  0  0  0  0  0
  1  2  1  0
  2  3  1  0
  3  4  1  6
  5  4  1  6
  5  6  1  0
  6  7  1  0
  7  8  1  0
  8  9  1  0
  9 10  2  0
 10 11  1  0
 11 12  2  0
 12 13  1  0
 13 14  1  0
 13 15  1  0
 13 16  1  0
 12 17  1  0
 17 18  2  0
 18 19  1  0
  8 20  1  0
  3 21  1  0
 21 22  2  0
 22 23  1  0
 23 24  2  0
 24 25  1  0
 25 26  2  0
 26 27  1  0
 27 28  1  0
 27 29  1  0
 29 30  2  0
 20  5  1  0
 30 21  1  0
 18  9  1  0
 30 25  1  0
M  END
>  <energy_score>  (476) 
-37.311643

>  <inchikey>  (476) 
None

>  <smiles>  (476) 
None

>  <ref_pdb>  (476) 
A1105b

>  <alias>  (476) 
None

>  <HIPPO Pose ID>  (476) 
498748

>  <name>  (476) 
P498748

>  <HIPPO Compound ID>  (476) 
293485

>  <ref_mols>  (476) 
A0497a,A1105b

>  <distance_score>  (476) 
1.611796

>  <inspiration_score>  (476) 
None

$$$$
P498751
     RDKit          3D

 30 33  0  0  0  0  0  0  0  0999 V2000
   17.0261   -9.5394   13.2877 C   0  0  0  0  0  0  0  0  0  0  0  0
   18.2452   -8.8327   13.0895 O   0  0  0  0  0  0  0  0  0  0  0  0
   18.7739   -8.2685   14.2359 C   0  0  0  0  0  0  0  0  0  0  0  0
   20.1320   -7.8924   14.1829 C   0  0  0  0  0  0  0  0  0  0  0  0
   20.8363   -7.3206   15.2844 C   0  0  0  0  0  0  0  0  0  0  0  0
   20.2587   -7.0183   16.5462 C   0  0  0  0  0  0  0  0  0  0  0  0
   21.0429   -6.4781   17.7050 C   0  0  1  0  0  0  0  0  0  0  0  0
   21.5615   -7.5914   18.4052 O   0  0  0  0  0  0  0  0  0  0  0  0
   22.1953   -5.6390   17.4165 N   0  0  0  0  0  0  0  0  0  0  0  0
   21.9227   -4.4287   16.6039 C   0  0  2  0  0  0  0  0  0  0  0  0
   22.9092   -3.3206   16.9876 C   0  0  0  0  0  0  0  0  0  0  0  0
   22.2774   -2.6953   18.2385 C   0  0  0  0  0  0  0  0  0  0  0  0
   20.8234   -2.8988   18.0797 N   0  0  0  0  0  0  0  0  0  0  0  0
   20.1046   -3.3580   19.1878 C   0  0  0  0  0  0  0  0  0  0  0  0
   20.8095   -3.7577   20.2745 N   0  0  0  0  0  0  0  0  0  0  0  0
   20.1784   -4.2975   21.3501 C   0  0  0  0  0  0  0  0  0  0  0  0
   21.0742   -4.7837   22.4544 C   0  0  0  0  0  0  0  0  0  0  0  0
   18.7996   -4.3974   21.4242 C   0  0  0  0  0  0  0  0  0  0  0  0
   18.1481   -5.0206   22.5315 C   0  0  0  0  0  0  0  0  0  0  0  0
   17.6063   -5.6040   23.3766 N   0  0  0  0  0  0  0  0  0  0  0  0
   18.0633   -3.9106   20.3564 C   0  0  0  0  0  0  0  0  0  0  0  0
   18.7064   -3.4474   19.2146 C   0  0  0  0  0  0  0  0  0  0  0  0
   17.6724   -3.0809   17.9030 Cl  0  0  0  0  0  0  0  0  0  0  0  0
   20.5999   -3.6732   16.8434 C   0  0  0  0  0  0  0  0  0  0  0  0
   18.8976   -7.3740   16.5519 C   0  0  0  0  0  0  0  0  0  0  0  0
   18.0249   -7.2126   17.5971 C   0  0  0  0  0  0  0  0  0  0  0  0
   16.8303   -7.6834   17.1376 N   0  0  0  0  0  0  0  0  0  0  0  0
   15.5746   -7.6655   17.8520 C   0  0  0  0  0  0  0  0  0  0  0  0
   16.8805   -8.2079   15.8992 N   0  0  0  0  0  0  0  0  0  0  0  0
   18.1420   -7.9877   15.4740 C   0  0  0  0  0  0  0  0  0  0  0  0
  1  2  1  0
  2  3  1  0
  3  4  2  0
  4  5  1  0
  5  6  2  0
  6  7  1  0
  7  8  1  6
  7  9  1  0
 10  9  1  1
 10 11  1  0
 11 12  1  0
 12 13  1  0
 13 14  1  0
 14 15  2  0
 15 16  1  0
 16 17  1  0
 16 18  2  0
 18 19  1  0
 19 20  3  0
 18 21  1  0
 21 22  2  0
 22 23  1  0
 13 24  1  0
  6 25  1  0
 25 26  2  0
 26 27  1  0
 27 28  1  0
 27 29  1  0
 29 30  2  0
 30  3  1  0
 24 10  1  0
 30 25  1  0
 22 14  1  0
M  END
>  <energy_score>  (477) 
-69.15962

>  <inchikey>  (477) 
None

>  <smiles>  (477) 
None

>  <ref_pdb>  (477) 
A1105b

>  <alias>  (477) 
None

>  <HIPPO Pose ID>  (477) 
498751

>  <name>  (477) 
P498751

>  <HIPPO Compound ID>  (477) 
293486

>  <ref_mols>  (477) 
A0497a,A1105b

>  <distance_score>  (477) 
1.212061

>  <inspiration_score>  (477) 
None

$$$$
P498757
     RDKit          3D

 30 34  0  0  0  0  0  0  0  0999 V2000
   17.6908   -9.3613   11.4975 C   0  0  0  0  0  0  0  0  0  0  0  0
   17.8210   -8.9717   12.9134 C   0  0  0  0  0  0  0  0  0  0  0  0
   16.8789   -9.2541   13.8212 N   0  0  0  0  0  0  0  0  0  0  0  0
   17.4176   -8.7314   15.0039 O   0  0  0  0  0  0  0  0  0  0  0  0
   18.6248   -8.1754   14.6709 C   0  0  0  0  0  0  0  0  0  0  0  0
   19.3747   -7.5509   15.7370 C   0  0  0  0  0  0  0  0  0  0  0  0
   20.2171   -6.4692   15.5092 C   0  0  0  0  0  0  0  0  0  0  0  0
   20.8195   -5.8129   16.5844 C   0  0  0  0  0  0  0  0  0  0  0  0
   20.5524   -6.2292   17.8873 C   0  0  0  0  0  0  0  0  0  0  0  0
   20.8720   -5.4485   19.0025 N   0  0  0  0  0  0  0  0  0  0  0  0
   20.8769   -3.9772   18.8481 C   0  0  0  0  0  0  0  0  0  0  0  0
   20.2287   -3.4329   20.1237 C   0  0  0  0  0  0  0  0  0  0  0  0
   19.2839   -4.5437   20.5755 C   0  0  1  0  0  0  0  0  0  0  0  0
   17.8975   -4.5291   20.0626 N   0  0  0  0  0  0  0  0  0  0  0  0
   17.7159   -4.3426   18.6316 C   0  0  2  0  0  0  0  0  0  0  0  0
   17.9465   -2.9784   18.3499 O   0  0  0  0  0  0  0  0  0  0  0  0
   16.3472   -4.7904   18.1388 C   0  0  0  0  0  0  0  0  0  0  0  0
   15.3363   -3.8717   17.7802 C   0  0  0  0  0  0  0  0  0  0  0  0
   14.1146   -4.2758   17.2464 C   0  0  0  0  0  0  0  0  0  0  0  0
   13.8298   -5.6222   17.0519 C   0  0  0  0  0  0  0  0  0  0  0  0
   14.7827   -6.5492   17.4704 C   0  0  0  0  0  0  0  0  0  0  0  0
   16.0028   -6.1640   18.0161 C   0  0  0  0  0  0  0  0  0  0  0  0
   16.5840   -7.3862   18.4218 C   0  0  0  0  0  0  0  0  0  0  0  0
   15.8759   -8.4605   18.0684 N   0  0  0  0  0  0  0  0  0  0  0  0
   14.7784   -7.9217   17.5036 N   0  0  0  0  0  0  0  0  0  0  0  0
   13.7151   -8.7905   17.0632 C   0  0  0  0  0  0  0  0  0  0  0  0
   20.1263   -5.7955   20.2311 C   0  0  0  0  0  0  0  0  0  0  0  0
   19.8907   -7.3889   18.0893 N   0  0  0  0  0  0  0  0  0  0  0  0
   19.3067   -8.0064   17.0352 C   0  0  0  0  0  0  0  0  0  0  0  0
   18.9021   -8.2789   13.3888 N   0  0  0  0  0  0  0  0  0  0  0  0
  1  2  1  0
  2  3  2  0
  3  4  1  0
  4  5  1  0
  5  6  1  0
  6  7  2  0
  7  8  1  0
  8  9  2  0
  9 10  1  0
 10 11  1  0
 11 12  1  0
 12 13  1  0
 13 14  1  6
 14 15  1  0
 15 16  1  1
 15 17  1  0
 17 18  2  0
 18 19  1  0
 19 20  2  0
 20 21  1  0
 21 22  2  0
 22 23  1  0
 23 24  2  0
 24 25  1  0
 25 26  1  0
 13 27  1  0
  9 28  1  0
 28 29  2  0
  5 30  2  0
 30  2  1  0
 29  6  1  0
 27 10  1  0
 22 17  1  0
 25 21  1  0
M  END
>  <energy_score>  (478) 
-47.9414

>  <inchikey>  (478) 
None

>  <smiles>  (478) 
None

>  <ref_pdb>  (478) 
A1105b

>  <alias>  (478) 
None

>  <HIPPO Pose ID>  (478) 
498757

>  <name>  (478) 
P498757

>  <HIPPO Compound ID>  (478) 
293488

>  <ref_mols>  (478) 
A0497a,A1105b

>  <distance_score>  (478) 
1.3788

>  <inspiration_score>  (478) 
None

$$$$
P498761
     RDKit          3D

 30 33  0  0  0  0  0  0  0  0999 V2000
   19.0492   -7.5087   19.2800 C   0  0  0  0  0  0  0  0  0  0  0  0
   18.8721   -7.8871   17.8557 C   0  0  0  0  0  0  0  0  0  0  0  0
   19.3398   -7.3425   16.6747 C   0  0  0  0  0  0  0  0  0  0  0  0
   20.2140   -6.2478   16.4910 C   0  0  0  0  0  0  0  0  0  0  0  0
   20.8471   -5.2747   17.4559 C   0  0  2  0  0  0  0  0  0  0  0  0
   21.9418   -5.9126   18.1001 O   0  0  0  0  0  0  0  0  0  0  0  0
   20.0181   -4.7384   18.5151 N   0  0  0  0  0  0  0  0  0  0  0  0
   19.1901   -3.5832   18.1141 C   0  0  2  0  0  0  0  0  0  0  0  0
   18.6444   -2.9244   19.3769 C   0  0  0  0  0  0  0  0  0  0  0  0
   17.4105   -3.7709   19.6689 C   0  0  0  0  0  0  0  0  0  0  0  0
   16.7741   -3.9300   18.3619 N   0  0  0  0  0  0  0  0  0  0  0  0
   15.9376   -5.0319   18.1034 C   0  0  0  0  0  0  0  0  0  0  0  0
   16.3127   -6.2675   18.4860 N   0  0  0  0  0  0  0  0  0  0  0  0
   15.4769   -7.3121   18.2333 C   0  0  0  0  0  0  0  0  0  0  0  0
   14.2807   -7.2415   17.5601 C   0  0  0  0  0  0  0  0  0  0  0  0
   13.4504   -8.4614   17.3620 C   0  0  0  0  0  0  0  0  0  0  0  0
   12.6443   -8.7355   18.4245 F   0  0  0  0  0  0  0  0  0  0  0  0
   12.6274   -8.3819   16.2785 F   0  0  0  0  0  0  0  0  0  0  0  0
   14.1955   -9.5884   17.1746 F   0  0  0  0  0  0  0  0  0  0  0  0
   13.8973   -5.9831   17.1571 C   0  0  0  0  0  0  0  0  0  0  0  0
   14.7110   -4.8876   17.4416 C   0  0  0  0  0  0  0  0  0  0  0  0
   14.1015   -3.4161   16.8825 Cl  0  0  0  0  0  0  0  0  0  0  0  0
   17.8682   -3.8981   17.3718 C   0  0  0  0  0  0  0  0  0  0  0  0
   20.6176   -6.1824   15.1196 C   0  0  0  0  0  0  0  0  0  0  0  0
   20.1613   -7.0400   14.0765 C   0  0  0  0  0  0  0  0  0  0  0  0
   19.2169   -8.0543   14.2806 C   0  0  0  0  0  0  0  0  0  0  0  0
   18.8326   -8.2061   15.6192 C   0  0  0  0  0  0  0  0  0  0  0  0
   18.0267   -9.1408   16.1373 N   0  0  0  0  0  0  0  0  0  0  0  0
   18.1642   -9.0023   17.4656 N   0  0  0  0  0  0  0  0  0  0  0  0
   17.7181  -10.1064   18.2888 C   0  0  0  0  0  0  0  0  0  0  0  0
  1  2  1  0
  2  3  2  0
  3  4  1  0
  4  5  1  0
  5  6  1  1
  5  7  1  0
  8  7  1  1
  8  9  1  0
  9 10  1  0
 10 11  1  0
 11 12  1  0
 12 13  2  0
 13 14  1  0
 14 15  2  0
 15 16  1  0
 16 17  1  0
 16 18  1  0
 16 19  1  0
 15 20  1  0
 20 21  2  0
 21 22  1  0
 11 23  1  0
  4 24  2  0
 24 25  1  0
 25 26  2  0
 26 27  1  0
 27 28  2  0
 28 29  1  0
 29 30  1  0
 29  2  1  0
 27  3  1  0
 23  8  1  0
 21 12  1  0
M  END
>  <energy_score>  (479) 
-54.471667

>  <inchikey>  (479) 
None

>  <smiles>  (479) 
None

>  <ref_pdb>  (479) 
A1105b

>  <alias>  (479) 
None

>  <HIPPO Pose ID>  (479) 
498761

>  <name>  (479) 
P498761

>  <HIPPO Compound ID>  (479) 
293489

>  <ref_mols>  (479) 
A0497a,A1105b

>  <distance_score>  (479) 
1.451803

>  <inspiration_score>  (479) 
None

$$$$
P498764
     RDKit          3D

 30 34  0  0  0  0  0  0  0  0999 V2000
   17.6256   -9.4715   11.6105 C   0  0  0  0  0  0  0  0  0  0  0  0
   17.7803   -9.0173   13.0044 C   0  0  0  0  0  0  0  0  0  0  0  0
   16.8990   -9.3336   13.9598 N   0  0  0  0  0  0  0  0  0  0  0  0
   17.4311   -8.7166   15.0968 O   0  0  0  0  0  0  0  0  0  0  0  0
   18.5814   -8.0890   14.6978 C   0  0  0  0  0  0  0  0  0  0  0  0
   19.3339   -7.3862   15.7140 C   0  0  0  0  0  0  0  0  0  0  0  0
   20.2126   -6.3565   15.3973 C   0  0  0  0  0  0  0  0  0  0  0  0
   20.8794   -5.6664   16.4091 C   0  0  0  0  0  0  0  0  0  0  0  0
   20.6677   -6.0155   17.7413 C   0  0  0  0  0  0  0  0  0  0  0  0
   21.2335   -5.2337   18.7667 N   0  0  0  0  0  0  0  0  0  0  0  0
   20.8364   -3.8042   18.7573 C   0  0  0  0  0  0  0  0  0  0  0  0
   20.1323   -3.5646   20.1060 C   0  0  0  0  0  0  0  0  0  0  0  0
   19.7671   -4.9636   20.6289 C   0  0  1  0  0  0  0  0  0  0  0  0
   18.5144   -5.6153   20.1692 N   0  0  0  0  0  0  0  0  0  0  0  0
   17.8600   -4.9164   19.0793 C   0  0  0  0  0  0  0  0  0  0  0  0
   16.7016   -5.6271   18.4489 C   0  0  0  0  0  0  0  0  0  0  0  0
   15.8034   -4.7624   17.8172 C   0  0  0  0  0  0  0  0  0  0  0  0
   14.5734   -5.1611   17.2714 C   0  0  0  0  0  0  0  0  0  0  0  0
   13.6178   -3.7251   16.6252 Br  0  0  0  0  0  0  0  0  0  0  0  0
   14.0978   -6.4713   17.1830 C   0  0  0  0  0  0  0  0  0  0  0  0
   14.9698   -7.3816   17.7853 C   0  0  0  0  0  0  0  0  0  0  0  0
   14.8369   -8.7117   17.9267 N   0  0  0  0  0  0  0  0  0  0  0  0
   15.8603   -9.0687   18.7203 N   0  0  0  0  0  0  0  0  0  0  0  0
   15.9616  -10.4409   19.1534 C   0  0  0  0  0  0  0  0  0  0  0  0
   16.7126   -8.0514   19.0370 C   0  0  0  0  0  0  0  0  0  0  0  0
   16.2153   -6.9448   18.3998 C   0  0  0  0  0  0  0  0  0  0  0  0
   21.0117   -5.7440   20.1318 C   0  0  0  0  0  0  0  0  0  0  0  0
   19.8879   -7.0842   18.0519 N   0  0  0  0  0  0  0  0  0  0  0  0
   19.2496   -7.7299   17.0467 C   0  0  0  0  0  0  0  0  0  0  0  0
   18.8266   -8.2338   13.4127 N   0  0  0  0  0  0  0  0  0  0  0  0
  1  2  1  0
  2  3  2  0
  3  4  1  0
  4  5  1  0
  5  6  1  0
  6  7  2  0
  7  8  1  0
  8  9  2  0
  9 10  1  0
 10 11  1  0
 11 12  1  0
 12 13  1  0
 13 14  1  6
 14 15  1  0
 15 16  1  0
 16 17  2  0
 17 18  1  0
 18 19  1  0
 18 20  2  0
 20 21  1  0
 21 22  2  0
 22 23  1  0
 23 24  1  0
 23 25  1  0
 25 26  2  0
 13 27  1  0
  9 28  1  0
 28 29  2  0
  5 30  2  0
 30  2  1  0
 29  6  1  0
 27 10  1  0
 26 16  1  0
 26 21  1  0
M  END
>  <energy_score>  (480) 
-33.309603

>  <inchikey>  (480) 
None

>  <smiles>  (480) 
None

>  <ref_pdb>  (480) 
A1105b

>  <alias>  (480) 
None

>  <HIPPO Pose ID>  (480) 
498764

>  <name>  (480) 
P498764

>  <HIPPO Compound ID>  (480) 
293490

>  <ref_mols>  (480) 
A0497a,A1105b

>  <distance_score>  (480) 
1.665446

>  <inspiration_score>  (480) 
None

$$$$
P498767
     RDKit          3D

 30 34  0  0  0  0  0  0  0  0999 V2000
   16.1244  -10.1380   13.6644 C   0  0  0  0  0  0  0  0  0  0  0  0
   17.2694   -9.2557   13.9532 C   0  0  0  0  0  0  0  0  0  0  0  0
   17.9701   -8.6462   12.9884 N   0  0  0  0  0  0  0  0  0  0  0  0
   18.9068   -7.8964   13.7085 O   0  0  0  0  0  0  0  0  0  0  0  0
   18.6567   -8.1233   15.0314 C   0  0  0  0  0  0  0  0  0  0  0  0
   19.4744   -7.4142   15.9928 C   0  0  0  0  0  0  0  0  0  0  0  0
   20.3128   -6.3515   15.6779 C   0  0  0  0  0  0  0  0  0  0  0  0
   20.9732   -5.6537   16.6952 C   0  0  0  0  0  0  0  0  0  0  0  0
   20.7485   -5.9846   18.0320 C   0  0  0  0  0  0  0  0  0  0  0  0
   21.1796   -5.1613   19.0937 N   0  0  0  0  0  0  0  0  0  0  0  0
   20.9789   -3.7021   18.8722 C   0  0  0  0  0  0  0  0  0  0  0  0
   20.0123   -3.2345   19.9693 C   0  0  0  0  0  0  0  0  0  0  0  0
   19.3012   -4.5055   20.4380 C   0  0  1  0  0  0  0  0  0  0  0  0
   18.1886   -5.0589   19.6390 N   0  0  0  0  0  0  0  0  0  0  0  0
   17.4471   -4.1444   18.7988 C   0  0  1  0  0  0  0  0  0  0  0  0
   18.2659   -3.6303   17.7717 O   0  0  0  0  0  0  0  0  0  0  0  0
   16.2089   -4.7408   18.1714 C   0  0  0  0  0  0  0  0  0  0  0  0
   15.1876   -3.8378   17.7627 C   0  0  0  0  0  0  0  0  0  0  0  0
   13.9668   -4.2075   17.1484 C   0  0  0  0  0  0  0  0  0  0  0  0
   13.6226   -5.5374   16.8821 C   0  0  0  0  0  0  0  0  0  0  0  0
   14.5682   -6.4810   17.2875 C   0  0  0  0  0  0  0  0  0  0  0  0
   14.5170   -7.8200   17.1826 N   0  0  0  0  0  0  0  0  0  0  0  0
   15.6079   -8.2378   17.8459 N   0  0  0  0  0  0  0  0  0  0  0  0
   15.8018   -9.6514   18.0527 C   0  0  0  0  0  0  0  0  0  0  0  0
   16.4081   -7.2315   18.3017 C   0  0  0  0  0  0  0  0  0  0  0  0
   15.8084   -6.0665   17.9052 C   0  0  0  0  0  0  0  0  0  0  0  0
   20.5230   -5.4729   20.3922 C   0  0  0  0  0  0  0  0  0  0  0  0
   20.0367   -7.0965   18.3267 N   0  0  0  0  0  0  0  0  0  0  0  0
   19.4323   -7.7757   17.3224 C   0  0  0  0  0  0  0  0  0  0  0  0
   17.6801   -8.9836   15.2312 N   0  0  0  0  0  0  0  0  0  0  0  0
  1  2  1  0
  2  3  2  0
  3  4  1  0
  4  5  1  0
  5  6  1  0
  6  7  2  0
  7  8  1  0
  8  9  2  0
  9 10  1  0
 10 11  1  0
 11 12  1  0
 12 13  1  0
 13 14  1  6
 14 15  1  0
 15 16  1  6
 15 17  1  0
 17 18  2  0
 18 19  1  0
 19 20  2  0
 20 21  1  0
 21 22  2  0
 22 23  1  0
 23 24  1  0
 23 25  1  0
 25 26  2  0
 13 27  1  0
  9 28  1  0
 28 29  2  0
  5 30  2  0
 30  2  1  0
 29  6  1  0
 27 10  1  0
 26 17  1  0
 26 21  1  0
M  END
>  <energy_score>  (481) 
-49.169531

>  <inchikey>  (481) 
None

>  <smiles>  (481) 
None

>  <ref_pdb>  (481) 
A1105b

>  <alias>  (481) 
None

>  <HIPPO Pose ID>  (481) 
498767

>  <name>  (481) 
P498767

>  <HIPPO Compound ID>  (481) 
293492

>  <ref_mols>  (481) 
A0497a,A1105b

>  <distance_score>  (481) 
1.253544

>  <inspiration_score>  (481) 
None

$$$$
P498769
     RDKit          3D

 31 35  0  0  0  0  0  0  0  0999 V2000
   17.0393  -11.1841   13.6698 C   0  0  0  0  0  0  0  0  0  0  0  0
   17.6578   -9.8926   14.0196 C   0  0  0  0  0  0  0  0  0  0  0  0
   17.3707   -8.7610   13.3653 N   0  0  0  0  0  0  0  0  0  0  0  0
   18.1350   -7.8092   14.0444 O   0  0  0  0  0  0  0  0  0  0  0  0
   18.8328   -8.4723   15.0093 C   0  0  0  0  0  0  0  0  0  0  0  0
   19.6668   -7.6805   15.8862 C   0  0  0  0  0  0  0  0  0  0  0  0
   20.1989   -6.4430   15.5527 C   0  0  0  0  0  0  0  0  0  0  0  0
   20.8377   -5.6697   16.5266 C   0  0  0  0  0  0  0  0  0  0  0  0
   20.8612   -6.1088   17.8496 C   0  0  0  0  0  0  0  0  0  0  0  0
   21.0511   -5.2479   18.9341 N   0  0  0  0  0  0  0  0  0  0  0  0
   20.8902   -3.7875   18.7562 C   0  0  0  0  0  0  0  0  0  0  0  0
   20.0295   -3.3045   19.9264 C   0  0  0  0  0  0  0  0  0  0  0  0
   19.2644   -4.5379   20.3983 C   0  0  1  0  0  0  0  0  0  0  0  0
   17.9022   -4.7084   19.8460 N   0  0  0  0  0  0  0  0  0  0  0  0
   17.7960   -5.0254   18.4304 C   0  0  2  0  0  0  0  0  0  0  0  0
   18.1291   -3.8723   17.6864 O   0  0  0  0  0  0  0  0  0  0  0  0
   16.4431   -5.5552   18.0220 C   0  0  0  0  0  0  0  0  0  0  0  0
   15.2873   -4.7662   17.7943 C   0  0  0  0  0  0  0  0  0  0  0  0
   15.3188   -2.9702   18.3287 Br  0  0  0  0  0  0  0  0  0  0  0  0
   14.0350   -5.2300   17.2787 C   0  0  0  0  0  0  0  0  0  0  0  0
   13.7855   -6.5787   16.9806 C   0  0  0  0  0  0  0  0  0  0  0  0
   14.8481   -7.4240   17.3104 C   0  0  0  0  0  0  0  0  0  0  0  0
   14.9244   -8.7632   17.2224 N   0  0  0  0  0  0  0  0  0  0  0  0
   16.1121   -9.0688   17.7763 N   0  0  0  0  0  0  0  0  0  0  0  0
   16.4829  -10.4550   17.9248 C   0  0  0  0  0  0  0  0  0  0  0  0
   16.8408   -7.9860   18.1685 C   0  0  0  0  0  0  0  0  0  0  0  0
   16.0932   -6.8965   17.8158 C   0  0  0  0  0  0  0  0  0  0  0  0
   20.3125   -5.6514   20.1543 C   0  0  0  0  0  0  0  0  0  0  0  0
   20.5425   -7.3962   18.1196 N   0  0  0  0  0  0  0  0  0  0  0  0
   19.9594   -8.1409   17.1525 C   0  0  0  0  0  0  0  0  0  0  0  0
   18.5607   -9.7575   15.0436 N   0  0  0  0  0  0  0  0  0  0  0  0
  1  2  1  0
  2  3  2  0
  3  4  1  0
  4  5  1  0
  5  6  1  0
  6  7  2  0
  7  8  1  0
  8  9  2  0
  9 10  1  0
 10 11  1  0
 11 12  1  0
 12 13  1  0
 13 14  1  6
 14 15  1  0
 15 16  1  6
 15 17  1  0
 17 18  2  0
 18 19  1  0
 18 20  1  0
 20 21  2  0
 21 22  1  0
 22 23  2  0
 23 24  1  0
 24 25  1  0
 24 26  1  0
 26 27  2  0
 13 28  1  0
  9 29  1  0
 29 30  2  0
  5 31  2  0
 31  2  1  0
 30  6  1  0
 28 10  1  0
 27 17  1  0
 27 22  1  0
M  END
>  <energy_score>  (482) 
-72.451569

>  <inchikey>  (482) 
None

>  <smiles>  (482) 
None

>  <ref_pdb>  (482) 
A1105b

>  <alias>  (482) 
None

>  <HIPPO Pose ID>  (482) 
498769

>  <name>  (482) 
P498769

>  <HIPPO Compound ID>  (482) 
293493

>  <ref_mols>  (482) 
A0497a,A1105b

>  <distance_score>  (482) 
1.541106

>  <inspiration_score>  (482) 
None

$$$$
P498774
     RDKit          3D

 31 35  0  0  0  0  0  0  0  0999 V2000
   17.8518   -2.3564   19.6235 C   0  0  0  0  0  0  0  0  0  0  0  0
   18.2841   -3.2060   18.5735 O   0  0  0  0  0  0  0  0  0  0  0  0
   17.9565   -4.5920   18.7051 C   0  0  1  0  0  0  0  0  0  0  0  0
   18.2148   -5.0946   20.0596 N   0  0  0  0  0  0  0  0  0  0  0  0
   19.6170   -5.1437   20.5420 C   0  0  2  0  0  0  0  0  0  0  0  0
   20.6551   -4.0928   20.1369 C   0  0  0  0  0  0  0  0  0  0  0  0
   21.2374   -4.6091   18.8224 C   0  0  0  0  0  0  0  0  0  0  0  0
   21.0962   -6.0786   18.8896 N   0  0  0  0  0  0  0  0  0  0  0  0
   20.6077   -6.7151   17.7463 C   0  0  0  0  0  0  0  0  0  0  0  0
   20.8727   -6.2335   16.4633 C   0  0  0  0  0  0  0  0  0  0  0  0
   20.1687   -6.7398   15.3724 C   0  0  0  0  0  0  0  0  0  0  0  0
   19.2405   -7.7547   15.5606 C   0  0  0  0  0  0  0  0  0  0  0  0
   18.4443   -8.2783   14.4756 C   0  0  0  0  0  0  0  0  0  0  0  0
   18.6718   -8.2799   13.1802 N   0  0  0  0  0  0  0  0  0  0  0  0
   17.5895   -8.9668   12.6969 C   0  0  0  0  0  0  0  0  0  0  0  0
   17.4040   -9.2473   11.2613 C   0  0  0  0  0  0  0  0  0  0  0  0
   16.7034   -9.3559   13.6212 N   0  0  0  0  0  0  0  0  0  0  0  0
   17.2696   -8.8955   14.8139 O   0  0  0  0  0  0  0  0  0  0  0  0
   19.1524   -8.2772   16.8336 C   0  0  0  0  0  0  0  0  0  0  0  0
   19.8122   -7.7937   17.9087 N   0  0  0  0  0  0  0  0  0  0  0  0
   20.3977   -6.4256   20.1428 C   0  0  0  0  0  0  0  0  0  0  0  0
   16.5568   -4.9274   18.1850 C   0  0  0  0  0  0  0  0  0  0  0  0
   15.6082   -3.9368   17.7941 C   0  0  0  0  0  0  0  0  0  0  0  0
   14.3027   -4.1790   17.2662 C   0  0  0  0  0  0  0  0  0  0  0  0
   13.7987   -5.4627   17.0383 C   0  0  0  0  0  0  0  0  0  0  0  0
   14.6694   -6.4875   17.4144 C   0  0  0  0  0  0  0  0  0  0  0  0
   14.4853   -7.8161   17.3322 N   0  0  0  0  0  0  0  0  0  0  0  0
   15.5611   -8.3369   17.9407 N   0  0  0  0  0  0  0  0  0  0  0  0
   15.6305   -9.7652   18.1301 C   0  0  0  0  0  0  0  0  0  0  0  0
   16.4935   -7.4162   18.3224 C   0  0  0  0  0  0  0  0  0  0  0  0
   15.9802   -6.1979   17.9650 C   0  0  0  0  0  0  0  0  0  0  0  0
  1  2  1  0
  2  3  1  0
  3  4  1  1
  5  4  1  6
  5  6  1  0
  6  7  1  0
  7  8  1  0
  8  9  1  0
  9 10  2  0
 10 11  1  0
 11 12  2  0
 12 13  1  0
 13 14  2  0
 14 15  1  0
 15 16  1  0
 15 17  2  0
 17 18  1  0
 12 19  1  0
 19 20  2  0
  8 21  1  0
  3 22  1  0
 22 23  2  0
 23 24  1  0
 24 25  2  0
 25 26  1  0
 26 27  2  0
 27 28  1  0
 28 29  1  0
 28 30  1  0
 30 31  2  0
 21  5  1  0
 31 22  1  0
 20  9  1  0
 31 26  1  0
 18 13  1  0
M  END
>  <energy_score>  (483) 
-41.081175

>  <inchikey>  (483) 
None

>  <smiles>  (483) 
None

>  <ref_pdb>  (483) 
A1105b

>  <alias>  (483) 
None

>  <HIPPO Pose ID>  (483) 
498774

>  <name>  (483) 
P498774

>  <HIPPO Compound ID>  (483) 
293495

>  <ref_mols>  (483) 
A0497a,A1105b

>  <distance_score>  (483) 
1.48029

>  <inspiration_score>  (483) 
None

$$$$
P498778
     RDKit          3D

 31 35  0  0  0  0  0  0  0  0999 V2000
   17.7981   -9.6212   11.7761 C   0  0  0  0  0  0  0  0  0  0  0  0
   17.9647   -9.1126   13.1496 C   0  0  0  0  0  0  0  0  0  0  0  0
   17.1233   -9.4373   14.1371 N   0  0  0  0  0  0  0  0  0  0  0  0
   17.6510   -8.7555   15.2385 O   0  0  0  0  0  0  0  0  0  0  0  0
   18.7621   -8.0917   14.7906 C   0  0  0  0  0  0  0  0  0  0  0  0
   19.4947   -7.3017   15.7578 C   0  0  0  0  0  0  0  0  0  0  0  0
   20.3370   -6.2686   15.3691 C   0  0  0  0  0  0  0  0  0  0  0  0
   20.9467   -5.4633   16.3308 C   0  0  0  0  0  0  0  0  0  0  0  0
   20.6942   -5.6833   17.6853 C   0  0  0  0  0  0  0  0  0  0  0  0
   21.1181   -4.7453   18.6486 N   0  0  0  0  0  0  0  0  0  0  0  0
   20.6433   -3.3669   18.3476 C   0  0  0  0  0  0  0  0  0  0  0  0
   19.8461   -2.9291   19.5774 C   0  0  0  0  0  0  0  0  0  0  0  0
   19.3958   -4.2337   20.2365 C   0  0  1  0  0  0  0  0  0  0  0  0
   18.2245   -4.9887   19.7295 N   0  0  0  0  0  0  0  0  0  0  0  0
   17.4811   -4.4531   18.6022 C   0  0  2  0  0  0  0  0  0  0  0  0
   16.9789   -3.1975   18.9897 O   0  0  0  0  0  0  0  0  0  0  0  0
   16.3210   -5.3346   18.1574 C   0  0  0  0  0  0  0  0  0  0  0  0
   15.1515   -4.7624   17.5660 C   0  0  0  0  0  0  0  0  0  0  0  0
   14.0582   -5.4998   17.0027 C   0  0  0  0  0  0  0  0  0  0  0  0
   14.0295   -6.9108   16.9198 C   0  0  0  0  0  0  0  0  0  0  0  0
   13.0189   -7.7207   16.1913 C   0  0  0  0  0  0  0  0  0  0  0  0
   15.0807   -7.5093   17.6264 C   0  0  0  0  0  0  0  0  0  0  0  0
   15.2753   -8.8219   17.8553 N   0  0  0  0  0  0  0  0  0  0  0  0
   16.3074   -8.8629   18.7006 N   0  0  0  0  0  0  0  0  0  0  0  0
   16.7146  -10.1325   19.2501 C   0  0  0  0  0  0  0  0  0  0  0  0
   16.8775   -7.6483   18.9369 C   0  0  0  0  0  0  0  0  0  0  0  0
   16.1522   -6.7357   18.2115 C   0  0  0  0  0  0  0  0  0  0  0  0
   20.7077   -5.0507   20.0363 C   0  0  0  0  0  0  0  0  0  0  0  0
   19.9879   -6.7683   18.0755 N   0  0  0  0  0  0  0  0  0  0  0  0
   19.4194   -7.5415   17.1139 C   0  0  0  0  0  0  0  0  0  0  0  0
   18.9838   -8.2698   13.5053 N   0  0  0  0  0  0  0  0  0  0  0  0
  1  2  1  0
  2  3  2  0
  3  4  1  0
  4  5  1  0
  5  6  1  0
  6  7  2  0
  7  8  1  0
  8  9  2  0
  9 10  1  0
 10 11  1  0
 11 12  1  0
 12 13  1  0
 13 14  1  6
 14 15  1  0
 15 16  1  1
 15 17  1  0
 17 18  2  0
 18 19  1  0
 19 20  2  0
 20 21  1  0
 20 22  1  0
 22 23  2  0
 23 24  1  0
 24 25  1  0
 24 26  1  0
 26 27  2  0
 13 28  1  0
  9 29  1  0
 29 30  2  0
  5 31  2  0
 31  2  1  0
 30  6  1  0
 28 10  1  0
 27 17  1  0
 27 22  1  0
M  END
>  <energy_score>  (484) 
-55.390029

>  <inchikey>  (484) 
None

>  <smiles>  (484) 
None

>  <ref_pdb>  (484) 
A1105b

>  <alias>  (484) 
None

>  <HIPPO Pose ID>  (484) 
498778

>  <name>  (484) 
P498778

>  <HIPPO Compound ID>  (484) 
293498

>  <ref_mols>  (484) 
A0497a,A1105b

>  <distance_score>  (484) 
1.444862

>  <inspiration_score>  (484) 
None

$$$$
P498784
     RDKit          3D

 31 35  0  0  0  0  0  0  0  0999 V2000
   15.9749  -10.1405   13.4860 C   0  0  0  0  0  0  0  0  0  0  0  0
   17.1137   -9.2447   13.7576 C   0  0  0  0  0  0  0  0  0  0  0  0
   17.7984   -8.6327   12.7820 N   0  0  0  0  0  0  0  0  0  0  0  0
   18.7635   -7.9035   13.4883 O   0  0  0  0  0  0  0  0  0  0  0  0
   18.5300   -8.1268   14.8145 C   0  0  0  0  0  0  0  0  0  0  0  0
   19.3947   -7.4616   15.7642 C   0  0  0  0  0  0  0  0  0  0  0  0
   20.2965   -6.4524   15.4445 C   0  0  0  0  0  0  0  0  0  0  0  0
   21.0610   -5.8483   16.4481 C   0  0  0  0  0  0  0  0  0  0  0  0
   20.8904   -6.2251   17.7803 C   0  0  0  0  0  0  0  0  0  0  0  0
   21.5436   -5.5259   18.8226 N   0  0  0  0  0  0  0  0  0  0  0  0
   21.3339   -4.0484   18.7785 C   0  0  0  0  0  0  0  0  0  0  0  0
   20.5209   -3.6919   20.0368 C   0  0  0  0  0  0  0  0  0  0  0  0
   19.9389   -5.0185   20.5313 C   0  0  1  0  0  0  0  0  0  0  0  0
   18.7188   -5.5791   19.9262 N   0  0  0  0  0  0  0  0  0  0  0  0
   17.8910   -4.7235   19.1244 C   0  0  1  0  0  0  0  0  0  0  0  0
   18.5972   -4.0367   18.1133 O   0  0  0  0  0  0  0  0  0  0  0  0
   16.7560   -5.4600   18.4594 C   0  0  0  0  0  0  0  0  0  0  0  0
   15.8065   -4.6240   17.8617 C   0  0  0  0  0  0  0  0  0  0  0  0
   14.6023   -5.0720   17.2945 C   0  0  0  0  0  0  0  0  0  0  0  0
   13.6112   -3.6855   16.6067 Br  0  0  0  0  0  0  0  0  0  0  0  0
   14.1782   -6.3979   17.1862 C   0  0  0  0  0  0  0  0  0  0  0  0
   15.0841   -7.2773   17.7794 C   0  0  0  0  0  0  0  0  0  0  0  0
   14.9968   -8.6121   17.9095 N   0  0  0  0  0  0  0  0  0  0  0  0
   16.0330   -8.9381   18.6999 N   0  0  0  0  0  0  0  0  0  0  0  0
   16.1955  -10.3117   19.1091 C   0  0  0  0  0  0  0  0  0  0  0  0
   16.8360   -7.8891   19.0403 C   0  0  0  0  0  0  0  0  0  0  0  0
   16.3135   -6.7975   18.3966 C   0  0  0  0  0  0  0  0  0  0  0  0
   21.1436   -5.9478   20.1869 C   0  0  0  0  0  0  0  0  0  0  0  0
   20.0556   -7.2540   18.0827 N   0  0  0  0  0  0  0  0  0  0  0  0
   19.3549   -7.8444   17.0863 C   0  0  0  0  0  0  0  0  0  0  0  0
   17.5385   -8.9650   15.0273 N   0  0  0  0  0  0  0  0  0  0  0  0
  1  2  1  0
  2  3  2  0
  3  4  1  0
  4  5  1  0
  5  6  1  0
  6  7  2  0
  7  8  1  0
  8  9  2  0
  9 10  1  0
 10 11  1  0
 11 12  1  0
 12 13  1  0
 13 14  1  6
 14 15  1  0
 15 16  1  6
 15 17  1  0
 17 18  2  0
 18 19  1  0
 19 20  1  0
 19 21  2  0
 21 22  1  0
 22 23  2  0
 23 24  1  0
 24 25  1  0
 24 26  1  0
 26 27  2  0
 13 28  1  0
  9 29  1  0
 29 30  2  0
  5 31  2  0
 31  2  1  0
 30  6  1  0
 28 10  1  0
 27 17  1  0
 27 22  1  0
M  END
>  <energy_score>  (485) 
-41.829958

>  <inchikey>  (485) 
None

>  <smiles>  (485) 
None

>  <ref_pdb>  (485) 
A1105b

>  <alias>  (485) 
None

>  <HIPPO Pose ID>  (485) 
498784

>  <name>  (485) 
P498784

>  <HIPPO Compound ID>  (485) 
293499

>  <ref_mols>  (485) 
A0497a,A1105b

>  <distance_score>  (485) 
1.57461

>  <inspiration_score>  (485) 
None

$$$$
P498790
     RDKit          3D

 31 34  0  0  0  0  0  0  0  0999 V2000
   18.7640   -3.0225   17.6195 C   0  0  0  0  0  0  0  0  0  0  0  0
   18.2258   -3.5443   18.8144 O   0  0  0  0  0  0  0  0  0  0  0  0
   17.9116   -4.9340   18.7596 C   0  0  1  0  0  0  0  0  0  0  0  0
   18.1388   -5.3751   20.1307 N   0  0  0  0  0  0  0  0  0  0  0  0
   19.5403   -5.6632   20.5097 C   0  0  2  0  0  0  0  0  0  0  0  0
   20.5970   -4.5816   20.2809 C   0  0  0  0  0  0  0  0  0  0  0  0
   21.2976   -4.9532   18.9640 C   0  0  0  0  0  0  0  0  0  0  0  0
   20.9839   -6.3684   18.7021 N   0  0  0  0  0  0  0  0  0  0  0  0
   20.5427   -6.7622   17.4326 C   0  0  0  0  0  0  0  0  0  0  0  0
   19.5500   -7.6917   17.3952 N   0  0  0  0  0  0  0  0  0  0  0  0
   18.9940   -8.0828   16.2313 C   0  0  0  0  0  0  0  0  0  0  0  0
   19.3970   -7.6100   15.0141 C   0  0  0  0  0  0  0  0  0  0  0  0
   18.8081   -8.1754   13.7644 C   0  0  0  0  0  0  0  0  0  0  0  0
   19.2939   -7.6157   12.6191 F   0  0  0  0  0  0  0  0  0  0  0  0
   17.4541   -8.0580   13.6900 F   0  0  0  0  0  0  0  0  0  0  0  0
   19.0599   -9.5112   13.6422 F   0  0  0  0  0  0  0  0  0  0  0  0
   20.4438   -6.6911   15.0187 C   0  0  0  0  0  0  0  0  0  0  0  0
   21.0404   -6.2796   16.2182 C   0  0  0  0  0  0  0  0  0  0  0  0
   22.4374   -5.2688   16.0718 Cl  0  0  0  0  0  0  0  0  0  0  0  0
   20.2365   -6.8875   19.8610 C   0  0  0  0  0  0  0  0  0  0  0  0
   16.4887   -5.1715   18.2523 C   0  0  0  0  0  0  0  0  0  0  0  0
   15.6292   -4.0567   17.9733 C   0  0  0  0  0  0  0  0  0  0  0  0
   14.3373   -4.1215   17.3856 C   0  0  0  0  0  0  0  0  0  0  0  0
   13.7487   -5.3185   16.9868 C   0  0  0  0  0  0  0  0  0  0  0  0
   14.5033   -6.4587   17.2719 C   0  0  0  0  0  0  0  0  0  0  0  0
   14.1830   -7.7313   17.0002 N   0  0  0  0  0  0  0  0  0  0  0  0
   15.1285   -8.4443   17.6192 N   0  0  0  0  0  0  0  0  0  0  0  0
   15.0025   -9.8847   17.6134 C   0  0  0  0  0  0  0  0  0  0  0  0
   16.0754   -7.6941   18.2784 C   0  0  0  0  0  0  0  0  0  0  0  0
   16.9703   -8.3521   19.2582 C   0  0  0  0  0  0  0  0  0  0  0  0
   15.8117   -6.3825   17.9166 C   0  0  0  0  0  0  0  0  0  0  0  0
  1  2  1  0
  2  3  1  0
  3  4  1  1
  5  4  1  6
  5  6  1  0
  6  7  1  0
  7  8  1  0
  8  9  1  0
  9 10  2  0
 10 11  1  0
 11 12  2  0
 12 13  1  0
 13 14  1  0
 13 15  1  0
 13 16  1  0
 12 17  1  0
 17 18  2  0
 18 19  1  0
  8 20  1  0
  3 21  1  0
 21 22  2  0
 22 23  1  0
 23 24  2  0
 24 25  1  0
 25 26  2  0
 26 27  1  0
 27 28  1  0
 27 29  1  0
 29 30  1  0
 29 31  2  0
 20  5  1  0
 31 21  1  0
 18  9  1  0
 31 25  1  0
M  END
>  <energy_score>  (486) 
-36.357509

>  <inchikey>  (486) 
None

>  <smiles>  (486) 
None

>  <ref_pdb>  (486) 
A1105b

>  <alias>  (486) 
None

>  <HIPPO Pose ID>  (486) 
498790

>  <name>  (486) 
P498790

>  <HIPPO Compound ID>  (486) 
293502

>  <ref_mols>  (486) 
A0497a,A1105b

>  <distance_score>  (486) 
1.714603

>  <inspiration_score>  (486) 
None

$$$$
P498797
     RDKit          3D

 31 35  0  0  0  0  0  0  0  0999 V2000
   17.6551   -9.4687   11.2878 C   0  0  0  0  0  0  0  0  0  0  0  0
   17.7497   -9.0277   12.6917 C   0  0  0  0  0  0  0  0  0  0  0  0
   16.8188   -9.3361   13.6021 N   0  0  0  0  0  0  0  0  0  0  0  0
   17.3052   -8.7356   14.7671 O   0  0  0  0  0  0  0  0  0  0  0  0
   18.4819   -8.1208   14.4288 C   0  0  0  0  0  0  0  0  0  0  0  0
   19.1988   -7.4404   15.4852 C   0  0  0  0  0  0  0  0  0  0  0  0
   20.2629   -6.5845   15.2231 C   0  0  0  0  0  0  0  0  0  0  0  0
   20.9175   -5.9436   16.2730 C   0  0  0  0  0  0  0  0  0  0  0  0
   20.4972   -6.1595   17.5850 C   0  0  0  0  0  0  0  0  0  0  0  0
   21.0976   -5.4324   18.6345 N   0  0  0  0  0  0  0  0  0  0  0  0
   20.8691   -3.9682   18.4955 C   0  0  0  0  0  0  0  0  0  0  0  0
   20.1960   -3.5367   19.7989 C   0  0  0  0  0  0  0  0  0  0  0  0
   19.5133   -4.8058   20.3194 C   0  0  1  0  0  0  0  0  0  0  0  0
   18.2183   -5.2753   19.7705 N   0  0  0  0  0  0  0  0  0  0  0  0
   17.6120   -4.5176   18.7045 C   0  0  2  0  0  0  0  0  0  0  0  0
   17.4042   -3.2131   19.2059 O   0  0  0  0  0  0  0  0  0  0  0  0
   16.2803   -5.0678   18.1980 C   0  0  0  0  0  0  0  0  0  0  0  0
   15.3422   -4.0887   17.7152 C   0  0  0  0  0  0  0  0  0  0  0  0
   14.0906   -4.3455   17.1164 C   0  0  0  0  0  0  0  0  0  0  0  0
   13.6464   -5.6406   16.8771 C   0  0  0  0  0  0  0  0  0  0  0  0
   14.4841   -6.6607   17.3366 C   0  0  0  0  0  0  0  0  0  0  0  0
   14.2832   -7.9774   17.2146 N   0  0  0  0  0  0  0  0  0  0  0  0
   15.2482   -8.5254   17.9545 N   0  0  0  0  0  0  0  0  0  0  0  0
   15.2637   -9.9665   18.0785 C   0  0  0  0  0  0  0  0  0  0  0  0
   16.0799   -7.6197   18.5805 C   0  0  0  0  0  0  0  0  0  0  0  0
   16.9560   -8.0993   19.6887 C   0  0  0  0  0  0  0  0  0  0  0  0
   15.7463   -6.3864   18.0212 C   0  0  0  0  0  0  0  0  0  0  0  0
   20.6446   -5.8199   19.9869 C   0  0  0  0  0  0  0  0  0  0  0  0
   19.4964   -7.0324   17.8532 N   0  0  0  0  0  0  0  0  0  0  0  0
   18.8842   -7.6403   16.8113 C   0  0  0  0  0  0  0  0  0  0  0  0
   18.7870   -8.2630   13.1568 N   0  0  0  0  0  0  0  0  0  0  0  0
  1  2  1  0
  2  3  2  0
  3  4  1  0
  4  5  1  0
  5  6  1  0
  6  7  2  0
  7  8  1  0
  8  9  2  0
  9 10  1  0
 10 11  1  0
 11 12  1  0
 12 13  1  0
 13 14  1  6
 14 15  1  0
 15 16  1  1
 15 17  1  0
 17 18  2  0
 18 19  1  0
 19 20  2  0
 20 21  1  0
 21 22  2  0
 22 23  1  0
 23 24  1  0
 23 25  1  0
 25 26  1  0
 25 27  2  0
 13 28  1  0
  9 29  1  0
 29 30  2  0
  5 31  2  0
 31  2  1  0
 30  6  1  0
 28 10  1  0
 27 17  1  0
 27 21  1  0
M  END
>  <energy_score>  (487) 
-50.011174

>  <inchikey>  (487) 
None

>  <smiles>  (487) 
None

>  <ref_pdb>  (487) 
A1105b

>  <alias>  (487) 
None

>  <HIPPO Pose ID>  (487) 
498797

>  <name>  (487) 
P498797

>  <HIPPO Compound ID>  (487) 
293504

>  <ref_mols>  (487) 
A0497a,A1105b

>  <distance_score>  (487) 
1.511564

>  <inspiration_score>  (487) 
None

$$$$
P498802
     RDKit          3D

 31 34  0  0  0  0  0  0  0  0999 V2000
   17.0884   -9.2231   13.0632 C   0  0  0  0  0  0  0  0  0  0  0  0
   18.1262   -8.2568   12.9291 O   0  0  0  0  0  0  0  0  0  0  0  0
   18.7799   -7.9798   14.1157 C   0  0  0  0  0  0  0  0  0  0  0  0
   20.1195   -7.5523   14.0257 C   0  0  0  0  0  0  0  0  0  0  0  0
   20.9458   -7.3044   15.1634 C   0  0  0  0  0  0  0  0  0  0  0  0
   20.5338   -7.4587   16.5170 C   0  0  0  0  0  0  0  0  0  0  0  0
   21.5556   -7.4052   17.6337 C   0  0  2  0  0  0  0  0  0  0  0  0
   21.3990   -8.5131   18.5081 O   0  0  0  0  0  0  0  0  0  0  0  0
   21.5445   -6.1528   18.3643 N   0  0  0  0  0  0  0  0  0  0  0  0
   22.4361   -6.1750   19.5475 C   0  0  1  0  0  0  0  0  0  0  0  0
   22.9666   -4.7727   19.9228 C   0  0  0  0  0  0  0  0  0  0  0  0
   22.3635   -4.4410   21.3007 C   0  0  0  0  0  0  0  0  0  0  0  0
   21.1891   -5.3259   21.4376 N   0  0  0  0  0  0  0  0  0  0  0  0
   20.0539   -4.8052   20.7457 C   0  0  0  0  0  0  0  0  0  0  0  0
   20.1701   -3.5770   20.1708 N   0  0  0  0  0  0  0  0  0  0  0  0
   19.2455   -3.1809   19.2745 C   0  0  0  0  0  0  0  0  0  0  0  0
   18.1735   -3.9596   18.8990 C   0  0  0  0  0  0  0  0  0  0  0  0
   17.1897   -3.4563   17.9092 C   0  0  0  0  0  0  0  0  0  0  0  0
   17.7776   -2.6372   17.0128 F   0  0  0  0  0  0  0  0  0  0  0  0
   16.5321   -4.4289   17.2283 F   0  0  0  0  0  0  0  0  0  0  0  0
   16.2242   -2.7206   18.5274 F   0  0  0  0  0  0  0  0  0  0  0  0
   18.0045   -5.1706   19.5484 C   0  0  0  0  0  0  0  0  0  0  0  0
   18.8889   -5.5603   20.5472 C   0  0  0  0  0  0  0  0  0  0  0  0
   18.4614   -6.9401   21.5032 Cl  0  0  0  0  0  0  0  0  0  0  0  0
   21.6639   -6.5982   20.8234 C   0  0  0  0  0  0  0  0  0  0  0  0
   19.1613   -7.7666   16.5630 C   0  0  0  0  0  0  0  0  0  0  0  0
   18.4096   -7.9650   17.6892 C   0  0  0  0  0  0  0  0  0  0  0  0
   17.1458   -8.2124   17.2431 N   0  0  0  0  0  0  0  0  0  0  0  0
   15.9607   -8.3808   18.0513 C   0  0  0  0  0  0  0  0  0  0  0  0
   17.0538   -8.3542   15.9093 N   0  0  0  0  0  0  0  0  0  0  0  0
   18.2773   -8.0339   15.4387 C   0  0  0  0  0  0  0  0  0  0  0  0
  1  2  1  0
  2  3  1  0
  3  4  2  0
  4  5  1  0
  5  6  2  0
  6  7  1  0
  7  8  1  1
  7  9  1  0
 10  9  1  6
 10 11  1  0
 11 12  1  0
 12 13  1  0
 13 14  1  0
 14 15  2  0
 15 16  1  0
 16 17  2  0
 17 18  1  0
 18 19  1  0
 18 20  1  0
 18 21  1  0
 17 22  1  0
 22 23  2  0
 23 24  1  0
 13 25  1  0
  6 26  1  0
 26 27  2  0
 27 28  1  0
 28 29  1  0
 28 30  1  0
 30 31  2  0
 31  3  1  0
 25 10  1  0
 31 26  1  0
 23 14  1  0
M  END
>  <energy_score>  (488) 
-62.605462

>  <inchikey>  (488) 
None

>  <smiles>  (488) 
None

>  <ref_pdb>  (488) 
A1105b

>  <alias>  (488) 
None

>  <HIPPO Pose ID>  (488) 
498802

>  <name>  (488) 
P498802

>  <HIPPO Compound ID>  (488) 
293505

>  <ref_mols>  (488) 
A0497a,A1105b

>  <distance_score>  (488) 
1.148138

>  <inspiration_score>  (488) 
None

$$$$
P498813
     RDKit          3D

 32 36  0  0  0  0  0  0  0  0999 V2000
   15.5447   -7.6217   17.9381 C   0  0  0  0  0  0  0  0  0  0  0  0
   16.8050   -7.6395   17.2329 N   0  0  0  0  0  0  0  0  0  0  0  0
   17.9995   -7.1689   17.7006 C   0  0  0  0  0  0  0  0  0  0  0  0
   18.8760   -7.3045   16.6529 C   0  0  0  0  0  0  0  0  0  0  0  0
   20.2385   -6.9399   16.6375 C   0  0  0  0  0  0  0  0  0  0  0  0
   21.0231   -6.4739   17.8345 C   0  0  2  0  0  0  0  0  0  0  0  0
   21.7973   -5.3420   17.5108 O   0  0  0  0  0  0  0  0  0  0  0  0
   21.9204   -7.5205   18.3254 N   0  0  0  0  0  0  0  0  0  0  0  0
   22.1394   -7.5174   19.7883 C   0  0  0  0  0  0  0  0  0  0  0  0
   22.6723   -6.1857   20.3301 C   0  0  0  0  0  0  0  0  0  0  0  0
   22.6923   -6.1481   21.8543 C   0  0  0  0  0  0  0  0  0  0  0  0
   21.3576   -6.4925   22.3593 N   0  0  0  0  0  0  0  0  0  0  0  0
   21.0922   -5.9536   23.7041 C   0  0  2  0  0  0  0  0  0  0  0  0
   19.7533   -6.3623   24.3336 C   0  0  0  0  0  0  0  0  0  0  0  0
   18.7247   -5.5599   23.5355 C   0  0  0  0  0  0  0  0  0  0  0  0
   19.4065   -4.2994   23.1821 N   0  0  0  0  0  0  0  0  0  0  0  0
   19.2379   -3.9270   21.8337 C   0  0  0  0  0  0  0  0  0  0  0  0
   17.9582   -3.8925   21.2721 C   0  0  0  0  0  0  0  0  0  0  0  0
   17.7789   -3.5916   19.9211 C   0  0  0  0  0  0  0  0  0  0  0  0
   18.8919   -3.3062   19.1603 C   0  0  0  0  0  0  0  0  0  0  0  0
   18.7627   -2.9767   17.5072 Cl  0  0  0  0  0  0  0  0  0  0  0  0
   20.1194   -3.2854   19.7807 C   0  0  0  0  0  0  0  0  0  0  0  0
   20.3039   -3.5701   21.0906 N   0  0  0  0  0  0  0  0  0  0  0  0
   20.8174   -4.4159   23.6315 C   0  0  0  0  0  0  0  0  0  0  0  0
   21.0605   -7.8881   22.0780 C   0  0  0  0  0  0  0  0  0  0  0  0
   20.9126   -8.0386   20.5597 C   0  0  0  0  0  0  0  0  0  0  0  0
   20.7809   -7.2017   15.3415 C   0  0  0  0  0  0  0  0  0  0  0  0
   22.6295   -6.8730   14.9467 Br  0  0  0  0  0  0  0  0  0  0  0  0
   20.0459   -7.7712   14.2471 C   0  0  0  0  0  0  0  0  0  0  0  0
   18.6963   -8.1597   14.3300 C   0  0  0  0  0  0  0  0  0  0  0  0
   18.1155   -7.9025   15.5777 C   0  0  0  0  0  0  0  0  0  0  0  0
   16.8660   -8.1647   15.9954 N   0  0  0  0  0  0  0  0  0  0  0  0
  1  2  1  0
  2  3  1  0
  3  4  2  0
  4  5  1  0
  5  6  1  0
  6  7  1  6
  6  8  1  0
  8  9  1  0
  9 10  1  0
 10 11  1  0
 11 12  1  0
 13 12  1  6
 13 14  1  0
 14 15  1  0
 15 16  1  0
 16 17  1  0
 17 18  2  0
 18 19  1  0
 19 20  2  0
 20 21  1  0
 20 22  1  0
 22 23  2  0
 16 24  1  0
 12 25  1  0
 25 26  1  0
  5 27  2  0
 27 28  1  0
 27 29  1  0
 29 30  2  0
 30 31  1  0
 31 32  2  0
 32  2  1  0
 31  4  1  0
 26  9  1  0
 24 13  1  0
 23 17  1  0
M  END
>  <energy_score>  (489) 
-63.200618

>  <inchikey>  (489) 
None

>  <smiles>  (489) 
None

>  <ref_pdb>  (489) 
A1105b

>  <alias>  (489) 
None

>  <HIPPO Pose ID>  (489) 
498813

>  <name>  (489) 
P498813

>  <HIPPO Compound ID>  (489) 
293510

>  <ref_mols>  (489) 
A0497a,A1105b

>  <distance_score>  (489) 
1.062519

>  <inspiration_score>  (489) 
None

$$$$
P498817
     RDKit          3D

 32 36  0  0  0  0  0  0  0  0999 V2000
   15.5249   -7.9691   17.8172 C   0  0  0  0  0  0  0  0  0  0  0  0
   16.7844   -7.9508   17.1097 N   0  0  0  0  0  0  0  0  0  0  0  0
   18.0072   -7.6480   17.6325 C   0  0  0  0  0  0  0  0  0  0  0  0
   18.8806   -7.6601   16.5791 C   0  0  0  0  0  0  0  0  0  0  0  0
   20.2621   -7.3963   16.6040 C   0  0  0  0  0  0  0  0  0  0  0  0
   21.2074   -7.1236   17.7546 C   0  0  2  0  0  0  0  0  0  0  0  0
   20.6037   -7.3237   19.0156 O   0  0  0  0  0  0  0  0  0  0  0  0
   21.7567   -5.7877   17.7268 N   0  0  0  0  0  0  0  0  0  0  0  0
   23.1573   -5.6845   17.3112 C   0  0  0  0  0  0  0  0  0  0  0  0
   24.0142   -5.1468   18.4766 C   0  0  0  0  0  0  0  0  0  0  0  0
   24.4824   -3.6936   18.2885 C   0  0  0  0  0  0  0  0  0  0  0  0
   23.4890   -2.8123   17.6646 N   0  0  0  0  0  0  0  0  0  0  0  0
   22.3426   -2.5642   18.5619 C   0  0  1  0  0  0  0  0  0  0  0  0
   22.6448   -1.4967   19.6269 C   0  0  0  0  0  0  0  0  0  0  0  0
   21.2745   -0.9123   20.0245 C   0  0  0  0  0  0  0  0  0  0  0  0
   20.2697   -1.5486   19.1460 N   0  0  0  0  0  0  0  0  0  0  0  0
   19.6231   -2.6655   19.7282 C   0  0  0  0  0  0  0  0  0  0  0  0
   18.6221   -3.3349   19.0154 C   0  0  0  0  0  0  0  0  0  0  0  0
   18.1291   -4.5505   19.4918 C   0  0  0  0  0  0  0  0  0  0  0  0
   18.6314   -5.0586   20.6819 C   0  0  0  0  0  0  0  0  0  0  0  0
   18.1633   -6.5807   21.3274 Cl  0  0  0  0  0  0  0  0  0  0  0  0
   19.5654   -4.3067   21.3622 C   0  0  0  0  0  0  0  0  0  0  0  0
   20.0545   -3.1296   20.9208 N   0  0  0  0  0  0  0  0  0  0  0  0
   21.0400   -1.9923   17.9620 C   0  0  0  0  0  0  0  0  0  0  0  0
   23.1123   -3.3099   16.3333 C   0  0  0  0  0  0  0  0  0  0  0  0
   23.3439   -4.8014   16.0770 C   0  0  0  0  0  0  0  0  0  0  0  0
   20.7751   -7.4903   15.2769 C   0  0  0  0  0  0  0  0  0  0  0  0
   20.0116   -7.8318   14.1256 C   0  0  0  0  0  0  0  0  0  0  0  0
   20.6521   -7.8895   12.9471 F   0  0  0  0  0  0  0  0  0  0  0  0
   18.6483   -8.1408   14.1494 C   0  0  0  0  0  0  0  0  0  0  0  0
   18.0841   -8.0350   15.4257 C   0  0  0  0  0  0  0  0  0  0  0  0
   16.8165   -8.2729   15.8040 N   0  0  0  0  0  0  0  0  0  0  0  0
  1  2  1  0
  2  3  1  0
  3  4  2  0
  4  5  1  0
  5  6  1  0
  6  7  1  1
  6  8  1  0
  8  9  1  0
  9 10  1  0
 10 11  1  0
 11 12  1  0
 13 12  1  6
 13 14  1  0
 14 15  1  0
 15 16  1  0
 16 17  1  0
 17 18  2  0
 18 19  1  0
 19 20  2  0
 20 21  1  0
 20 22  1  0
 22 23  2  0
 16 24  1  0
 12 25  1  0
 25 26  1  0
  5 27  2  0
 27 28  1  0
 28 29  1  0
 28 30  2  0
 30 31  1  0
 31 32  2  0
 32  2  1  0
 31  4  1  0
 26  9  1  0
 24 13  1  0
 23 17  1  0
M  END
>  <energy_score>  (490) 
-36.863834

>  <inchikey>  (490) 
None

>  <smiles>  (490) 
None

>  <ref_pdb>  (490) 
A1105b

>  <alias>  (490) 
None

>  <HIPPO Pose ID>  (490) 
498817

>  <name>  (490) 
P498817

>  <HIPPO Compound ID>  (490) 
293511

>  <ref_mols>  (490) 
A0497a,A1105b

>  <distance_score>  (490) 
1.081926

>  <inspiration_score>  (490) 
None

$$$$
P498818
     RDKit          3D

 32 36  0  0  0  0  0  0  0  0999 V2000
   18.0618   -9.0427   13.0945 C   0  0  0  0  0  0  0  0  0  0  0  0
   18.5828   -8.2920   14.2735 C   0  0  0  0  0  0  0  0  0  0  0  0
   19.8380   -7.6410   14.2409 C   0  0  0  0  0  0  0  0  0  0  0  0
   20.3763   -6.9055   15.3390 C   0  0  0  0  0  0  0  0  0  0  0  0
   19.7444   -6.7350   16.6069 C   0  0  0  0  0  0  0  0  0  0  0  0
   20.4735   -5.9721   17.6779 C   0  0  2  0  0  0  0  0  0  0  0  0
   21.5053   -6.8239   18.1510 O   0  0  0  0  0  0  0  0  0  0  0  0
   19.7410   -5.5928   18.8633 N   0  0  0  0  0  0  0  0  0  0  0  0
   18.7463   -4.5171   18.6802 C   0  0  0  0  0  0  0  0  0  0  0  0
   19.2840   -3.1870   18.1578 C   0  0  0  0  0  0  0  0  0  0  0  0
   20.2357   -2.5271   19.1502 C   0  0  0  0  0  0  0  0  0  0  0  0
   19.5974   -2.2911   20.4525 N   0  0  0  0  0  0  0  0  0  0  0  0
   20.5162   -1.6346   21.4080 C   0  0  2  0  0  0  0  0  0  0  0  0
   19.7869   -1.0379   22.6187 C   0  0  0  0  0  0  0  0  0  0  0  0
   20.8245   -0.1081   23.2502 C   0  0  0  0  0  0  0  0  0  0  0  0
   21.6945    0.2772   22.1424 N   0  0  0  0  0  0  0  0  0  0  0  0
   22.5052    1.3711   22.2552 C   0  0  0  0  0  0  0  0  0  0  0  0
   23.2697    1.8511   21.1912 C   0  0  0  0  0  0  0  0  0  0  0  0
   24.0651    2.9922   21.3510 C   0  0  0  0  0  0  0  0  0  0  0  0
   24.0889    3.6343   22.5769 C   0  0  0  0  0  0  0  0  0  0  0  0
   25.0272    5.0500   22.8151 Cl  0  0  0  0  0  0  0  0  0  0  0  0
   23.3255    3.1009   23.5944 C   0  0  0  0  0  0  0  0  0  0  0  0
   22.5549    1.9954   23.4544 N   0  0  0  0  0  0  0  0  0  0  0  0
   21.3047   -0.3919   20.9084 C   0  0  0  0  0  0  0  0  0  0  0  0
   19.0410   -3.5306   21.0197 C   0  0  0  0  0  0  0  0  0  0  0  0
   18.1088   -4.2566   20.0494 C   0  0  0  0  0  0  0  0  0  0  0  0
   18.5153   -7.4108   16.6102 C   0  0  0  0  0  0  0  0  0  0  0  0
   17.6369   -7.5274   17.6555 C   0  0  0  0  0  0  0  0  0  0  0  0
   16.5607   -8.1929   17.1538 N   0  0  0  0  0  0  0  0  0  0  0  0
   15.3199   -8.4580   17.8424 C   0  0  0  0  0  0  0  0  0  0  0  0
   16.7234   -8.6357   15.8935 N   0  0  0  0  0  0  0  0  0  0  0  0
   17.9212   -8.1503   15.5125 C   0  0  0  0  0  0  0  0  0  0  0  0
  1  2  1  0
  2  3  2  0
  3  4  1  0
  4  5  2  0
  5  6  1  0
  6  7  1  1
  6  8  1  0
  8  9  1  0
  9 10  1  0
 10 11  1  0
 11 12  1  0
 13 12  1  6
 13 14  1  0
 14 15  1  0
 15 16  1  0
 16 17  1  0
 17 18  2  0
 18 19  1  0
 19 20  2  0
 20 21  1  0
 20 22  1  0
 22 23  2  0
 16 24  1  0
 12 25  1  0
 25 26  1  0
  5 27  1  0
 27 28  2  0
 28 29  1  0
 29 30  1  0
 29 31  1  0
 31 32  2  0
 32  2  1  0
 26  9  1  0
 32 27  1  0
 24 13  1  0
 23 17  1  0
M  END
>  <energy_score>  (491) 
-74.776788

>  <inchikey>  (491) 
None

>  <smiles>  (491) 
None

>  <ref_pdb>  (491) 
A1105b

>  <alias>  (491) 
None

>  <HIPPO Pose ID>  (491) 
498818

>  <name>  (491) 
P498818

>  <HIPPO Compound ID>  (491) 
293512

>  <ref_mols>  (491) 
A0497a,A1105b

>  <distance_score>  (491) 
0.998812

>  <inspiration_score>  (491) 
None

$$$$
P498825
     RDKit          3D

 32 36  0  0  0  0  0  0  0  0999 V2000
   16.0811  -10.2024   13.7751 C   0  0  0  0  0  0  0  0  0  0  0  0
   17.2068   -9.2876   14.0391 C   0  0  0  0  0  0  0  0  0  0  0  0
   17.8667   -8.6597   13.0581 N   0  0  0  0  0  0  0  0  0  0  0  0
   18.8169   -7.9044   13.7537 O   0  0  0  0  0  0  0  0  0  0  0  0
   18.6086   -8.1382   15.0832 C   0  0  0  0  0  0  0  0  0  0  0  0
   19.4510   -7.4222   16.0197 C   0  0  0  0  0  0  0  0  0  0  0  0
   20.2632   -6.3460   15.6805 C   0  0  0  0  0  0  0  0  0  0  0  0
   20.9401   -5.6328   16.6772 C   0  0  0  0  0  0  0  0  0  0  0  0
   20.7559   -5.9622   18.0196 C   0  0  0  0  0  0  0  0  0  0  0  0
   21.1880   -5.1287   19.0711 N   0  0  0  0  0  0  0  0  0  0  0  0
   20.9768   -3.6717   18.8491 C   0  0  0  0  0  0  0  0  0  0  0  0
   20.0154   -3.2098   19.9542 C   0  0  0  0  0  0  0  0  0  0  0  0
   19.3162   -4.4857   20.4293 C   0  0  1  0  0  0  0  0  0  0  0  0
   18.2030   -5.0488   19.6352 N   0  0  0  0  0  0  0  0  0  0  0  0
   17.4465   -4.1382   18.8062 C   0  0  1  0  0  0  0  0  0  0  0  0
   18.2510   -3.6014   17.7796 O   0  0  0  0  0  0  0  0  0  0  0  0
   16.2142   -4.7446   18.1753 C   0  0  0  0  0  0  0  0  0  0  0  0
   15.1879   -3.8472   17.7652 C   0  0  0  0  0  0  0  0  0  0  0  0
   13.9690   -4.2233   17.1513 C   0  0  0  0  0  0  0  0  0  0  0  0
   13.6344   -5.5549   16.8821 C   0  0  0  0  0  0  0  0  0  0  0  0
   14.5864   -6.4926   17.2866 C   0  0  0  0  0  0  0  0  0  0  0  0
   14.5463   -7.8304   17.1669 N   0  0  0  0  0  0  0  0  0  0  0  0
   15.6257   -8.2539   17.8685 N   0  0  0  0  0  0  0  0  0  0  0  0
   15.8379   -9.6800   18.0911 C   0  0  0  0  0  0  0  0  0  0  0  0
   15.1014  -10.1380   19.1401 F   0  0  0  0  0  0  0  0  0  0  0  0
   17.1368   -9.9646   18.3876 F   0  0  0  0  0  0  0  0  0  0  0  0
   16.4236   -7.2332   18.3150 C   0  0  0  0  0  0  0  0  0  0  0  0
   15.8216   -6.0728   17.9099 C   0  0  0  0  0  0  0  0  0  0  0  0
   20.5472   -5.4417   20.3779 C   0  0  0  0  0  0  0  0  0  0  0  0
   20.0759   -7.0876   18.3330 N   0  0  0  0  0  0  0  0  0  0  0  0
   19.4612   -7.7854   17.3488 C   0  0  0  0  0  0  0  0  0  0  0  0
   17.6350   -8.9985   15.3086 N   0  0  0  0  0  0  0  0  0  0  0  0
  1  2  1  0
  2  3  2  0
  3  4  1  0
  4  5  1  0
  5  6  1  0
  6  7  2  0
  7  8  1  0
  8  9  2  0
  9 10  1  0
 10 11  1  0
 11 12  1  0
 12 13  1  0
 13 14  1  6
 14 15  1  0
 15 16  1  6
 15 17  1  0
 17 18  2  0
 18 19  1  0
 19 20  2  0
 20 21  1  0
 21 22  2  0
 22 23  1  0
 23 24  1  0
 24 25  1  0
 24 26  1  0
 23 27  1  0
 27 28  2  0
 13 29  1  0
  9 30  1  0
 30 31  2  0
  5 32  2  0
 32  2  1  0
 31  6  1  0
 29 10  1  0
 28 17  1  0
 28 21  1  0
M  END
>  <energy_score>  (492) 
-72.052036

>  <inchikey>  (492) 
None

>  <smiles>  (492) 
None

>  <ref_pdb>  (492) 
A1105b

>  <alias>  (492) 
None

>  <HIPPO Pose ID>  (492) 
498825

>  <name>  (492) 
P498825

>  <HIPPO Compound ID>  (492) 
293513

>  <ref_mols>  (492) 
A0497a,A1105b

>  <distance_score>  (492) 
1.244879

>  <inspiration_score>  (492) 
None

$$$$
P498826
     RDKit          3D

 32 36  0  0  0  0  0  0  0  0999 V2000
   22.6721   -4.9839   17.6942 C   0  0  0  0  0  0  0  0  0  0  0  0
   21.7668   -6.0455   17.4170 O   0  0  0  0  0  0  0  0  0  0  0  0
   20.4271   -5.5681   17.2207 C   0  0  2  0  0  0  0  0  0  0  0  0
   19.8478   -5.3572   18.5315 N   0  0  0  0  0  0  0  0  0  0  0  0
   18.7752   -4.3595   18.5883 C   0  0  0  0  0  0  0  0  0  0  0  0
   19.2673   -2.9154   18.3813 C   0  0  0  0  0  0  0  0  0  0  0  0
   19.5686   -2.1536   19.6789 C   0  0  0  0  0  0  0  0  0  0  0  0
   20.0401   -3.0516   20.7253 N   0  0  0  0  0  0  0  0  0  0  0  0
   20.7680   -2.4000   21.8154 C   0  0  2  0  0  0  0  0  0  0  0  0
   21.1589   -3.3038   22.9908 C   0  0  0  0  0  0  0  0  0  0  0  0
   21.6724   -2.2973   24.0125 C   0  0  0  0  0  0  0  0  0  0  0  0
   20.7866   -1.1405   23.8443 N   0  0  0  0  0  0  0  0  0  0  0  0
   21.1913    0.0363   24.4397 C   0  0  0  0  0  0  0  0  0  0  0  0
   20.5934    1.2620   24.1487 C   0  0  0  0  0  0  0  0  0  0  0  0
   21.0467    2.4304   24.7689 C   0  0  0  0  0  0  0  0  0  0  0  0
   22.0716    2.3553   25.6944 C   0  0  0  0  0  0  0  0  0  0  0  0
   22.6500    3.7629   26.4837 Cl  0  0  0  0  0  0  0  0  0  0  0  0
   22.6025    1.1114   25.9616 C   0  0  0  0  0  0  0  0  0  0  0  0
   22.1821   -0.0293   25.3625 N   0  0  0  0  0  0  0  0  0  0  0  0
   20.1159   -1.1925   22.5368 C   0  0  0  0  0  0  0  0  0  0  0  0
   19.0293   -4.0281   21.1168 C   0  0  0  0  0  0  0  0  0  0  0  0
   18.1090   -4.4446   19.9646 C   0  0  0  0  0  0  0  0  0  0  0  0
   19.7482   -6.5916   16.3275 C   0  0  0  0  0  0  0  0  0  0  0  0
   20.3932   -6.9108   15.0862 C   0  0  0  0  0  0  0  0  0  0  0  0
   19.9017   -7.8072   14.0941 C   0  0  0  0  0  0  0  0  0  0  0  0
   18.6804   -8.4847   14.2210 C   0  0  0  0  0  0  0  0  0  0  0  0
   17.9924   -8.2069   15.4126 C   0  0  0  0  0  0  0  0  0  0  0  0
   16.8021   -8.6869   15.8157 N   0  0  0  0  0  0  0  0  0  0  0  0
   16.5880   -8.0985   17.0041 N   0  0  0  0  0  0  0  0  0  0  0  0
   15.3516   -8.3519   17.7052 C   0  0  0  0  0  0  0  0  0  0  0  0
   17.6086   -7.2976   17.4241 C   0  0  0  0  0  0  0  0  0  0  0  0
   18.5337   -7.3002   16.4126 C   0  0  0  0  0  0  0  0  0  0  0  0
  1  2  1  0
  2  3  1  0
  3  4  1  1
  4  5  1  0
  5  6  1  0
  6  7  1  0
  7  8  1  0
  9  8  1  6
  9 10  1  0
 10 11  1  0
 11 12  1  0
 12 13  1  0
 13 14  2  0
 14 15  1  0
 15 16  2  0
 16 17  1  0
 16 18  1  0
 18 19  2  0
 12 20  1  0
  8 21  1  0
 21 22  1  0
  3 23  1  0
 23 24  2  0
 24 25  1  0
 25 26  2  0
 26 27  1  0
 27 28  2  0
 28 29  1  0
 29 30  1  0
 29 31  1  0
 31 32  2  0
 22  5  1  0
 32 23  1  0
 20  9  1  0
 32 27  1  0
 19 13  1  0
M  END
>  <energy_score>  (493) 
-55.41727

>  <inchikey>  (493) 
None

>  <smiles>  (493) 
None

>  <ref_pdb>  (493) 
A1105b

>  <alias>  (493) 
None

>  <HIPPO Pose ID>  (493) 
498826

>  <name>  (493) 
P498826

>  <HIPPO Compound ID>  (493) 
293514

>  <ref_mols>  (493) 
A0497a,A1105b

>  <distance_score>  (493) 
0.95891

>  <inspiration_score>  (493) 
None

$$$$
P498836
     RDKit          3D

 32 36  0  0  0  0  0  0  0  0999 V2000
   22.5993   -4.3437   16.8597 C   0  0  0  0  0  0  0  0  0  0  0  0
   21.8904   -5.5756   16.8813 O   0  0  0  0  0  0  0  0  0  0  0  0
   20.4678   -5.3844   16.9276 C   0  0  2  0  0  0  0  0  0  0  0  0
   20.1024   -5.3695   18.3310 N   0  0  0  0  0  0  0  0  0  0  0  0
   18.9618   -4.5148   18.6725 C   0  0  0  0  0  0  0  0  0  0  0  0
   19.3102   -3.0251   18.5108 C   0  0  0  0  0  0  0  0  0  0  0  0
   18.6354   -2.1640   19.5752 C   0  0  0  0  0  0  0  0  0  0  0  0
   18.9782   -2.5570   20.9482 N   0  0  0  0  0  0  0  0  0  0  0  0
   19.8673   -1.6586   21.6872 C   0  0  1  0  0  0  0  0  0  0  0  0
   21.1645   -1.2061   21.0136 C   0  0  0  0  0  0  0  0  0  0  0  0
   21.6148   -0.0711   21.9349 C   0  0  0  0  0  0  0  0  0  0  0  0
   20.3635    0.5857   22.3223 N   0  0  0  0  0  0  0  0  0  0  0  0
   20.3898    1.4758   23.3753 C   0  0  0  0  0  0  0  0  0  0  0  0
   19.2148    2.0338   23.8879 C   0  0  0  0  0  0  0  0  0  0  0  0
   19.2653    2.9448   24.9462 C   0  0  0  0  0  0  0  0  0  0  0  0
   20.4972    3.2963   25.4695 C   0  0  0  0  0  0  0  0  0  0  0  0
   20.6169    4.4135   26.7644 Cl  0  0  0  0  0  0  0  0  0  0  0  0
   21.6232    2.7263   24.9081 C   0  0  0  0  0  0  0  0  0  0  0  0
   21.5904    1.8412   23.8810 N   0  0  0  0  0  0  0  0  0  0  0  0
   19.2243   -0.3150   22.1068 C   0  0  0  0  0  0  0  0  0  0  0  0
   19.3589   -3.9646   21.0944 C   0  0  0  0  0  0  0  0  0  0  0  0
   18.5659   -4.8229   20.1223 C   0  0  0  0  0  0  0  0  0  0  0  0
   19.8484   -6.5125   16.0909 C   0  0  0  0  0  0  0  0  0  0  0  0
   20.4833   -6.7853   14.8457 C   0  0  0  0  0  0  0  0  0  0  0  0
   20.0221   -7.7430   13.9482 C   0  0  0  0  0  0  0  0  0  0  0  0
   18.8749   -8.4733   14.2271 C   0  0  0  0  0  0  0  0  0  0  0  0
   18.2212   -8.2122   15.4367 C   0  0  0  0  0  0  0  0  0  0  0  0
   18.6745   -7.2704   16.3668 C   0  0  0  0  0  0  0  0  0  0  0  0
   17.7206   -7.3756   17.4127 C   0  0  0  0  0  0  0  0  0  0  0  0
   16.7607   -8.2724   17.1834 N   0  0  0  0  0  0  0  0  0  0  0  0
   17.0788   -8.7535   15.9748 N   0  0  0  0  0  0  0  0  0  0  0  0
   16.2491   -9.7741   15.3812 C   0  0  0  0  0  0  0  0  0  0  0  0
  1  2  1  0
  2  3  1  0
  3  4  1  1
  4  5  1  0
  5  6  1  0
  6  7  1  0
  7  8  1  0
  9  8  1  6
  9 10  1  0
 10 11  1  0
 11 12  1  0
 12 13  1  0
 13 14  2  0
 14 15  1  0
 15 16  2  0
 16 17  1  0
 16 18  1  0
 18 19  2  0
 12 20  1  0
  8 21  1  0
 21 22  1  0
  3 23  1  0
 23 24  2  0
 24 25  1  0
 25 26  2  0
 26 27  1  0
 27 28  2  0
 28 29  1  0
 29 30  2  0
 30 31  1  0
 31 32  1  0
 22  5  1  0
 28 23  1  0
 20  9  1  0
 31 27  1  0
 19 13  1  0
M  END
>  <energy_score>  (494) 
-44.776502

>  <inchikey>  (494) 
None

>  <smiles>  (494) 
None

>  <ref_pdb>  (494) 
A1105b

>  <alias>  (494) 
None

>  <HIPPO Pose ID>  (494) 
498836

>  <name>  (494) 
P498836

>  <HIPPO Compound ID>  (494) 
293518

>  <ref_mols>  (494) 
A0497a,A1105b

>  <distance_score>  (494) 
1.033461

>  <inspiration_score>  (494) 
None

$$$$
P498838
     RDKit          3D

 32 36  0  0  0  0  0  0  0  0999 V2000
   19.0976   -7.8826   19.1476 C   0  0  0  0  0  0  0  0  0  0  0  0
   18.8594   -8.2126   17.7258 C   0  0  0  0  0  0  0  0  0  0  0  0
   19.4812   -7.9111   16.5311 C   0  0  0  0  0  0  0  0  0  0  0  0
   20.7537   -7.3366   16.3052 C   0  0  0  0  0  0  0  0  0  0  0  0
   21.9044   -7.1509   17.2655 C   0  0  1  0  0  0  0  0  0  0  0  0
   22.9854   -7.9437   16.8099 O   0  0  0  0  0  0  0  0  0  0  0  0
   22.4447   -5.7999   17.3453 N   0  0  0  0  0  0  0  0  0  0  0  0
   21.5929   -4.9308   18.1576 C   0  0  0  0  0  0  0  0  0  0  0  0
   21.7998   -5.1349   19.6592 C   0  0  0  0  0  0  0  0  0  0  0  0
   20.7703   -4.3233   20.4566 C   0  0  0  0  0  0  0  0  0  0  0  0
   20.2124   -3.1666   19.7521 N   0  0  0  0  0  0  0  0  0  0  0  0
   18.9821   -3.3698   18.9728 C   0  0  2  0  0  0  0  0  0  0  0  0
   17.9821   -2.2879   19.3637 C   0  0  0  0  0  0  0  0  0  0  0  0
   16.7589   -2.7634   18.6033 C   0  0  0  0  0  0  0  0  0  0  0  0
   16.7390   -4.1782   18.8282 N   0  0  0  0  0  0  0  0  0  0  0  0
   15.8527   -4.9659   18.1210 C   0  0  0  0  0  0  0  0  0  0  0  0
   14.6543   -4.4495   17.6171 C   0  0  0  0  0  0  0  0  0  0  0  0
   13.7196   -5.2949   17.0241 C   0  0  0  0  0  0  0  0  0  0  0  0
   13.9836   -6.6458   16.9603 C   0  0  0  0  0  0  0  0  0  0  0  0
   12.9616   -7.7855   16.1880 Cl  0  0  0  0  0  0  0  0  0  0  0  0
   15.1691   -7.0799   17.4946 C   0  0  0  0  0  0  0  0  0  0  0  0
   16.1040   -6.2872   18.0634 N   0  0  0  0  0  0  0  0  0  0  0  0
   18.1025   -4.6529   19.0632 C   0  0  0  0  0  0  0  0  0  0  0  0
   21.2600   -2.5264   18.9338 C   0  0  0  0  0  0  0  0  0  0  0  0
   21.8323   -3.4446   17.8347 C   0  0  0  0  0  0  0  0  0  0  0  0
   20.9545   -7.1274   14.9066 C   0  0  0  0  0  0  0  0  0  0  0  0
   20.0372   -7.4900   13.8798 C   0  0  0  0  0  0  0  0  0  0  0  0
   18.8103   -8.1218   14.1354 C   0  0  0  0  0  0  0  0  0  0  0  0
   18.5527   -8.3417   15.4955 C   0  0  0  0  0  0  0  0  0  0  0  0
   17.5241   -9.0042   16.0469 N   0  0  0  0  0  0  0  0  0  0  0  0
   17.8108   -9.0214   17.3602 N   0  0  0  0  0  0  0  0  0  0  0  0
   17.0941   -9.9352   18.2255 C   0  0  0  0  0  0  0  0  0  0  0  0
  1  2  1  0
  2  3  2  0
  3  4  1  0
  4  5  1  0
  5  6  1  6
  5  7  1  0
  7  8  1  0
  8  9  1  0
  9 10  1  0
 10 11  1  0
 12 11  1  1
 12 13  1  0
 13 14  1  0
 14 15  1  0
 15 16  1  0
 16 17  2  0
 17 18  1  0
 18 19  2  0
 19 20  1  0
 19 21  1  0
 21 22  2  0
 15 23  1  0
 11 24  1  0
 24 25  1  0
  4 26  2  0
 26 27  1  0
 27 28  2  0
 28 29  1  0
 29 30  2  0
 30 31  1  0
 31 32  1  0
 31  2  1  0
 29  3  1  0
 25  8  1  0
 23 12  1  0
 22 16  1  0
M  END
>  <energy_score>  (495) 
-42.931513

>  <inchikey>  (495) 
None

>  <smiles>  (495) 
None

>  <ref_pdb>  (495) 
A1105b

>  <alias>  (495) 
None

>  <HIPPO Pose ID>  (495) 
498838

>  <name>  (495) 
P498838

>  <HIPPO Compound ID>  (495) 
293519

>  <ref_mols>  (495) 
A0497a,A1105b

>  <distance_score>  (495) 
1.813784

>  <inspiration_score>  (495) 
None

$$$$
P498839
     RDKit          3D

 21 24  0  0  0  0  0  0  0  0999 V2000
    7.7378   15.2155   26.1549 O   0  0  0  0  0  0  0  0  0  0  0  0
    8.5056   14.6684   25.4679 C   0  0  0  0  0  0  0  0  0  0  0  0
    9.6490   15.4118   24.8695 C   0  0  0  0  0  0  0  0  0  0  0  0
    9.9713   15.4173   23.5651 C   0  0  0  0  0  0  0  0  0  0  0  0
   11.1786   16.1507   23.0189 C   0  0  1  0  0  0  0  0  0  0  0  0
   12.1793   15.1136   22.5071 C   0  0  0  0  0  0  0  0  0  0  0  0
   11.5189   14.2891   21.3969 C   0  0  2  0  0  0  0  0  0  0  0  0
   11.1390   15.1846   20.2133 C   0  0  0  0  0  0  0  0  0  0  0  0
   10.1503   16.2432   20.6925 C   0  0  1  0  0  0  0  0  0  0  0  0
    8.8845   15.6303   21.3203 C   0  0  0  0  0  0  0  0  0  0  0  0
    9.2481   14.6848   22.4705 C   0  0  1  0  0  0  0  0  0  0  0  0
   10.2349   13.6533   21.9465 C   0  0  0  0  0  0  0  0  0  0  0  0
   10.7982   17.0444   21.8222 C   0  0  0  0  0  0  0  0  0  0  0  0
    8.6322   13.1716   25.0996 N   0  0  0  0  0  0  0  0  0  0  0  0
    7.8070   12.0832   25.4156 C   0  0  0  0  0  0  0  0  0  0  0  0
    8.1826   10.8055   25.0047 C   0  0  0  0  0  0  0  0  0  0  0  0
    7.5219    9.6657   25.3331 N   0  0  0  0  0  0  0  0  0  0  0  0
    6.4101    9.8033   26.0803 C   0  0  0  0  0  0  0  0  0  0  0  0
    5.9284   11.0158   26.5060 C   0  0  0  0  0  0  0  0  0  0  0  0
    6.6338   12.1603   26.1608 C   0  0  0  0  0  0  0  0  0  0  0  0
    6.0617   13.3025   26.6202 O   0  0  0  0  0  0  0  0  0  0  0  0
  1  2  2  0
  2  3  1  0
  3  4  2  3
  4  5  1  0
  5  6  1  6
  7  6  1  1
  7  8  1  0
  9  8  1  1
  9 10  1  0
 11 10  1  6
 11 12  1  0
  9 13  1  0
  2 14  1  0
 14 15  1  0
 15 16  2  0
 16 17  1  0
 17 18  2  0
 18 19  1  0
 19 20  2  0
 20 21  1  0
 11  4  1  0
 20 15  1  0
 13  5  1  0
 12  7  1  0
M  END
>  <energy_score>  (496) 
-35.003944

>  <inchikey>  (496) 
None

>  <smiles>  (496) 
None

>  <ref_pdb>  (496) 
A3920a

>  <alias>  (496) 
None

>  <HIPPO Pose ID>  (496) 
498839

>  <name>  (496) 
P498839

>  <HIPPO Compound ID>  (496) 
293582

>  <ref_mols>  (496) 
A1445a,A3920a

>  <distance_score>  (496) 
1.674282

>  <inspiration_score>  (496) 
None

$$$$
P498840
     RDKit          3D

 21 24  0  0  0  0  0  0  0  0999 V2000
    8.2010   15.0631   26.4958 O   0  0  0  0  0  0  0  0  0  0  0  0
    8.7745   14.5512   25.6164 C   0  0  0  0  0  0  0  0  0  0  0  0
    9.8371   15.3046   24.8917 C   0  0  0  0  0  0  0  0  0  0  0  0
   10.0486   15.3717   23.5656 C   0  0  0  0  0  0  0  0  0  0  0  0
   11.2170   16.1392   22.9831 C   0  0  1  0  0  0  0  0  0  0  0  0
   12.2082   15.1249   22.4147 C   0  0  0  0  0  0  0  0  0  0  0  0
   11.5137   14.3165   21.3134 C   0  0  2  0  0  0  0  0  0  0  0  0
   11.0890   15.2327   20.1630 C   0  0  0  0  0  0  0  0  0  0  0  0
   10.1071   16.2703   20.6978 C   0  0  1  0  0  0  0  0  0  0  0  0
    8.8669   15.6370   21.3567 C   0  0  0  0  0  0  0  0  0  0  0  0
    9.2773   14.6759   22.4798 C   0  0  1  0  0  0  0  0  0  0  0  0
   10.2485   13.6624   21.8907 C   0  0  0  0  0  0  0  0  0  0  0  0
   10.7818   17.0523   21.8226 C   0  0  0  0  0  0  0  0  0  0  0  0
    8.6808   13.1065   25.0618 N   0  0  0  0  0  0  0  0  0  0  0  0
    7.8177   12.0514   25.4043 C   0  0  0  0  0  0  0  0  0  0  0  0
    8.2061   10.7606   25.0413 C   0  0  0  0  0  0  0  0  0  0  0  0
    7.5524    9.6262   25.3945 N   0  0  0  0  0  0  0  0  0  0  0  0
    6.4296    9.7776   26.1145 C   0  0  0  0  0  0  0  0  0  0  0  0
    5.9171   11.0003   26.4679 C   0  0  0  0  0  0  0  0  0  0  0  0
    6.5994   12.1572   26.0827 C   0  0  0  0  0  0  0  0  0  0  0  0
    5.6539   13.6364   26.3277 S   0  0  0  0  0  0  0  0  0  0  0  0
  1  2  2  0
  2  3  1  0
  3  4  2  3
  4  5  1  0
  5  6  1  6
  7  6  1  1
  7  8  1  0
  9  8  1  1
  9 10  1  0
 11 10  1  6
 11 12  1  0
  9 13  1  0
  2 14  1  0
 14 15  1  0
 15 16  2  0
 16 17  1  0
 17 18  2  0
 18 19  1  0
 19 20  2  0
 20 21  1  0
 11  4  1  0
 20 15  1  0
 13  5  1  0
 12  7  1  0
M  END
>  <energy_score>  (497) 
-35.696948

>  <inchikey>  (497) 
None

>  <smiles>  (497) 
None

>  <ref_pdb>  (497) 
A3920a

>  <alias>  (497) 
None

>  <HIPPO Pose ID>  (497) 
498840

>  <name>  (497) 
P498840

>  <HIPPO Compound ID>  (497) 
293586

>  <ref_mols>  (497) 
A1445a,A3920a

>  <distance_score>  (497) 
1.695673

>  <inspiration_score>  (497) 
None

$$$$
P498841
     RDKit          3D

 22 25  0  0  0  0  0  0  0  0999 V2000
    9.4323   14.4685   26.2966 O   0  0  0  0  0  0  0  0  0  0  0  0
    9.7915   13.8864   25.3500 C   0  0  0  0  0  0  0  0  0  0  0  0
   10.9522   14.3356   24.5554 C   0  0  0  0  0  0  0  0  0  0  0  0
   10.7757   14.8394   23.3273 C   0  0  0  0  0  0  0  0  0  0  0  0
   11.9323   15.2758   22.4495 C   0  0  1  0  0  0  0  0  0  0  0  0
   11.9496   14.4442   21.1745 C   0  0  0  0  0  0  0  0  0  0  0  0
   10.6070   14.5732   20.4503 C   0  0  2  0  0  0  0  0  0  0  0  0
   10.3991   16.0187   20.0238 C   0  0  0  0  0  0  0  0  0  0  0  0
   10.3664   16.8933   21.2705 C   0  0  1  0  0  0  0  0  0  0  0  0
    9.2091   16.4473   22.1816 C   0  0  0  0  0  0  0  0  0  0  0  0
    9.4320   15.0101   22.6436 C   0  0  1  0  0  0  0  0  0  0  0  0
    9.4864   14.1257   21.4168 C   0  0  0  0  0  0  0  0  0  0  0  0
   11.6815   16.7224   22.0531 C   0  0  0  0  0  0  0  0  0  0  0  0
    9.2975   12.5401   24.7467 N   0  0  0  0  0  0  0  0  0  0  0  0
    8.2272   11.7091   25.1233 C   0  0  0  0  0  0  0  0  0  0  0  0
    8.3604   10.3496   24.8524 C   0  0  0  0  0  0  0  0  0  0  0  0
    7.5267    9.3921   25.3214 N   0  0  0  0  0  0  0  0  0  0  0  0
    6.4891    9.8014   26.0764 C   0  0  0  0  0  0  0  0  0  0  0  0
    6.2085   11.1251   26.3373 C   0  0  0  0  0  0  0  0  0  0  0  0
    4.6797   11.4884   27.3954 Br  0  0  0  0  0  0  0  0  0  0  0  0
    7.0686   12.0967   25.8108 C   0  0  0  0  0  0  0  0  0  0  0  0
    6.4933   13.8992   25.8041 Br  0  0  0  0  0  0  0  0  0  0  0  0
  1  2  2  0
  2  3  1  0
  3  4  2  3
  4  5  1  0
  5  6  1  6
  7  6  1  1
  7  8  1  0
  9  8  1  6
  9 10  1  0
 11 10  1  6
 11 12  1  0
  9 13  1  0
  2 14  1  0
 14 15  1  0
 15 16  2  0
 16 17  1  0
 17 18  2  0
 18 19  1  0
 19 20  1  0
 19 21  2  0
 21 22  1  0
 11  4  1  0
 21 15  1  0
 13  5  1  0
 12  7  1  0
M  END
>  <energy_score>  (498) 
-15.261875

>  <inchikey>  (498) 
None

>  <smiles>  (498) 
None

>  <ref_pdb>  (498) 
A3920a

>  <alias>  (498) 
None

>  <HIPPO Pose ID>  (498) 
498841

>  <name>  (498) 
P498841

>  <HIPPO Compound ID>  (498) 
293595

>  <ref_mols>  (498) 
A1445a,A3920a

>  <distance_score>  (498) 
1.58597

>  <inspiration_score>  (498) 
None

$$$$
P498842
     RDKit          3D

 22 25  0  0  0  0  0  0  0  0999 V2000
    8.6939   14.6754   26.3178 O   0  0  0  0  0  0  0  0  0  0  0  0
    9.1925   13.9278   25.5298 C   0  0  0  0  0  0  0  0  0  0  0  0
   10.4449   14.3164   24.8456 C   0  0  0  0  0  0  0  0  0  0  0  0
   10.4027   14.7802   23.5898 C   0  0  0  0  0  0  0  0  0  0  0  0
   11.6488   15.1679   22.8126 C   0  0  1  0  0  0  0  0  0  0  0  0
   11.7342   14.3633   21.5215 C   0  0  0  0  0  0  0  0  0  0  0  0
   10.4610   14.5814   20.6971 C   0  0  2  0  0  0  0  0  0  0  0  0
   10.3376   16.0552   20.3191 C   0  0  0  0  0  0  0  0  0  0  0  0
   10.2393   16.8953   21.5915 C   0  0  1  0  0  0  0  0  0  0  0  0
    8.9951   16.4628   22.3860 C   0  0  0  0  0  0  0  0  0  0  0  0
    9.1255   14.9987   22.7967 C   0  0  1  0  0  0  0  0  0  0  0  0
    9.2518   14.1459   21.5496 C   0  0  0  0  0  0  0  0  0  0  0  0
   11.4959   16.6361   22.4429 C   0  0  0  0  0  0  0  0  0  0  0  0
    8.8033   12.6163   25.1082 N   0  0  0  0  0  0  0  0  0  0  0  0
    7.7747   11.7718   25.5553 C   0  0  0  0  0  0  0  0  0  0  0  0
    7.7969   10.4523   25.1022 C   0  0  0  0  0  0  0  0  0  0  0  0
    6.9470    9.4805   25.5106 N   0  0  0  0  0  0  0  0  0  0  0  0
    5.9970    9.8426   26.3990 C   0  0  0  0  0  0  0  0  0  0  0  0
    5.8595   11.1273   26.8937 C   0  0  0  0  0  0  0  0  0  0  0  0
    4.3358   11.5058   28.2658 I   0  0  0  0  0  0  0  0  0  0  0  0
    6.7661   12.1063   26.4699 C   0  0  0  0  0  0  0  0  0  0  0  0
    6.6101   13.3553   27.0022 O   0  0  0  0  0  0  0  0  0  0  0  0
  1  2  2  0
  2  3  1  0
  3  4  2  3
  4  5  1  0
  5  6  1  6
  7  6  1  1
  7  8  1  0
  9  8  1  6
  9 10  1  0
 11 10  1  6
 11 12  1  0
  9 13  1  0
  2 14  1  0
 14 15  1  0
 15 16  2  0
 16 17  1  0
 17 18  2  0
 18 19  1  0
 19 20  1  0
 19 21  2  0
 21 22  1  0
 11  4  1  0
 21 15  1  0
 13  5  1  0
 12  7  1  0
M  END
>  <energy_score>  (499) 
-60.5024

>  <inchikey>  (499) 
None

>  <smiles>  (499) 
None

>  <ref_pdb>  (499) 
A3920a

>  <alias>  (499) 
None

>  <HIPPO Pose ID>  (499) 
498842

>  <name>  (499) 
P498842

>  <HIPPO Compound ID>  (499) 
293597

>  <ref_mols>  (499) 
A1445a,A3920a

>  <distance_score>  (499) 
1.649494

>  <inspiration_score>  (499) 
None

$$$$
P498845
     RDKit          3D

 20 21  0  0  0  0  0  0  0  0999 V2000
   10.1090   16.5364   20.6230 C   0  0  0  0  0  0  0  0  0  0  0  0
   10.2241   15.0343   20.5275 C   0  0  0  0  0  0  0  0  0  0  0  0
   10.5689   14.2967   21.8062 C   0  0  2  0  0  0  0  0  0  0  0  0
    9.4935   13.8708   22.6377 N   0  0  0  0  0  0  0  0  0  0  0  0
    8.2742   14.6323   23.1509 C   0  0  0  0  0  0  0  0  0  0  0  0
    7.9061   15.7075   22.9187 O   0  0  0  0  0  0  0  0  0  0  0  0
    7.5699   13.7529   24.1297 C   0  0  0  0  0  0  0  0  0  0  0  0
    6.6191   14.2935   24.9693 C   0  0  0  0  0  0  0  0  0  0  0  0
    6.0144   13.4481   25.8881 C   0  0  0  0  0  0  0  0  0  0  0  0
    6.3475   12.0941   25.9253 C   0  0  0  0  0  0  0  0  0  0  0  0
    5.5193   11.1379   27.0869 Cl  0  0  0  0  0  0  0  0  0  0  0  0
    7.3107   11.6306   25.0252 C   0  0  0  0  0  0  0  0  0  0  0  0
    7.7059   10.1744   24.8863 C   0  0  0  0  0  0  0  0  0  0  0  0
    7.1706    9.3523   25.5092 O   0  0  0  0  0  0  0  0  0  0  0  0
    8.8088   10.0577   23.8213 N   0  0  0  0  0  0  0  0  0  0  0  0
    9.5472    8.9189   23.3692 C   0  0  0  0  0  0  0  0  0  0  0  0
    7.9685   12.4475   24.1451 N   0  0  0  0  0  0  0  0  0  0  0  0
   11.6104   14.9471   22.6257 C   0  0  0  0  0  0  0  0  0  0  0  0
   12.6873   14.1149   23.2459 C   0  0  0  0  0  0  0  0  0  0  0  0
   12.9813   14.9813   22.0419 C   0  0  0  0  0  0  0  0  0  0  0  0
  1  2  1  0
  3  2  1  6
  3  4  1  0
  4  5  1  0
  5  6  2  0
  5  7  1  0
  7  8  2  0
  8  9  1  0
  9 10  2  0
 10 11  1  0
 10 12  1  0
 12 13  1  0
 13 14  2  0
 13 15  1  0
 15 16  1  0
 12 17  2  0
  3 18  1  0
 18 19  1  0
 19 20  1  0
 17  7  1  0
 20 18  1  0
M  END
>  <energy_score>  (500) 
-0.28423

>  <inchikey>  (500) 
None

>  <smiles>  (500) 
None

>  <ref_pdb>  (500) 
A3181a

>  <alias>  (500) 
None

>  <HIPPO Pose ID>  (500) 
498845

>  <name>  (500) 
P498845

>  <HIPPO Compound ID>  (500) 
293893

>  <ref_mols>  (500) 
A3181a,A3618a

>  <distance_score>  (500) 
1.949499

>  <inspiration_score>  (500) 
None

$$$$
P498847
     RDKit          3D

 20 23  0  0  0  0  0  0  0  0999 V2000
    6.6541    8.9611   25.1072 O   0  0  0  0  0  0  0  0  0  0  0  0
    7.5605    9.6037   24.5925 C   0  0  0  0  0  0  0  0  0  0  0  0
    8.3889    9.0447   23.6701 N   0  0  0  0  0  0  0  0  0  0  0  0
    9.6900    9.5734   23.3688 C   0  0  0  0  0  0  0  0  0  0  0  0
    9.7731   11.1005   23.3865 C   0  0  0  0  0  0  0  0  0  0  0  0
    8.8732   11.7461   24.3397 N   0  0  0  0  0  0  0  0  0  0  0  0
    7.7741   11.0521   24.8613 C   0  0  0  0  0  0  0  0  0  0  0  0
    6.7967   11.6260   25.5675 C   0  0  0  0  0  0  0  0  0  0  0  0
    6.8623   13.0689   25.7559 C   0  0  0  0  0  0  0  0  0  0  0  0
    5.9678   13.6257   26.3691 O   0  0  0  0  0  0  0  0  0  0  0  0
    8.0367   13.8111   25.2707 C   0  0  0  0  0  0  0  0  0  0  0  0
    8.9785   13.1154   24.6207 C   0  0  0  0  0  0  0  0  0  0  0  0
   10.2620   13.8882   24.4484 C   0  0  0  0  0  0  0  0  0  0  0  0
   10.9380   14.1093   25.3732 O   0  0  0  0  0  0  0  0  0  0  0  0
   10.4068   14.3262   22.9763 N   0  0  0  0  0  0  0  0  0  0  0  0
   11.3454   15.1915   22.3619 C   0  0  1  0  0  0  0  0  0  0  0  0
   12.2657   14.7323   21.3280 C   0  0  0  0  0  0  0  0  0  0  0  0
   11.2451   15.7900   20.9628 C   0  0  0  0  0  0  0  0  0  0  0  0
   10.7389   15.4905   19.5593 C   0  0  0  0  0  0  0  0  0  0  0  0
    9.8051   16.0225   20.5547 C   0  0  0  0  0  0  0  0  0  0  0  0
  1  2  2  0
  2  3  1  0
  3  4  1  0
  4  5  1  0
  5  6  1  0
  6  7  1  0
  7  8  2  0
  8  9  1  0
  9 10  2  0
  9 11  1  0
 11 12  2  0
 12 13  1  0
 13 14  2  0
 13 15  1  0
 16 15  1  6
 16 17  1  0
 17 18  1  0
 18 19  1  0
 19 20  1  0
  7  2  1  0
 18 16  1  0
 12  6  1  0
 20 18  1  0
M  END
>  <energy_score>  (501) 
-24.921966

>  <inchikey>  (501) 
None

>  <smiles>  (501) 
None

>  <ref_pdb>  (501) 
A3181a

>  <alias>  (501) 
None

>  <HIPPO Pose ID>  (501) 
498847

>  <name>  (501) 
P498847

>  <HIPPO Compound ID>  (501) 
293897

>  <ref_mols>  (501) 
A3181a,A3618a

>  <distance_score>  (501) 
1.461185

>  <inspiration_score>  (501) 
None

$$$$
P498849
     RDKit          3D

 21 24  0  0  0  0  0  0  0  0999 V2000
   10.8123   11.8736   23.6445 O   0  0  0  0  0  0  0  0  0  0  0  0
    9.8804   12.5700   23.5669 C   0  0  0  0  0  0  0  0  0  0  0  0
    9.7483   14.0123   23.0165 N   0  0  0  0  0  0  0  0  0  0  0  0
   10.7692   14.9407   22.5298 C   0  0  1  0  0  0  0  0  0  0  0  0
   12.0433   14.4234   21.8494 C   0  0  0  0  0  0  0  0  0  0  0  0
   11.8960   15.4350   20.8207 O   0  0  0  0  0  0  0  0  0  0  0  0
   10.5336   15.5866   21.2227 C   0  0  0  0  0  0  0  0  0  0  0  0
    9.7208   16.7587   20.8132 C   0  0  0  0  0  0  0  0  0  0  0  0
    9.5017   15.4134   20.1768 C   0  0  0  0  0  0  0  0  0  0  0  0
    8.5714   12.1038   24.1648 C   0  0  0  0  0  0  0  0  0  0  0  0
    8.3143   10.7836   24.5642 C   0  0  0  0  0  0  0  0  0  0  0  0
    7.2230   10.5033   25.4282 C   0  0  0  0  0  0  0  0  0  0  0  0
    6.4564   11.5673   25.8698 C   0  0  0  0  0  0  0  0  0  0  0  0
    6.8031   12.8129   25.4178 C   0  0  0  0  0  0  0  0  0  0  0  0
    7.7852   13.1231   24.5377 N   0  0  0  0  0  0  0  0  0  0  0  0
    6.2047   13.8888   26.2039 C   0  0  0  0  0  0  0  0  0  0  0  0
    6.2193   15.0582   25.8982 O   0  0  0  0  0  0  0  0  0  0  0  0
    5.6362   13.3689   27.3845 N   0  0  0  0  0  0  0  0  0  0  0  0
    5.3698   11.7323   27.2376 S   0  0  0  0  0  0  0  0  0  0  0  0
    3.9759   11.6354   26.9050 O   0  0  0  0  0  0  0  0  0  0  0  0
    5.9236   11.0440   28.3734 O   0  0  0  0  0  0  0  0  0  0  0  0
  1  2  2  0
  2  3  1  0
  4  3  1  6
  4  5  1  0
  5  6  1  0
  6  7  1  0
  7  8  1  0
  8  9  1  0
  2 10  1  0
 10 11  2  0
 11 12  1  0
 12 13  2  0
 13 14  1  0
 14 15  2  0
 14 16  1  0
 16 17  2  0
 16 18  1  0
 18 19  1  0
 19 20  2  0
 19 21  2  0
  7  4  1  0
 15 10  1  0
  9  7  1  0
 19 13  1  0
M  END
>  <energy_score>  (502) 
-9.111607

>  <inchikey>  (502) 
None

>  <smiles>  (502) 
None

>  <ref_pdb>  (502) 
A3181a

>  <alias>  (502) 
None

>  <HIPPO Pose ID>  (502) 
498849

>  <name>  (502) 
P498849

>  <HIPPO Compound ID>  (502) 
293913

>  <ref_mols>  (502) 
A3181a,A3618a

>  <distance_score>  (502) 
1.973377

>  <inspiration_score>  (502) 
None

$$$$
P498850
     RDKit          3D

 21 24  0  0  0  0  0  0  0  0999 V2000
   10.8459   11.9362   23.8230 O   0  0  0  0  0  0  0  0  0  0  0  0
    9.9051   12.5981   23.6314 C   0  0  0  0  0  0  0  0  0  0  0  0
    9.7807   14.0027   22.9978 N   0  0  0  0  0  0  0  0  0  0  0  0
   10.8052   14.9303   22.5522 C   0  0  1  0  0  0  0  0  0  0  0  0
   12.0927   14.3249   21.9878 C   0  0  0  0  0  0  0  0  0  0  0  0
   12.0998   15.4414   20.9392 C   0  0  0  0  0  0  0  0  0  0  0  0
   10.6438   15.5517   21.2127 C   0  0  0  0  0  0  0  0  0  0  0  0
    9.7393   16.6885   20.8342 C   0  0  0  0  0  0  0  0  0  0  0  0
    9.5890   15.3529   20.1763 C   0  0  0  0  0  0  0  0  0  0  0  0
    8.5718   12.1164   24.1440 C   0  0  0  0  0  0  0  0  0  0  0  0
    8.4256   10.8635   24.7570 C   0  0  0  0  0  0  0  0  0  0  0  0
    7.3658   10.6453   25.6593 C   0  0  0  0  0  0  0  0  0  0  0  0
    6.5330   11.7073   25.9158 C   0  0  0  0  0  0  0  0  0  0  0  0
    6.6331   12.8084   25.1088 C   0  0  0  0  0  0  0  0  0  0  0  0
    7.6302   13.0719   24.2293 N   0  0  0  0  0  0  0  0  0  0  0  0
    5.5018   13.7281   25.2804 C   0  0  0  0  0  0  0  0  0  0  0  0
    5.4266   14.8262   24.7789 O   0  0  0  0  0  0  0  0  0  0  0  0
    4.5571   13.1772   26.1797 N   0  0  0  0  0  0  0  0  0  0  0  0
    5.2570   11.9655   27.0731 S   0  0  0  0  0  0  0  0  0  0  0  0
    5.8084   12.6076   28.2372 O   0  0  0  0  0  0  0  0  0  0  0  0
    4.3897   10.8251   27.1874 O   0  0  0  0  0  0  0  0  0  0  0  0
  1  2  2  0
  2  3  1  0
  4  3  1  6
  4  5  1  0
  5  6  1  0
  6  7  1  0
  7  8  1  0
  8  9  1  0
  2 10  1  0
 10 11  2  0
 11 12  1  0
 12 13  2  0
 13 14  1  0
 14 15  2  0
 14 16  1  0
 16 17  2  0
 16 18  1  0
 18 19  1  0
 19 20  2  0
 19 21  2  0
  7  4  1  0
 15 10  1  0
  9  7  1  0
 19 13  1  0
M  END
>  <energy_score>  (503) 
-8.373183

>  <inchikey>  (503) 
None

>  <smiles>  (503) 
None

>  <ref_pdb>  (503) 
A3181a

>  <alias>  (503) 
None

>  <HIPPO Pose ID>  (503) 
498850

>  <name>  (503) 
P498850

>  <HIPPO Compound ID>  (503) 
293925

>  <ref_mols>  (503) 
A3181a,A3618a

>  <distance_score>  (503) 
1.969221

>  <inspiration_score>  (503) 
None

$$$$
P498852
     RDKit          3D

 21 23  0  0  0  0  0  0  0  0999 V2000
    2.0299   13.0664   27.5532 C   0  0  0  0  0  0  0  0  0  0  0  0
    3.2810   12.3946   28.1252 C   0  0  2  0  0  0  0  0  0  0  0  0
    4.2980   12.3582   27.0954 N   0  0  0  0  0  0  0  0  0  0  0  0
    5.6573   11.6133   27.0484 C   0  0  0  0  0  0  0  0  0  0  0  0
    6.1301   10.8540   27.7988 O   0  0  0  0  0  0  0  0  0  0  0  0
    6.4366   12.1108   25.8352 C   0  0  0  0  0  0  0  0  0  0  0  0
    6.4088   13.4466   25.6854 C   0  0  0  0  0  0  0  0  0  0  0  0
    7.2398   14.0553   24.6452 C   0  0  0  0  0  0  0  0  0  0  0  0
    7.1497   15.2437   24.3824 O   0  0  0  0  0  0  0  0  0  0  0  0
    8.2474   13.2369   23.9913 C   0  0  0  0  0  0  0  0  0  0  0  0
    8.2498   11.9339   24.2710 C   0  0  0  0  0  0  0  0  0  0  0  0
    7.2950   11.2924   25.0666 N   0  0  0  0  0  0  0  0  0  0  0  0
    7.3674    9.8360   25.2261 C   0  0  0  0  0  0  0  0  0  0  0  0
    8.2698    9.1581   24.1720 C   0  0  0  0  0  0  0  0  0  0  0  0
    9.4633    9.8876   23.8623 N   0  0  0  0  0  0  0  0  0  0  0  0
    9.4633   11.2397   23.7562 C   0  0  0  0  0  0  0  0  0  0  0  0
   10.4321   11.8646   23.3524 O   0  0  0  0  0  0  0  0  0  0  0  0
    2.9864   11.0176   28.6444 C   0  0  2  0  0  0  0  0  0  0  0  0
    2.1087   10.8097   29.8585 C   0  0  0  0  0  0  0  0  0  0  0  0
    3.5743   10.4760   29.9356 C   0  0  2  0  0  0  0  0  0  0  0  0
    4.4694   11.2672   30.8279 C   0  0  0  0  0  0  0  0  0  0  0  0
  2  1  1  6
  2  3  1  0
  3  4  1  0
  4  5  2  0
  4  6  1  0
  6  7  2  0
  7  8  1  0
  8  9  2  0
  8 10  1  0
 10 11  2  0
 11 12  1  0
 12 13  1  0
 13 14  1  0
 14 15  1  0
 15 16  1  0
 16 17  2  0
  2 18  1  0
 18 19  1  1
 19 20  1  0
 20 21  1  1
 12  6  1  0
 20 18  1  0
 16 11  1  0
M  END
>  <energy_score>  (504) 
-48.279876

>  <inchikey>  (504) 
None

>  <smiles>  (504) 
None

>  <ref_pdb>  (504) 
A3181a

>  <alias>  (504) 
None

>  <HIPPO Pose ID>  (504) 
498852

>  <name>  (504) 
P498852

>  <HIPPO Compound ID>  (504) 
293937

>  <ref_mols>  (504) 
A3181a,A3618a

>  <distance_score>  (504) 
1.598394

>  <inspiration_score>  (504) 
None

$$$$
P498854
     RDKit          3D

 22 25  0  0  0  0  0  0  0  0999 V2000
   10.1344   14.3797   25.1894 O   0  0  0  0  0  0  0  0  0  0  0  0
    9.8471   13.8405   24.1920 C   0  0  0  0  0  0  0  0  0  0  0  0
   10.2837   14.1297   22.7307 N   0  0  0  0  0  0  0  0  0  0  0  0
   11.0961   15.2110   22.1803 C   0  0  1  0  0  0  0  0  0  0  0  0
   12.3266   14.7888   21.3666 C   0  0  0  0  0  0  0  0  0  0  0  0
   11.8312   15.4766   20.2029 O   0  0  0  0  0  0  0  0  0  0  0  0
   10.6230   15.7623   20.9008 C   0  0  0  0  0  0  0  0  0  0  0  0
    9.8047   16.9581   20.5771 C   0  0  0  0  0  0  0  0  0  0  0  0
    9.3596   15.5857   20.1553 C   0  0  0  0  0  0  0  0  0  0  0  0
    8.9782   12.6099   24.3037 C   0  0  0  0  0  0  0  0  0  0  0  0
    9.3517   11.4331   23.6707 C   0  0  0  0  0  0  0  0  0  0  0  0
    8.6541   10.2642   23.9606 C   0  0  0  0  0  0  0  0  0  0  0  0
    7.5925   10.3116   24.8532 C   0  0  0  0  0  0  0  0  0  0  0  0
    7.2470   11.5374   25.4147 C   0  0  0  0  0  0  0  0  0  0  0  0
    6.0771   11.5601   26.3565 C   0  0  0  0  0  0  0  0  0  0  0  0
    5.5515   10.5008   26.7035 O   0  0  0  0  0  0  0  0  0  0  0  0
    5.5474   12.7619   26.7538 N   0  0  0  0  0  0  0  0  0  0  0  0
    5.9230   13.4478   27.9655 C   0  0  0  0  0  0  0  0  0  0  0  0
    4.8775   14.5561   28.1073 C   0  0  0  0  0  0  0  0  0  0  0  0
    3.7658   14.1822   27.1320 C   0  0  0  0  0  0  0  0  0  0  0  0
    4.5459   13.5039   26.0197 C   0  0  0  0  0  0  0  0  0  0  0  0
    7.9374   12.6810   25.1719 N   0  0  0  0  0  0  0  0  0  0  0  0
  1  2  2  0
  2  3  1  0
  4  3  1  6
  4  5  1  0
  5  6  1  0
  6  7  1  0
  7  8  1  0
  8  9  1  0
  2 10  1  0
 10 11  2  0
 11 12  1  0
 12 13  2  0
 13 14  1  0
 14 15  1  0
 15 16  2  0
 15 17  1  0
 17 18  1  0
 18 19  1  0
 19 20  1  0
 20 21  1  0
 14 22  2  0
  7  4  1  0
 22 10  1  0
  9  7  1  0
 21 17  1  0
M  END
>  <energy_score>  (505) 
-12.306957

>  <inchikey>  (505) 
None

>  <smiles>  (505) 
None

>  <ref_pdb>  (505) 
A3181a

>  <alias>  (505) 
None

>  <HIPPO Pose ID>  (505) 
498854

>  <name>  (505) 
P498854

>  <HIPPO Compound ID>  (505) 
293955

>  <ref_mols>  (505) 
A3181a,A3618a

>  <distance_score>  (505) 
1.952539

>  <inspiration_score>  (505) 
None

$$$$
P498855
     RDKit          3D

 22 23  0  0  0  0  0  0  0  0999 V2000
    9.6588    8.7424   22.9813 C   0  0  0  0  0  0  0  0  0  0  0  0
    9.0560    9.8305   23.6787 N   0  0  0  0  0  0  0  0  0  0  0  0
    7.8577    9.8601   24.6307 C   0  0  0  0  0  0  0  0  0  0  0  0
    7.1204    9.0165   24.9412 O   0  0  0  0  0  0  0  0  0  0  0  0
    7.6581   11.2424   25.1561 C   0  0  0  0  0  0  0  0  0  0  0  0
    6.5846   11.4738   26.0139 C   0  0  0  0  0  0  0  0  0  0  0  0
    6.4103   12.7486   26.5172 C   0  0  0  0  0  0  0  0  0  0  0  0
    7.3262   13.7285   26.1751 C   0  0  0  0  0  0  0  0  0  0  0  0
    8.3831   13.4015   25.3325 C   0  0  0  0  0  0  0  0  0  0  0  0
    9.4078   14.4539   25.0526 C   0  0  0  0  0  0  0  0  0  0  0  0
    9.4763   15.3848   25.7483 O   0  0  0  0  0  0  0  0  0  0  0  0
   10.1585   14.1234   23.7580 N   0  0  0  0  0  0  0  0  0  0  0  0
   11.0811   14.9046   22.9931 C   0  0  1  0  0  0  0  0  0  0  0  0
   12.2136   14.1012   22.3872 C   0  0  0  0  0  0  0  0  0  0  0  0
   10.3460   15.6880   21.9570 C   0  0  2  0  0  0  0  0  0  0  0  0
    8.8414   15.8545   21.8046 C   0  0  0  0  0  0  0  0  0  0  0  0
    9.5869   14.9758   20.8614 C   0  0  1  0  0  0  0  0  0  0  0  0
   10.0679   15.3825   19.5435 C   0  0  0  0  0  0  0  0  0  0  0  0
    9.5951   16.3005   18.8994 O   0  0  0  0  0  0  0  0  0  0  0  0
   11.1415   14.6337   19.2536 O   0  0  0  0  0  0  0  0  0  0  0  0
   11.8966   15.1316   18.1865 C   0  0  0  0  0  0  0  0  0  0  0  0
    8.5777   12.1771   24.7775 N   0  0  0  0  0  0  0  0  0  0  0  0
  1  2  1  0
  2  3  1  0
  3  4  2  0
  3  5  1  0
  5  6  2  0
  6  7  1  0
  7  8  2  0
  8  9  1  0
  9 10  1  0
 10 11  2  0
 10 12  1  0
 12 13  1  0
 13 14  1  6
 13 15  1  0
 15 16  1  1
 16 17  1  0
 17 18  1  6
 18 19  2  0
 18 20  1  0
 20 21  1  0
  9 22  2  0
 22  5  1  0
 17 15  1  0
M  END
>  <energy_score>  (506) 
-6.083795

>  <inchikey>  (506) 
None

>  <smiles>  (506) 
None

>  <ref_pdb>  (506) 
A3181a

>  <alias>  (506) 
None

>  <HIPPO Pose ID>  (506) 
498855

>  <name>  (506) 
P498855

>  <HIPPO Compound ID>  (506) 
293958

>  <ref_mols>  (506) 
A3181a,A3618a

>  <distance_score>  (506) 
1.790394

>  <inspiration_score>  (506) 
None

$$$$
P498856
     RDKit          3D

 22 25  0  0  0  0  0  0  0  0999 V2000
   10.0751   14.5145   25.1619 O   0  0  0  0  0  0  0  0  0  0  0  0
    9.8653   13.8950   24.1922 C   0  0  0  0  0  0  0  0  0  0  0  0
   10.3506   14.1142   22.7341 N   0  0  0  0  0  0  0  0  0  0  0  0
   11.1238   15.2053   22.1455 C   0  0  1  0  0  0  0  0  0  0  0  0
   12.3127   14.7482   21.2962 C   0  0  0  0  0  0  0  0  0  0  0  0
   11.5410   15.0660   20.0174 C   0  0  0  0  0  0  0  0  0  0  0  0
   10.5254   15.6993   20.8837 C   0  0  0  0  0  0  0  0  0  0  0  0
    9.8310   16.9862   20.5574 C   0  0  0  0  0  0  0  0  0  0  0  0
    9.0592   15.7058   20.5966 C   0  0  0  0  0  0  0  0  0  0  0  0
    9.0207   12.6450   24.3234 C   0  0  0  0  0  0  0  0  0  0  0  0
    9.3959   11.4715   23.6834 C   0  0  0  0  0  0  0  0  0  0  0  0
    8.6976   10.2991   23.9583 C   0  0  0  0  0  0  0  0  0  0  0  0
    7.6302   10.3384   24.8433 C   0  0  0  0  0  0  0  0  0  0  0  0
    7.2829   11.5600   25.4120 C   0  0  0  0  0  0  0  0  0  0  0  0
    6.0987   11.5805   26.3337 C   0  0  0  0  0  0  0  0  0  0  0  0
    5.5670   10.5207   26.6698 O   0  0  0  0  0  0  0  0  0  0  0  0
    5.5571   12.7828   26.7114 N   0  0  0  0  0  0  0  0  0  0  0  0
    4.5729   13.5178   25.9417 C   0  0  0  0  0  0  0  0  0  0  0  0
    4.0216   14.5637   26.9073 C   0  0  0  0  0  0  0  0  0  0  0  0
    4.5685   14.1417   28.2677 C   0  0  0  0  0  0  0  0  0  0  0  0
    5.8943   13.4762   27.9245 C   0  0  0  0  0  0  0  0  0  0  0  0
    7.9747   12.7062   25.1850 N   0  0  0  0  0  0  0  0  0  0  0  0
  1  2  2  0
  2  3  1  0
  4  3  1  6
  4  5  1  0
  5  6  1  0
  6  7  1  0
  7  8  1  0
  8  9  1  0
  2 10  1  0
 10 11  2  0
 11 12  1  0
 12 13  2  0
 13 14  1  0
 14 15  1  0
 15 16  2  0
 15 17  1  0
 17 18  1  0
 18 19  1  0
 19 20  1  0
 20 21  1  0
 14 22  2  0
  7  4  1  0
 22 10  1  0
  9  7  1  0
 21 17  1  0
M  END
>  <energy_score>  (507) 
-2.870709

>  <inchikey>  (507) 
None

>  <smiles>  (507) 
None

>  <ref_pdb>  (507) 
A3181a

>  <alias>  (507) 
None

>  <HIPPO Pose ID>  (507) 
498856

>  <name>  (507) 
P498856

>  <HIPPO Compound ID>  (507) 
293975

>  <ref_mols>  (507) 
A3181a,A3618a

>  <distance_score>  (507) 
1.950108

>  <inspiration_score>  (507) 
None

$$$$
P498857
     RDKit          3D

 22 25  0  0  0  0  0  0  0  0999 V2000
   10.7685   12.1615   23.5689 O   0  0  0  0  0  0  0  0  0  0  0  0
    9.7405   12.6814   23.3826 C   0  0  0  0  0  0  0  0  0  0  0  0
    9.3928   13.9594   22.5794 N   0  0  0  0  0  0  0  0  0  0  0  0
   10.2552   14.9191   21.9158 C   0  0  1  0  0  0  0  0  0  0  0  0
   11.6910   14.5617   21.7258 C   0  0  2  0  0  0  0  0  0  0  0  0
   12.6389   15.6941   21.4529 C   0  0  0  0  0  0  0  0  0  0  0  0
   12.1063   14.8590   20.3260 C   0  0  2  0  0  0  0  0  0  0  0  0
   10.9073   15.2484   19.5278 C   0  0  0  0  0  0  0  0  0  0  0  0
    9.7642   15.4329   20.5315 C   0  0  2  0  0  0  0  0  0  0  0  0
    9.5089   16.7721   20.6229 F   0  0  0  0  0  0  0  0  0  0  0  0
    8.5043   12.1582   24.0685 C   0  0  0  0  0  0  0  0  0  0  0  0
    8.4495   10.9232   24.7215 C   0  0  0  0  0  0  0  0  0  0  0  0
    7.4225   10.6772   25.6566 C   0  0  0  0  0  0  0  0  0  0  0  0
    6.5450   11.7032   25.9201 C   0  0  0  0  0  0  0  0  0  0  0  0
    6.5758   12.7942   25.0972 C   0  0  0  0  0  0  0  0  0  0  0  0
    7.5190   13.0673   24.1672 N   0  0  0  0  0  0  0  0  0  0  0  0
    5.4291   13.6867   25.2996 C   0  0  0  0  0  0  0  0  0  0  0  0
    5.3148   14.7817   24.7985 O   0  0  0  0  0  0  0  0  0  0  0  0
    4.5275   13.1165   26.2284 N   0  0  0  0  0  0  0  0  0  0  0  0
    5.2800   11.9189   27.0982 S   0  0  0  0  0  0  0  0  0  0  0  0
    4.4458   10.7540   27.2116 O   0  0  0  0  0  0  0  0  0  0  0  0
    5.8314   12.5679   28.2583 O   0  0  0  0  0  0  0  0  0  0  0  0
  1  2  2  0
  2  3  1  0
  4  3  1  6
  4  5  1  0
  5  6  1  1
  7  6  1  1
  7  8  1  0
  8  9  1  0
  9 10  1  1
  2 11  1  0
 11 12  2  0
 12 13  1  0
 13 14  2  0
 14 15  1  0
 15 16  2  0
 15 17  1  0
 17 18  2  0
 17 19  1  0
 19 20  1  0
 20 21  2  0
 20 22  2  0
  9  4  1  0
 16 11  1  0
  7  5  1  0
 20 14  1  0
M  END
>  <energy_score>  (508) 
-0.482378

>  <inchikey>  (508) 
None

>  <smiles>  (508) 
None

>  <ref_pdb>  (508) 
A3181a

>  <alias>  (508) 
None

>  <HIPPO Pose ID>  (508) 
498857

>  <name>  (508) 
P498857

>  <HIPPO Compound ID>  (508) 
293977

>  <ref_mols>  (508) 
A3181a,A3618a

>  <distance_score>  (508) 
1.931413

>  <inspiration_score>  (508) 
None

$$$$
P498858
     RDKit          3D

 22 25  0  0  0  0  0  0  0  0999 V2000
   10.7232   11.6601   23.6248 O   0  0  0  0  0  0  0  0  0  0  0  0
    9.8111   12.3840   23.6314 C   0  0  0  0  0  0  0  0  0  0  0  0
    9.7009   13.8613   23.1861 N   0  0  0  0  0  0  0  0  0  0  0  0
   10.6967   14.7640   22.7376 C   0  0  1  0  0  0  0  0  0  0  0  0
   11.7817   14.6175   21.6826 C   0  0  0  0  0  0  0  0  0  0  0  0
   10.5655   15.3573   21.3945 C   0  0  2  0  0  0  0  0  0  0  0  0
    9.9685   16.6384   21.0026 C   0  0  0  0  0  0  0  0  0  0  0  0
    9.6329   15.3630   20.2921 C   0  0  0  0  0  0  0  0  0  0  0  0
    9.9809   15.3375   18.9641 F   0  0  0  0  0  0  0  0  0  0  0  0
    8.3700   14.8274   20.4248 F   0  0  0  0  0  0  0  0  0  0  0  0
    8.5009   11.9435   24.2395 C   0  0  0  0  0  0  0  0  0  0  0  0
    8.2083   10.6327   24.6344 C   0  0  0  0  0  0  0  0  0  0  0  0
    7.1052   10.3868   25.4932 C   0  0  0  0  0  0  0  0  0  0  0  0
    6.3626   11.4715   25.9283 C   0  0  0  0  0  0  0  0  0  0  0  0
    6.7467   12.7067   25.4814 C   0  0  0  0  0  0  0  0  0  0  0  0
    7.7415   12.9855   24.6108 N   0  0  0  0  0  0  0  0  0  0  0  0
    6.1835   13.8033   26.2640 C   0  0  0  0  0  0  0  0  0  0  0  0
    6.2502   14.9726   25.9624 O   0  0  0  0  0  0  0  0  0  0  0  0
    5.5893   13.3017   27.4389 N   0  0  0  0  0  0  0  0  0  0  0  0
    5.2875   11.6698   27.3007 S   0  0  0  0  0  0  0  0  0  0  0  0
    3.8895   11.5979   26.9764 O   0  0  0  0  0  0  0  0  0  0  0  0
    5.8372   10.9757   28.4350 O   0  0  0  0  0  0  0  0  0  0  0  0
  1  2  2  0
  2  3  1  0
  4  3  1  6
  4  5  1  0
  6  5  1  6
  6  7  1  0
  7  8  1  0
  8  9  1  0
  8 10  1  0
  2 11  1  0
 11 12  2  0
 12 13  1  0
 13 14  2  0
 14 15  1  0
 15 16  2  0
 15 17  1  0
 17 18  2  0
 17 19  1  0
 19 20  1  0
 20 21  2  0
 20 22  2  0
  6  4  1  0
 16 11  1  0
  8  6  1  0
 20 14  1  0
M  END
>  <energy_score>  (509) 
-0.261351

>  <inchikey>  (509) 
None

>  <smiles>  (509) 
None

>  <ref_pdb>  (509) 
A3181a

>  <alias>  (509) 
None

>  <HIPPO Pose ID>  (509) 
498858

>  <name>  (509) 
P498858

>  <HIPPO Compound ID>  (509) 
293983

>  <ref_mols>  (509) 
A3181a,A3618a

>  <distance_score>  (509) 
1.965083

>  <inspiration_score>  (509) 
None

$$$$
P498859
     RDKit          3D

 22 23  0  0  0  0  0  0  0  0999 V2000
    9.6282    8.8720   23.3078 C   0  0  0  0  0  0  0  0  0  0  0  0
    8.9766   10.0887   23.6829 N   0  0  0  0  0  0  0  0  0  0  0  0
    7.9399   10.3678   24.7820 C   0  0  0  0  0  0  0  0  0  0  0  0
    7.5088    9.6702   25.6053 O   0  0  0  0  0  0  0  0  0  0  0  0
    7.4974   11.8111   24.6825 C   0  0  0  0  0  0  0  0  0  0  0  0
    8.1643   12.5180   23.7033 N   0  0  0  0  0  0  0  0  0  0  0  0
    7.7159   13.7862   23.4837 C   0  0  0  0  0  0  0  0  0  0  0  0
    8.6426   14.7229   22.7711 C   0  0  0  0  0  0  0  0  0  0  0  0
    8.2577   15.6939   22.2680 O   0  0  0  0  0  0  0  0  0  0  0  0
   10.0645   14.1976   22.9506 N   0  0  0  0  0  0  0  0  0  0  0  0
   11.3346   14.8025   22.6322 C   0  0  2  0  0  0  0  0  0  0  0  0
   11.9272   14.6524   21.2443 C   0  0  0  0  0  0  0  0  0  0  0  0
   11.0931   15.3424   20.2200 N   0  0  0  0  0  0  0  0  0  0  0  0
   11.0376   14.8127   19.1046 O   0  0  0  0  0  0  0  0  0  0  0  0
   10.5942   16.4339   20.5119 O   0  0  0  0  0  0  0  0  0  0  0  0
   12.3102   14.3295   23.7018 C   0  0  0  0  0  0  0  0  0  0  0  0
   12.2740   13.0000   24.4182 C   0  0  0  0  0  0  0  0  0  0  0  0
   11.8225   14.2381   25.1378 C   0  0  0  0  0  0  0  0  0  0  0  0
    6.6851   14.3795   24.1953 C   0  0  0  0  0  0  0  0  0  0  0  0
    6.0865   13.6585   25.2218 C   0  0  0  0  0  0  0  0  0  0  0  0
    6.4920   12.3543   25.4912 C   0  0  0  0  0  0  0  0  0  0  0  0
    5.6745   11.5444   26.7734 Cl  0  0  0  0  0  0  0  0  0  0  0  0
  1  2  1  0
  2  3  1  0
  3  4  2  0
  3  5  1  0
  5  6  2  0
  6  7  1  0
  7  8  1  0
  8  9  2  0
  8 10  1  0
 10 11  1  0
 11 12  1  6
 12 13  1  0
 13 14  2  0
 13 15  1  0
 11 16  1  0
 16 17  1  0
 17 18  1  0
  7 19  2  0
 19 20  1  0
 20 21  2  0
 21 22  1  0
 21  5  1  0
 18 16  1  0
M  CHG  2  13   1  15  -1
M  END
>  <energy_score>  (510) 
-1.952483

>  <inchikey>  (510) 
None

>  <smiles>  (510) 
None

>  <ref_pdb>  (510) 
A3181a

>  <alias>  (510) 
None

>  <HIPPO Pose ID>  (510) 
498859

>  <name>  (510) 
P498859

>  <HIPPO Compound ID>  (510) 
294018

>  <ref_mols>  (510) 
A3181a,A3618a

>  <distance_score>  (510) 
1.754839

>  <inspiration_score>  (510) 
None

$$$$
P498865
     RDKit          3D

 22 25  0  0  0  0  0  0  0  0999 V2000
   11.6048   15.1324   19.2909 C   0  0  0  0  0  0  0  0  0  0  0  0
   10.6997   15.3339   20.4886 C   0  0  0  0  0  0  0  0  0  0  0  0
   11.1110   14.6114   21.8292 C   0  0  0  0  0  0  0  0  0  0  0  0
   10.0702   14.0818   22.6566 N   0  0  0  0  0  0  0  0  0  0  0  0
    9.9454   14.0188   24.1974 C   0  0  0  0  0  0  0  0  0  0  0  0
   10.6355   14.4581   25.0318 O   0  0  0  0  0  0  0  0  0  0  0  0
    8.7662   13.1531   24.5448 C   0  0  0  0  0  0  0  0  0  0  0  0
    7.8375   13.8053   25.2535 C   0  0  0  0  0  0  0  0  0  0  0  0
    6.7464   13.0090   25.8303 C   0  0  0  0  0  0  0  0  0  0  0  0
    5.8753   13.5269   26.5076 O   0  0  0  0  0  0  0  0  0  0  0  0
    6.7334   11.5663   25.6409 C   0  0  0  0  0  0  0  0  0  0  0  0
    7.6948   11.0319   24.8828 C   0  0  0  0  0  0  0  0  0  0  0  0
    8.7333   11.7680   24.2961 N   0  0  0  0  0  0  0  0  0  0  0  0
    9.7070   11.1071   23.4165 C   0  0  0  0  0  0  0  0  0  0  0  0
    9.6403    9.5789   23.3983 C   0  0  0  0  0  0  0  0  0  0  0  0
    8.3486    9.0345   23.7000 N   0  0  0  0  0  0  0  0  0  0  0  0
    7.5092    9.5800   24.6168 C   0  0  0  0  0  0  0  0  0  0  0  0
    6.6017    8.9316   25.1219 O   0  0  0  0  0  0  0  0  0  0  0  0
   12.3434   13.7360   21.8676 C   0  0  0  0  0  0  0  0  0  0  0  0
   12.3987   15.0891   22.4691 C   0  0  0  0  0  0  0  0  0  0  0  0
   10.0035   16.6814   20.5577 C   0  0  0  0  0  0  0  0  0  0  0  0
    9.2538   15.4821   20.1062 C   0  0  0  0  0  0  0  0  0  0  0  0
  1  2  1  0
  2  3  1  0
  3  4  1  0
  4  5  1  0
  5  6  2  0
  5  7  1  0
  7  8  2  0
  8  9  1  0
  9 10  2  0
  9 11  1  0
 11 12  2  0
 12 13  1  0
 13 14  1  0
 14 15  1  0
 15 16  1  0
 16 17  1  0
 17 18  2  0
  3 19  1  0
 19 20  1  0
  2 21  1  0
 21 22  1  0
 22  2  1  0
 20  3  1  0
 13  7  1  0
 17 12  1  0
M  END
>  <energy_score>  (511) 
-41.087196

>  <inchikey>  (511) 
None

>  <smiles>  (511) 
None

>  <ref_pdb>  (511) 
A3181a

>  <alias>  (511) 
None

>  <HIPPO Pose ID>  (511) 
498865

>  <name>  (511) 
P498865

>  <HIPPO Compound ID>  (511) 
294032

>  <ref_mols>  (511) 
A3181a,A3618a

>  <distance_score>  (511) 
1.614573

>  <inspiration_score>  (511) 
None

$$$$
P498868
     RDKit          3D

 22 25  0  0  0  0  0  0  0  0999 V2000
    6.4639    9.7382   26.0840 O   0  0  0  0  0  0  0  0  0  0  0  0
    7.3304    9.9864   25.2592 C   0  0  0  0  0  0  0  0  0  0  0  0
    8.0887    9.0216   24.6800 N   0  0  0  0  0  0  0  0  0  0  0  0
    8.9642    9.2209   23.5539 C   0  0  0  0  0  0  0  0  0  0  0  0
    9.5923   10.6048   23.4819 C   0  0  0  0  0  0  0  0  0  0  0  0
    8.8179   11.6652   24.1448 N   0  0  0  0  0  0  0  0  0  0  0  0
    7.6892   11.3698   24.9162 C   0  0  0  0  0  0  0  0  0  0  0  0
    6.9162   12.2695   25.5330 C   0  0  0  0  0  0  0  0  0  0  0  0
    7.3334   13.6650   25.4634 C   0  0  0  0  0  0  0  0  0  0  0  0
    6.6842   14.5548   25.9987 O   0  0  0  0  0  0  0  0  0  0  0  0
    8.6185   13.9668   24.8211 C   0  0  0  0  0  0  0  0  0  0  0  0
    9.2833   12.9776   24.2047 C   0  0  0  0  0  0  0  0  0  0  0  0
   10.6605   13.3917   23.7657 C   0  0  0  0  0  0  0  0  0  0  0  0
   11.6346   12.9759   24.2529 O   0  0  0  0  0  0  0  0  0  0  0  0
   10.4661   14.4813   22.6902 N   0  0  0  0  0  0  0  0  0  0  0  0
   11.3978   15.3307   22.0748 C   0  0  1  0  0  0  0  0  0  0  0  0
   12.3107   15.0674   20.8917 C   0  0  0  0  0  0  0  0  0  0  0  0
   11.0563   15.7870   20.7297 C   0  0  2  0  0  0  0  0  0  0  0  0
   10.2729   16.8981   20.1796 C   0  0  0  0  0  0  0  0  0  0  0  0
    9.9996   15.4936   19.7862 C   0  0  0  0  0  0  0  0  0  0  0  0
    8.8019   14.9462   20.1564 F   0  0  0  0  0  0  0  0  0  0  0  0
   10.3345   15.0465   18.5322 F   0  0  0  0  0  0  0  0  0  0  0  0
  1  2  2  0
  2  3  1  0
  3  4  1  0
  4  5  1  0
  5  6  1  0
  6  7  1  0
  7  8  2  0
  8  9  1  0
  9 10  2  0
  9 11  1  0
 11 12  2  0
 12 13  1  0
 13 14  2  0
 13 15  1  0
 16 15  1  6
 16 17  1  0
 18 17  1  6
 18 19  1  0
 19 20  1  0
 20 21  1  0
 20 22  1  0
  7  2  1  0
 18 16  1  0
 12  6  1  0
 20 18  1  0
M  END
>  <energy_score>  (512) 
-28.945151

>  <inchikey>  (512) 
None

>  <smiles>  (512) 
None

>  <ref_pdb>  (512) 
A3181a

>  <alias>  (512) 
None

>  <HIPPO Pose ID>  (512) 
498868

>  <name>  (512) 
P498868

>  <HIPPO Compound ID>  (512) 
294035

>  <ref_mols>  (512) 
A3181a,A3618a

>  <distance_score>  (512) 
1.802853

>  <inspiration_score>  (512) 
None

$$$$
P498871
     RDKit          3D

 22 26  0  0  0  0  0  0  0  0999 V2000
    6.6137    8.7702   25.1568 O   0  0  0  0  0  0  0  0  0  0  0  0
    7.5322    9.4055   24.6600 C   0  0  0  0  0  0  0  0  0  0  0  0
    8.3647    8.8732   23.7298 N   0  0  0  0  0  0  0  0  0  0  0  0
    9.5987    9.4755   23.3108 C   0  0  0  0  0  0  0  0  0  0  0  0
    9.6068   11.0059   23.3287 C   0  0  0  0  0  0  0  0  0  0  0  0
    8.5155   11.6135   24.0947 N   0  0  0  0  0  0  0  0  0  0  0  0
    7.6962   10.8466   24.9208 C   0  0  0  0  0  0  0  0  0  0  0  0
    6.8269   11.3512   25.8024 C   0  0  0  0  0  0  0  0  0  0  0  0
    6.7368   12.8041   25.8603 C   0  0  0  0  0  0  0  0  0  0  0  0
    6.2206   13.3333   26.8286 O   0  0  0  0  0  0  0  0  0  0  0  0
    7.2809   13.5851   24.7443 C   0  0  0  0  0  0  0  0  0  0  0  0
    8.1248   12.9374   23.9316 C   0  0  0  0  0  0  0  0  0  0  0  0
    8.5244   13.7637   22.7695 C   0  0  0  0  0  0  0  0  0  0  0  0
    7.8219   13.9573   21.8618 O   0  0  0  0  0  0  0  0  0  0  0  0
    9.9179   14.3305   23.0914 N   0  0  0  0  0  0  0  0  0  0  0  0
   10.6798   15.3012   22.4303 C   0  0  1  0  0  0  0  0  0  0  0  0
   11.6679   15.1510   21.3602 C   0  0  1  0  0  0  0  0  0  0  0  0
   13.0968   15.3564   21.4652 C   0  0  0  0  0  0  0  0  0  0  0  0
   12.4978   14.1213   20.7918 C   0  0  0  0  0  0  0  0  0  0  0  0
   10.4581   15.8122   21.0571 C   0  0  1  0  0  0  0  0  0  0  0  0
    9.5643   15.6295   19.9254 C   0  0  0  0  0  0  0  0  0  0  0  0
    9.8175   17.0058   20.5290 C   0  0  0  0  0  0  0  0  0  0  0  0
  1  2  2  0
  2  3  1  0
  3  4  1  0
  4  5  1  0
  5  6  1  0
  6  7  1  0
  7  8  2  0
  8  9  1  0
  9 10  2  0
  9 11  1  0
 11 12  2  0
 12 13  1  0
 13 14  2  0
 13 15  1  0
 16 15  1  6
 16 17  1  0
 17 18  1  1
 18 19  1  0
 17 20  1  0
 20 21  1  6
 21 22  1  0
  7  2  1  0
 20 16  1  0
 12  6  1  0
 19 17  1  0
 22 20  1  0
M  END
>  <energy_score>  (513) 
-28.456214

>  <inchikey>  (513) 
None

>  <smiles>  (513) 
None

>  <ref_pdb>  (513) 
A3181a

>  <alias>  (513) 
None

>  <HIPPO Pose ID>  (513) 
498871

>  <name>  (513) 
P498871

>  <HIPPO Compound ID>  (513) 
294037

>  <ref_mols>  (513) 
A3181a,A3618a

>  <distance_score>  (513) 
1.734583

>  <inspiration_score>  (513) 
None

$$$$
P498873
     RDKit          3D

 23 26  0  0  0  0  0  0  0  0999 V2000
    6.5658    9.9749   26.2841 O   0  0  0  0  0  0  0  0  0  0  0  0
    7.3422   10.0631   25.3437 C   0  0  0  0  0  0  0  0  0  0  0  0
    7.9719    8.9920   24.7991 N   0  0  0  0  0  0  0  0  0  0  0  0
    8.7954    9.0175   23.6120 C   0  0  0  0  0  0  0  0  0  0  0  0
    9.5786   10.3085   23.4494 C   0  0  0  0  0  0  0  0  0  0  0  0
    8.8697   11.4909   23.9664 N   0  0  0  0  0  0  0  0  0  0  0  0
    7.7480   11.3644   24.7960 C   0  0  0  0  0  0  0  0  0  0  0  0
    7.0275   12.3785   25.2841 C   0  0  0  0  0  0  0  0  0  0  0  0
    7.4920   13.7288   24.9850 C   0  0  0  0  0  0  0  0  0  0  0  0
    6.8844   14.7142   25.3836 O   0  0  0  0  0  0  0  0  0  0  0  0
    8.7737   13.8731   24.2838 C   0  0  0  0  0  0  0  0  0  0  0  0
    9.3904   12.7702   23.8324 C   0  0  0  0  0  0  0  0  0  0  0  0
   10.7799   13.0759   23.3680 C   0  0  0  0  0  0  0  0  0  0  0  0
   11.7271   12.8349   24.0018 O   0  0  0  0  0  0  0  0  0  0  0  0
   10.6390   13.8154   22.0258 N   0  0  0  0  0  0  0  0  0  0  0  0
   11.6353   14.5071   21.2161 C   0  0  2  0  0  0  0  0  0  0  0  0
   11.8431   15.8995   21.8615 C   0  0  0  0  0  0  0  0  0  0  0  0
   10.5398   16.3029   21.1202 C   0  0  0  0  0  0  0  0  0  0  0  0
   10.3935   17.5375   20.6308 F   0  0  0  0  0  0  0  0  0  0  0  0
    9.3488   15.9059   21.6317 F   0  0  0  0  0  0  0  0  0  0  0  0
   11.0302   15.3239   20.1249 C   0  0  0  0  0  0  0  0  0  0  0  0
   10.4503   14.9208   18.8320 C   0  0  0  0  0  0  0  0  0  0  0  0
   11.6944   15.6966   18.8285 C   0  0  0  0  0  0  0  0  0  0  0  0
  1  2  2  0
  2  3  1  0
  3  4  1  0
  4  5  1  0
  5  6  1  0
  6  7  1  0
  7  8  2  0
  8  9  1  0
  9 10  2  0
  9 11  1  0
 11 12  2  0
 12 13  1  0
 13 14  2  0
 13 15  1  0
 16 15  1  1
 16 17  1  0
 17 18  1  0
 18 19  1  0
 18 20  1  0
 18 21  1  0
 21 22  1  0
 22 23  1  0
  7  2  1  0
 21 16  1  0
 12  6  1  0
 23 21  1  0
M  END
>  <energy_score>  (514) 
-28.12294

>  <inchikey>  (514) 
None

>  <smiles>  (514) 
None

>  <ref_pdb>  (514) 
A3181a

>  <alias>  (514) 
None

>  <HIPPO Pose ID>  (514) 
498873

>  <name>  (514) 
P498873

>  <HIPPO Compound ID>  (514) 
294052

>  <ref_mols>  (514) 
A3181a,A3618a

>  <distance_score>  (514) 
1.971203

>  <inspiration_score>  (514) 
None

$$$$
P498875
     RDKit          3D

 23 26  0  0  0  0  0  0  0  0999 V2000
    6.5042    9.1703   25.2433 O   0  0  0  0  0  0  0  0  0  0  0  0
    7.4700    9.7266   24.7353 C   0  0  0  0  0  0  0  0  0  0  0  0
    8.2508    9.0757   23.8278 N   0  0  0  0  0  0  0  0  0  0  0  0
    9.5565    9.5256   23.4181 C   0  0  0  0  0  0  0  0  0  0  0  0
    9.6608   11.0415   23.3472 C   0  0  0  0  0  0  0  0  0  0  0  0
    8.9783   11.7321   24.4416 N   0  0  0  0  0  0  0  0  0  0  0  0
    7.8304   11.1554   25.0174 C   0  0  0  0  0  0  0  0  0  0  0  0
    6.9758   11.8305   25.8003 C   0  0  0  0  0  0  0  0  0  0  0  0
    7.2582   13.2521   26.0533 C   0  0  0  0  0  0  0  0  0  0  0  0
    6.5609   13.9204   26.8033 O   0  0  0  0  0  0  0  0  0  0  0  0
    8.4463   13.8596   25.4362 C   0  0  0  0  0  0  0  0  0  0  0  0
    9.2408   13.0801   24.6969 C   0  0  0  0  0  0  0  0  0  0  0  0
   10.5132   13.7777   24.2829 C   0  0  0  0  0  0  0  0  0  0  0  0
   11.4219   13.8608   25.0045 O   0  0  0  0  0  0  0  0  0  0  0  0
   10.2941   14.3742   22.8870 N   0  0  0  0  0  0  0  0  0  0  0  0
   11.1138   15.2862   22.1128 C   0  0  1  0  0  0  0  0  0  0  0  0
   12.4951   14.7413   21.7519 C   0  0  0  0  0  0  0  0  0  0  0  0
   12.4526   14.4566   20.3460 N   0  0  0  0  0  0  0  0  0  0  0  0
   11.3643   14.9890   19.7214 C   0  0  0  0  0  0  0  0  0  0  0  0
   11.1413   14.9914   18.5274 O   0  0  0  0  0  0  0  0  0  0  0  0
   10.5123   15.6040   20.7703 C   0  0  0  0  0  0  0  0  0  0  0  0
    9.8505   16.9366   20.4595 C   0  0  0  0  0  0  0  0  0  0  0  0
    9.0200   15.7110   20.6562 C   0  0  0  0  0  0  0  0  0  0  0  0
  1  2  2  0
  2  3  1  0
  3  4  1  0
  4  5  1  0
  5  6  1  0
  6  7  1  0
  7  8  2  0
  8  9  1  0
  9 10  2  0
  9 11  1  0
 11 12  2  0
 12 13  1  0
 13 14  2  0
 13 15  1  0
 16 15  1  6
 16 17  1  0
 17 18  1  0
 18 19  1  0
 19 20  2  0
 19 21  1  0
 21 22  1  0
 22 23  1  0
  7  2  1  0
 21 16  1  0
 12  6  1  0
 23 21  1  0
M  END
>  <energy_score>  (515) 
-55.172248

>  <inchikey>  (515) 
None

>  <smiles>  (515) 
None

>  <ref_pdb>  (515) 
A3181a

>  <alias>  (515) 
None

>  <HIPPO Pose ID>  (515) 
498875

>  <name>  (515) 
P498875

>  <HIPPO Compound ID>  (515) 
294055

>  <ref_mols>  (515) 
A3181a,A3618a

>  <distance_score>  (515) 
1.690151

>  <inspiration_score>  (515) 
None

$$$$
P498877
     RDKit          3D

 23 25  0  0  0  0  0  0  0  0999 V2000
    6.3416    8.8139   25.1125 O   0  0  0  0  0  0  0  0  0  0  0  0
    7.4041    9.2629   24.7134 C   0  0  0  0  0  0  0  0  0  0  0  0
    8.3484    8.4906   24.1089 N   0  0  0  0  0  0  0  0  0  0  0  0
    9.6084    8.9881   23.6132 C   0  0  0  0  0  0  0  0  0  0  0  0
    9.4094   10.3259   22.9906 C   0  0  0  0  0  0  0  0  0  0  0  0
    8.5933   11.2094   23.8380 N   0  0  0  0  0  0  0  0  0  0  0  0
    7.6361   10.7027   24.6990 C   0  0  0  0  0  0  0  0  0  0  0  0
    6.8025   11.4292   25.4478 C   0  0  0  0  0  0  0  0  0  0  0  0
    6.9138   12.8733   25.3168 C   0  0  0  0  0  0  0  0  0  0  0  0
    6.1712   13.6005   25.9542 O   0  0  0  0  0  0  0  0  0  0  0  0
    8.0219   13.4308   24.5243 C   0  0  0  0  0  0  0  0  0  0  0  0
    8.8262   12.5603   23.8895 C   0  0  0  0  0  0  0  0  0  0  0  0
   10.2546   12.9453   23.8163 C   0  0  0  0  0  0  0  0  0  0  0  0
   11.0585   12.2030   24.1901 O   0  0  0  0  0  0  0  0  0  0  0  0
   10.3862   14.3598   23.3226 N   0  0  0  0  0  0  0  0  0  0  0  0
   11.5088   15.2089   23.2643 C   0  0  2  0  0  0  0  0  0  0  0  0
   12.3808   14.8871   22.0556 C   0  0  0  0  0  0  0  0  0  0  0  0
   11.6350   15.2970   20.7886 N   0  0  0  0  0  0  0  0  0  0  0  0
   11.9772   14.7603   19.7292 O   0  0  0  0  0  0  0  0  0  0  0  0
   10.7552   16.1662   20.8778 O   0  0  0  0  0  0  0  0  0  0  0  0
   12.0351   14.9378   24.7187 C   0  0  0  0  0  0  0  0  0  0  0  0
   10.9135   14.9730   25.8095 C   0  0  0  0  0  0  0  0  0  0  0  0
   12.0965   15.8020   26.0036 C   0  0  0  0  0  0  0  0  0  0  0  0
  1  2  2  0
  2  3  1  0
  3  4  1  0
  4  5  1  0
  5  6  1  0
  6  7  1  0
  7  8  2  0
  8  9  1  0
  9 10  2  0
  9 11  1  0
 11 12  2  0
 12 13  1  0
 13 14  2  0
 13 15  1  0
 15 16  1  0
 16 17  1  6
 17 18  1  0
 18 19  2  0
 18 20  1  0
 16 21  1  0
 21 22  1  0
 22 23  1  0
  7  2  1  0
 23 21  1  0
 12  6  1  0
M  CHG  2  18   1  20  -1
M  END
>  <energy_score>  (516) 
-14.669167

>  <inchikey>  (516) 
None

>  <smiles>  (516) 
None

>  <ref_pdb>  (516) 
A3181a

>  <alias>  (516) 
None

>  <HIPPO Pose ID>  (516) 
498877

>  <name>  (516) 
P498877

>  <HIPPO Compound ID>  (516) 
294059

>  <ref_mols>  (516) 
A3181a,A3618a

>  <distance_score>  (516) 
1.469364

>  <inspiration_score>  (516) 
None

$$$$
P498879
     RDKit          3D

 23 24  0  0  0  0  0  0  0  0999 V2000
    9.5164    8.6638   23.3712 C   0  0  0  0  0  0  0  0  0  0  0  0
    8.8052    9.8369   23.7692 N   0  0  0  0  0  0  0  0  0  0  0  0
    7.7494   10.0399   24.8689 C   0  0  0  0  0  0  0  0  0  0  0  0
    7.2370    9.2701   25.5718 O   0  0  0  0  0  0  0  0  0  0  0  0
    7.4334   11.5061   24.9694 C   0  0  0  0  0  0  0  0  0  0  0  0
    8.1407   12.2438   24.0524 N   0  0  0  0  0  0  0  0  0  0  0  0
    7.8325   13.5577   23.9947 C   0  0  0  0  0  0  0  0  0  0  0  0
    8.7772   14.4257   23.2451 C   0  0  0  0  0  0  0  0  0  0  0  0
    8.5070   15.5415   23.0721 O   0  0  0  0  0  0  0  0  0  0  0  0
   10.0539   13.6481   22.9055 N   0  0  0  0  0  0  0  0  0  0  0  0
   11.3115   14.1019   22.3645 C   0  0  1  0  0  0  0  0  0  0  0  0
   11.2503   15.4228   21.6183 C   0  0  0  0  0  0  0  0  0  0  0  0
   10.4327   15.3991   20.3640 C   0  0  0  0  0  0  0  0  0  0  0  0
   11.0662   14.7465   19.3701 F   0  0  0  0  0  0  0  0  0  0  0  0
   10.2447   16.6731   19.9451 F   0  0  0  0  0  0  0  0  0  0  0  0
    9.2159   14.8450   20.5271 F   0  0  0  0  0  0  0  0  0  0  0  0
   12.2469   14.2745   23.5536 C   0  0  0  0  0  0  0  0  0  0  0  0
   11.7431   14.4696   24.9738 C   0  0  0  0  0  0  0  0  0  0  0  0
   12.4356   13.1930   24.5868 C   0  0  0  0  0  0  0  0  0  0  0  0
    6.8989   14.1726   24.8107 C   0  0  0  0  0  0  0  0  0  0  0  0
    6.2639   13.4162   25.7829 C   0  0  0  0  0  0  0  0  0  0  0  0
    6.5352   12.0575   25.8903 C   0  0  0  0  0  0  0  0  0  0  0  0
    5.7589   11.2504   27.1940 Cl  0  0  0  0  0  0  0  0  0  0  0  0
  1  2  1  0
  2  3  1  0
  3  4  2  0
  3  5  1  0
  5  6  2  0
  6  7  1  0
  7  8  1  0
  8  9  2  0
  8 10  1  0
 10 11  1  0
 11 12  1  1
 12 13  1  0
 13 14  1  0
 13 15  1  0
 13 16  1  0
 11 17  1  0
 17 18  1  0
 18 19  1  0
  7 20  2  0
 20 21  1  0
 21 22  2  0
 22 23  1  0
 22  5  1  0
 19 17  1  0
M  END
>  <energy_score>  (517) 
-9.594298

>  <inchikey>  (517) 
None

>  <smiles>  (517) 
None

>  <ref_pdb>  (517) 
A3181a

>  <alias>  (517) 
None

>  <HIPPO Pose ID>  (517) 
498879

>  <name>  (517) 
P498879

>  <HIPPO Compound ID>  (517) 
294072

>  <ref_mols>  (517) 
A3181a,A3618a

>  <distance_score>  (517) 
1.947792

>  <inspiration_score>  (517) 
None

$$$$
P498880
     RDKit          3D

 23 24  0  0  0  0  0  0  0  0999 V2000
    9.4554    8.8924   23.0987 C   0  0  0  0  0  0  0  0  0  0  0  0
    8.8906   10.0127   23.7930 N   0  0  0  0  0  0  0  0  0  0  0  0
    7.7193   10.0847   24.7887 C   0  0  0  0  0  0  0  0  0  0  0  0
    6.9801    9.2600   25.1435 O   0  0  0  0  0  0  0  0  0  0  0  0
    7.6116   11.4989   25.3184 C   0  0  0  0  0  0  0  0  0  0  0  0
    8.6019   12.3347   24.8462 N   0  0  0  0  0  0  0  0  0  0  0  0
    8.5854   13.5900   25.3602 C   0  0  0  0  0  0  0  0  0  0  0  0
    9.7280   14.4889   25.0655 C   0  0  0  0  0  0  0  0  0  0  0  0
   10.0631   15.2646   25.8636 O   0  0  0  0  0  0  0  0  0  0  0  0
   10.2129   14.2668   23.6375 N   0  0  0  0  0  0  0  0  0  0  0  0
   11.1440   15.0055   22.8493 C   0  0  1  0  0  0  0  0  0  0  0  0
   12.2515   14.1652   22.2559 C   0  0  0  0  0  0  0  0  0  0  0  0
   10.3966   15.7783   21.8180 C   0  0  2  0  0  0  0  0  0  0  0  0
    8.8930   15.9817   21.7019 C   0  0  0  0  0  0  0  0  0  0  0  0
    9.5826   15.0428   20.7765 C   0  0  1  0  0  0  0  0  0  0  0  0
   10.0560   15.3750   19.4394 C   0  0  0  0  0  0  0  0  0  0  0  0
    9.5565   16.2292   18.7333 O   0  0  0  0  0  0  0  0  0  0  0  0
   11.1549   14.6433   19.2111 O   0  0  0  0  0  0  0  0  0  0  0  0
   11.9175   15.1315   18.1485 C   0  0  0  0  0  0  0  0  0  0  0  0
    7.6103   14.0882   26.2049 C   0  0  0  0  0  0  0  0  0  0  0  0
    6.6266   13.2318   26.6496 C   0  0  0  0  0  0  0  0  0  0  0  0
    6.6428   11.9012   26.2501 C   0  0  0  0  0  0  0  0  0  0  0  0
    5.5279   10.9080   27.0904 Cl  0  0  0  0  0  0  0  0  0  0  0  0
  1  2  1  0
  2  3  1  0
  3  4  2  0
  3  5  1  0
  5  6  2  0
  6  7  1  0
  7  8  1  0
  8  9  2  0
  8 10  1  0
 10 11  1  0
 11 12  1  6
 11 13  1  0
 13 14  1  1
 14 15  1  0
 15 16  1  6
 16 17  2  0
 16 18  1  0
 18 19  1  0
  7 20  2  0
 20 21  1  0
 21 22  2  0
 22 23  1  0
 22  5  1  0
 15 13  1  0
M  END
>  <energy_score>  (518) 
-4.750088

>  <inchikey>  (518) 
None

>  <smiles>  (518) 
None

>  <ref_pdb>  (518) 
A3181a

>  <alias>  (518) 
None

>  <HIPPO Pose ID>  (518) 
498880

>  <name>  (518) 
P498880

>  <HIPPO Compound ID>  (518) 
294081

>  <ref_mols>  (518) 
A3181a,A3618a

>  <distance_score>  (518) 
1.710388

>  <inspiration_score>  (518) 
None

$$$$
P498883
     RDKit          3D

 23 26  0  0  0  0  0  0  0  0999 V2000
    9.8878   11.4359   22.7461 O   0  0  0  0  0  0  0  0  0  0  0  0
    9.4401   12.1296   23.5651 C   0  0  0  0  0  0  0  0  0  0  0  0
    9.6268   13.6434   23.8060 N   0  0  0  0  0  0  0  0  0  0  0  0
   10.3241   14.6291   23.0358 C   0  0  1  0  0  0  0  0  0  0  0  0
   11.3560   14.3286   21.9492 C   0  0  0  0  0  0  0  0  0  0  0  0
   11.1651   15.4608   20.8887 C   0  0  1  0  0  0  0  0  0  0  0  0
   11.3577   15.0079   19.4424 C   0  0  0  0  0  0  0  0  0  0  0  0
   10.8315   15.9681   18.5334 O   0  0  0  0  0  0  0  0  0  0  0  0
    9.7567   15.9590   21.0948 C   0  0  1  0  0  0  0  0  0  0  0  0
    8.6186   14.9869   21.0410 C   0  0  0  0  0  0  0  0  0  0  0  0
    9.2230   15.3847   22.3498 C   0  0  1  0  0  0  0  0  0  0  0  0
    8.4234   11.6571   24.5757 C   0  0  0  0  0  0  0  0  0  0  0  0
    7.8626   10.3871   24.6684 C   0  0  0  0  0  0  0  0  0  0  0  0
    6.7635   10.1851   25.5462 C   0  0  0  0  0  0  0  0  0  0  0  0
    6.2470   11.2783   26.2227 C   0  0  0  0  0  0  0  0  0  0  0  0
    6.9176   12.4545   26.0968 C   0  0  0  0  0  0  0  0  0  0  0  0
    7.9896   12.6835   25.3299 N   0  0  0  0  0  0  0  0  0  0  0  0
    6.4719   13.4995   27.0042 C   0  0  0  0  0  0  0  0  0  0  0  0
    6.7802   14.6662   26.9075 O   0  0  0  0  0  0  0  0  0  0  0  0
    5.6430   12.9410   27.9937 N   0  0  0  0  0  0  0  0  0  0  0  0
    5.0522   11.4631   27.4854 S   0  0  0  0  0  0  0  0  0  0  0  0
    5.2827   10.4757   28.5056 O   0  0  0  0  0  0  0  0  0  0  0  0
    3.7380   11.7760   26.9919 O   0  0  0  0  0  0  0  0  0  0  0  0
  1  2  2  0
  2  3  1  0
  4  3  1  6
  4  5  1  0
  5  6  1  0
  6  7  1  6
  7  8  1  0
  6  9  1  0
  9 10  1  6
 11 10  1  6
  2 12  1  0
 12 13  2  0
 13 14  1  0
 14 15  2  0
 15 16  1  0
 16 17  2  0
 16 18  1  0
 18 19  2  0
 18 20  1  0
 20 21  1  0
 21 22  2  0
 21 23  2  0
 11  4  1  0
 17 12  1  0
 11  9  1  0
 21 15  1  0
M  END
>  <energy_score>  (519) 
-7.232163

>  <inchikey>  (519) 
None

>  <smiles>  (519) 
None

>  <ref_pdb>  (519) 
A3181a

>  <alias>  (519) 
None

>  <HIPPO Pose ID>  (519) 
498883

>  <name>  (519) 
P498883

>  <HIPPO Compound ID>  (519) 
294127

>  <ref_mols>  (519) 
A3181a,A3618a

>  <distance_score>  (519) 
1.999012

>  <inspiration_score>  (519) 
None

$$$$
P498884
     RDKit          3D

 23 26  0  0  0  0  0  0  0  0999 V2000
   10.7145   12.0609   23.6956 O   0  0  0  0  0  0  0  0  0  0  0  0
    9.6719   12.5612   23.5524 C   0  0  0  0  0  0  0  0  0  0  0  0
    9.2642   13.8110   22.7419 N   0  0  0  0  0  0  0  0  0  0  0  0
   10.0774   14.7690   22.0094 C   0  0  2  0  0  0  0  0  0  0  0  0
    9.2263   15.2502   20.8241 C   0  0  0  0  0  0  0  0  0  0  0  0
    9.9666   15.9552   19.6918 C   0  0  0  0  0  0  0  0  0  0  0  0
   11.1650   15.1794   19.1756 C   0  0  0  0  0  0  0  0  0  0  0  0
   12.0328   14.6491   20.2567 C   0  0  1  0  0  0  0  0  0  0  0  0
   12.4224   15.4854   21.4176 C   0  0  1  0  0  0  0  0  0  0  0  0
   11.9003   16.7567   21.4763 F   0  0  0  0  0  0  0  0  0  0  0  0
   11.4576   14.3525   21.6258 C   0  0  1  0  0  0  0  0  0  0  0  0
    8.4512   12.0761   24.2896 C   0  0  0  0  0  0  0  0  0  0  0  0
    8.3227   10.8251   24.8914 C   0  0  0  0  0  0  0  0  0  0  0  0
    7.2524   10.5969   25.7849 C   0  0  0  0  0  0  0  0  0  0  0  0
    6.4064   11.6505   26.0517 C   0  0  0  0  0  0  0  0  0  0  0  0
    6.5303   12.7799   25.2914 C   0  0  0  0  0  0  0  0  0  0  0  0
    7.5108   13.0318   24.4049 N   0  0  0  0  0  0  0  0  0  0  0  0
    5.3718   13.6753   25.3982 C   0  0  0  0  0  0  0  0  0  0  0  0
    5.1618   14.6161   24.6660 O   0  0  0  0  0  0  0  0  0  0  0  0
    4.5008   13.1928   26.3877 N   0  0  0  0  0  0  0  0  0  0  0  0
    5.1435   11.9161   27.2203 S   0  0  0  0  0  0  0  0  0  0  0  0
    4.2050   10.8300   27.2819 O   0  0  0  0  0  0  0  0  0  0  0  0
    5.7401   12.4648   28.4089 O   0  0  0  0  0  0  0  0  0  0  0  0
  1  2  2  0
  2  3  1  0
  4  3  1  6
  4  5  1  0
  5  6  1  0
  6  7  1  0
  8  7  1  6
  8  9  1  0
  9 10  1  6
  9 11  1  0
  2 12  1  0
 12 13  2  0
 13 14  1  0
 14 15  2  0
 15 16  1  0
 16 17  2  0
 16 18  1  0
 18 19  2  0
 18 20  1  0
 20 21  1  0
 21 22  2  0
 21 23  2  0
 11  4  1  6
 17 12  1  0
 11  8  1  0
 21 15  1  0
M  END
>  <energy_score>  (520) 
-4.075566

>  <inchikey>  (520) 
None

>  <smiles>  (520) 
None

>  <ref_pdb>  (520) 
A3181a

>  <alias>  (520) 
None

>  <HIPPO Pose ID>  (520) 
498884

>  <name>  (520) 
P498884

>  <HIPPO Compound ID>  (520) 
294165

>  <ref_mols>  (520) 
A3181a,A3618a

>  <distance_score>  (520) 
1.958802

>  <inspiration_score>  (520) 
None

$$$$
P498885
     RDKit          3D

 24 26  0  0  0  0  0  0  0  0999 V2000
   10.2197   11.3638   22.8730 O   0  0  0  0  0  0  0  0  0  0  0  0
    9.5877   12.2136   23.3523 C   0  0  0  0  0  0  0  0  0  0  0  0
    9.8467   13.7332   23.4250 N   0  0  0  0  0  0  0  0  0  0  0  0
   11.0034   14.5219   22.9986 C   0  0  1  0  0  0  0  0  0  0  0  0
   12.1046   14.3878   24.0242 C   0  0  0  0  0  0  0  0  0  0  0  0
   11.7464   14.3502   25.4882 C   0  0  0  0  0  0  0  0  0  0  0  0
   12.4173   13.1668   24.8303 C   0  0  0  0  0  0  0  0  0  0  0  0
   11.6039   14.5521   21.5761 C   0  0  0  0  0  0  0  0  0  0  0  0
   12.5345   15.5721   21.5483 F   0  0  0  0  0  0  0  0  0  0  0  0
   12.3082   13.4369   21.3073 F   0  0  0  0  0  0  0  0  0  0  0  0
   10.5970   14.9080   20.4973 C   0  0  0  0  0  0  0  0  0  0  0  0
   10.0091   16.1983   20.7188 O   0  0  0  0  0  0  0  0  0  0  0  0
    8.3463   11.8759   24.1372 C   0  0  0  0  0  0  0  0  0  0  0  0
    7.9654   10.5690   24.4694 C   0  0  0  0  0  0  0  0  0  0  0  0
    6.9296   10.3580   25.4129 C   0  0  0  0  0  0  0  0  0  0  0  0
    6.3225   11.4705   25.9672 C   0  0  0  0  0  0  0  0  0  0  0  0
    6.8235   12.6944   25.6204 C   0  0  0  0  0  0  0  0  0  0  0  0
    7.7926   12.9524   24.7173 N   0  0  0  0  0  0  0  0  0  0  0  0
    6.3963   13.7642   26.5159 C   0  0  0  0  0  0  0  0  0  0  0  0
    6.6217   14.9398   26.3383 O   0  0  0  0  0  0  0  0  0  0  0  0
    5.7331   13.2210   27.6346 N   0  0  0  0  0  0  0  0  0  0  0  0
    5.2334   11.6616   27.3217 S   0  0  0  0  0  0  0  0  0  0  0  0
    5.6470   10.7939   28.3924 O   0  0  0  0  0  0  0  0  0  0  0  0
    3.8546   11.8031   26.9375 O   0  0  0  0  0  0  0  0  0  0  0  0
  1  2  2  0
  2  3  1  0
  4  3  1  6
  4  5  1  0
  5  6  1  0
  6  7  1  0
  4  8  1  0
  8  9  1  0
  8 10  1  0
  8 11  1  0
 11 12  1  0
  2 13  1  0
 13 14  2  0
 14 15  1  0
 15 16  2  0
 16 17  1  0
 17 18  2  0
 17 19  1  0
 19 20  2  0
 19 21  1  0
 21 22  1  0
 22 23  2  0
 22 24  2  0
  7  5  1  0
 18 13  1  0
 22 16  1  0
M  END
>  <energy_score>  (521) 
-25.592447

>  <inchikey>  (521) 
None

>  <smiles>  (521) 
None

>  <ref_pdb>  (521) 
A3181a

>  <alias>  (521) 
None

>  <HIPPO Pose ID>  (521) 
498885

>  <name>  (521) 
P498885

>  <HIPPO Compound ID>  (521) 
294179

>  <ref_mols>  (521) 
A3181a,A3618a

>  <distance_score>  (521) 
1.987313

>  <inspiration_score>  (521) 
None

$$$$
P498886
     RDKit          3D

 24 27  0  0  0  0  0  0  0  0999 V2000
   10.6970   12.1453   23.7715 O   0  0  0  0  0  0  0  0  0  0  0  0
    9.6405   12.5986   23.5851 C   0  0  0  0  0  0  0  0  0  0  0  0
    9.2198   13.8768   22.8307 N   0  0  0  0  0  0  0  0  0  0  0  0
   10.0207   14.9179   22.2280 C   0  0  2  0  0  0  0  0  0  0  0  0
    9.1626   15.7903   21.2701 C   0  0  0  0  0  0  0  0  0  0  0  0
    9.2034   15.2823   19.9350 O   0  0  0  0  0  0  0  0  0  0  0  0
   10.4858   15.4522   19.3167 C   0  0  0  0  0  0  0  0  0  0  0  0
   11.5584   14.8174   20.1257 C   0  0  2  0  0  0  0  0  0  0  0  0
   11.2921   14.4906   21.5867 C   0  0  1  0  0  0  0  0  0  0  0  0
   12.1551   15.6207   21.1986 C   0  0  0  0  0  0  0  0  0  0  0  0
   11.7081   16.8977   21.3883 F   0  0  0  0  0  0  0  0  0  0  0  0
   13.4902   15.6073   21.4854 F   0  0  0  0  0  0  0  0  0  0  0  0
    8.3955   12.0058   24.1956 C   0  0  0  0  0  0  0  0  0  0  0  0
    8.3222   10.7679   24.8276 C   0  0  0  0  0  0  0  0  0  0  0  0
    7.2756   10.5320   25.7478 C   0  0  0  0  0  0  0  0  0  0  0  0
    6.4166   11.5721   26.0285 C   0  0  0  0  0  0  0  0  0  0  0  0
    6.4735   12.6723   25.2261 C   0  0  0  0  0  0  0  0  0  0  0  0
    7.4207   12.9292   24.3065 N   0  0  0  0  0  0  0  0  0  0  0  0
    5.3680   13.6073   25.4455 C   0  0  0  0  0  0  0  0  0  0  0  0
    5.3067   14.7191   24.9710 O   0  0  0  0  0  0  0  0  0  0  0  0
    4.4504   13.0558   26.3682 N   0  0  0  0  0  0  0  0  0  0  0  0
    5.1732   11.8247   27.2219 S   0  0  0  0  0  0  0  0  0  0  0  0
    5.7624   12.4511   28.3757 O   0  0  0  0  0  0  0  0  0  0  0  0
    4.2913   10.6963   27.3410 O   0  0  0  0  0  0  0  0  0  0  0  0
  1  2  2  0
  2  3  1  0
  4  3  1  6
  4  5  1  0
  5  6  1  0
  6  7  1  0
  8  7  1  6
  8  9  1  0
  9 10  1  1
 10 11  1  0
 10 12  1  0
  2 13  1  0
 13 14  2  0
 14 15  1  0
 15 16  2  0
 16 17  1  0
 17 18  2  0
 17 19  1  0
 19 20  2  0
 19 21  1  0
 21 22  1  0
 22 23  2  0
 22 24  2  0
  9  4  1  0
 18 13  1  0
 10  8  1  0
 22 16  1  0
M  END
>  <energy_score>  (522) 
-18.982987

>  <inchikey>  (522) 
None

>  <smiles>  (522) 
None

>  <ref_pdb>  (522) 
A3181a

>  <alias>  (522) 
None

>  <HIPPO Pose ID>  (522) 
498886

>  <name>  (522) 
P498886

>  <HIPPO Compound ID>  (522) 
294213

>  <ref_mols>  (522) 
A3181a,A3618a

>  <distance_score>  (522) 
1.989347

>  <inspiration_score>  (522) 
None

$$$$
P498888
     RDKit          3D

 24 27  0  0  0  0  0  0  0  0999 V2000
    6.3022   14.7279   23.6293 O   0  0  0  0  0  0  0  0  0  0  0  0
    7.3679   14.3101   23.8416 C   0  0  0  0  0  0  0  0  0  0  0  0
    7.8342   13.1964   24.8124 N   0  0  0  0  0  0  0  0  0  0  0  0
    7.0863   12.3225   25.6339 C   0  0  1  0  0  0  0  0  0  0  0  0
    5.7942   12.8157   26.2451 C   0  0  0  0  0  0  0  0  0  0  0  0
    5.1790   11.7095   27.1243 C   0  0  0  0  0  0  0  0  0  0  0  0
    5.8451   10.3178   27.0310 C   0  0  0  0  0  0  0  0  0  0  0  0
    6.3065    9.9395   25.6587 C   0  0  1  0  0  0  0  0  0  0  0  0
    6.8601   11.0863   24.8632 C   0  0  2  0  0  0  0  0  0  0  0  0
    7.6747    9.8902   25.0654 C   0  0  0  0  0  0  0  0  0  0  0  0
    8.8806   10.2101   25.5847 F   0  0  0  0  0  0  0  0  0  0  0  0
    7.9243    9.0870   23.9757 F   0  0  0  0  0  0  0  0  0  0  0  0
    8.6021   14.8747   23.1983 C   0  0  0  0  0  0  0  0  0  0  0  0
    9.7083   14.9719   24.0718 C   0  0  0  0  0  0  0  0  0  0  0  0
   10.9669   15.0475   23.5405 C   0  0  0  0  0  0  0  0  0  0  0  0
   11.0118   15.1583   22.1730 C   0  0  0  0  0  0  0  0  0  0  0  0
    9.9057   15.1668   21.3583 C   0  0  0  0  0  0  0  0  0  0  0  0
    8.6560   14.9917   21.8357 N   0  0  0  0  0  0  0  0  0  0  0  0
   10.3045   15.2340   19.9198 C   0  0  0  0  0  0  0  0  0  0  0  0
    9.6784   15.6403   18.9677 O   0  0  0  0  0  0  0  0  0  0  0  0
   11.6631   14.8797   19.8047 N   0  0  0  0  0  0  0  0  0  0  0  0
   12.4005   14.7364   21.2816 S   0  0  0  0  0  0  0  0  0  0  0  0
   13.3391   15.8094   21.4686 O   0  0  0  0  0  0  0  0  0  0  0  0
   12.5616   13.3718   21.7228 O   0  0  0  0  0  0  0  0  0  0  0  0
  1  2  2  0
  2  3  1  0
  4  3  1  6
  4  5  1  0
  5  6  1  0
  6  7  1  0
  8  7  1  1
  8  9  1  0
  9 10  1  1
 10 11  1  0
 10 12  1  0
  2 13  1  0
 13 14  2  0
 14 15  1  0
 15 16  2  0
 16 17  1  0
 17 18  2  0
 17 19  1  0
 19 20  2  0
 19 21  1  0
 21 22  1  0
 22 23  2  0
 22 24  2  0
  9  4  1  0
 18 13  1  0
 10  8  1  0
 22 16  1  0
M  END
>  <energy_score>  (523) 
-9.419096

>  <inchikey>  (523) 
None

>  <smiles>  (523) 
None

>  <ref_pdb>  (523) 
A3181a

>  <alias>  (523) 
None

>  <HIPPO Pose ID>  (523) 
498888

>  <name>  (523) 
P498888

>  <HIPPO Compound ID>  (523) 
294216

>  <ref_mols>  (523) 
A3181a,A3618a

>  <distance_score>  (523) 
1.627609

>  <inspiration_score>  (523) 
None

$$$$
P498889
     RDKit          3D

 24 25  0  0  0  0  0  0  0  0999 V2000
    9.2845   17.6532   19.4980 C   0  0  0  0  0  0  0  0  0  0  0  0
    9.2090   17.3402   20.9492 C   0  0  0  0  0  0  0  0  0  0  0  0
   10.3842   16.5900   21.2466 O   0  0  0  0  0  0  0  0  0  0  0  0
   10.2905   15.2487   21.0829 C   0  0  0  0  0  0  0  0  0  0  0  0
    9.3335   14.6386   20.6267 O   0  0  0  0  0  0  0  0  0  0  0  0
   11.5202   14.6194   21.6534 C   0  0  0  0  0  0  0  0  0  0  0  0
   11.3641   14.7223   23.1523 C   0  0  1  0  0  0  0  0  0  0  0  0
   10.0878   14.1988   23.5871 N   0  0  0  0  0  0  0  0  0  0  0  0
    9.1318   14.6882   24.6743 C   0  0  0  0  0  0  0  0  0  0  0  0
    9.1760   15.6357   25.3465 O   0  0  0  0  0  0  0  0  0  0  0  0
    8.0483   13.6999   24.9071 C   0  0  0  0  0  0  0  0  0  0  0  0
    6.9534   14.1388   25.6311 C   0  0  0  0  0  0  0  0  0  0  0  0
    6.1182   13.1892   26.1823 C   0  0  0  0  0  0  0  0  0  0  0  0
    6.3922   11.8410   25.9906 C   0  0  0  0  0  0  0  0  0  0  0  0
    5.4696   10.7610   26.9518 Cl  0  0  0  0  0  0  0  0  0  0  0  0
    7.4451   11.4881   25.1364 C   0  0  0  0  0  0  0  0  0  0  0  0
    7.7482   10.0528   24.7634 C   0  0  0  0  0  0  0  0  0  0  0  0
    7.0719    9.1895   25.1480 O   0  0  0  0  0  0  0  0  0  0  0  0
    8.9889   10.0177   23.8590 N   0  0  0  0  0  0  0  0  0  0  0  0
    9.6017    8.9268   23.1624 C   0  0  0  0  0  0  0  0  0  0  0  0
    8.3067   12.4026   24.5816 N   0  0  0  0  0  0  0  0  0  0  0  0
   12.4819   14.0577   23.8895 C   0  0  0  0  0  0  0  0  0  0  0  0
   12.3577   12.6714   24.4339 C   0  0  0  0  0  0  0  0  0  0  0  0
   12.3331   13.8358   25.3684 C   0  0  0  0  0  0  0  0  0  0  0  0
  1  2  1  0
  2  3  1  0
  3  4  1  0
  4  5  2  0
  4  6  1  0
  7  6  1  6
  7  8  1  0
  8  9  1  0
  9 10  2  0
  9 11  1  0
 11 12  2  0
 12 13  1  0
 13 14  2  0
 14 15  1  0
 14 16  1  0
 16 17  1  0
 17 18  2  0
 17 19  1  0
 19 20  1  0
 16 21  2  0
  7 22  1  0
 22 23  1  0
 23 24  1  0
 21 11  1  0
 24 22  1  0
M  END
>  <energy_score>  (524) 
-21.565926

>  <inchikey>  (524) 
None

>  <smiles>  (524) 
None

>  <ref_pdb>  (524) 
A3181a

>  <alias>  (524) 
None

>  <HIPPO Pose ID>  (524) 
498889

>  <name>  (524) 
P498889

>  <HIPPO Compound ID>  (524) 
294236

>  <ref_mols>  (524) 
A3181a,A3618a

>  <distance_score>  (524) 
1.882135

>  <inspiration_score>  (524) 
None

$$$$
P498891
     RDKit          3D

 24 26  0  0  0  0  0  0  0  0999 V2000
    9.6605    8.9416   23.1652 C   0  0  0  0  0  0  0  0  0  0  0  0
    9.0188   10.0467   23.8113 N   0  0  0  0  0  0  0  0  0  0  0  0
    7.7902   10.0880   24.7292 C   0  0  0  0  0  0  0  0  0  0  0  0
    7.1492    9.2243   25.1688 O   0  0  0  0  0  0  0  0  0  0  0  0
    7.4247   11.5292   25.0116 C   0  0  0  0  0  0  0  0  0  0  0  0
    8.2078   12.4511   24.3539 N   0  0  0  0  0  0  0  0  0  0  0  0
    7.8648   13.7495   24.5799 C   0  0  0  0  0  0  0  0  0  0  0  0
    8.9205   14.7801   24.3867 C   0  0  0  0  0  0  0  0  0  0  0  0
    8.8657   15.7277   25.0612 O   0  0  0  0  0  0  0  0  0  0  0  0
    9.9786   14.3459   23.3677 N   0  0  0  0  0  0  0  0  0  0  0  0
   11.2505   14.9382   23.0253 C   0  0  1  0  0  0  0  0  0  0  0  0
   12.3371   14.2277   23.7925 C   0  0  0  0  0  0  0  0  0  0  0  0
   12.1986   12.8240   24.3191 C   0  0  0  0  0  0  0  0  0  0  0  0
   12.1018   13.9727   25.2660 C   0  0  0  0  0  0  0  0  0  0  0  0
   11.4962   15.3381   21.5501 C   0  0  1  0  0  0  0  0  0  0  0  0
   12.5866   14.5862   20.8264 C   0  0  0  0  0  0  0  0  0  0  0  0
   12.5730   13.2284   21.1891 O   0  0  0  0  0  0  0  0  0  0  0  0
   10.2246   15.3552   20.7428 C   0  0  0  0  0  0  0  0  0  0  0  0
   10.1416   16.0078   19.3913 C   0  0  0  0  0  0  0  0  0  0  0  0
    9.5180   16.6737   20.5865 C   0  0  0  0  0  0  0  0  0  0  0  0
    6.7472   14.1638   25.2899 C   0  0  0  0  0  0  0  0  0  0  0  0
    6.0024   13.2104   25.9533 C   0  0  0  0  0  0  0  0  0  0  0  0
    6.3721   11.8755   25.8708 C   0  0  0  0  0  0  0  0  0  0  0  0
    5.5339   10.8117   26.9267 Cl  0  0  0  0  0  0  0  0  0  0  0  0
  1  2  1  0
  2  3  1  0
  3  4  2  0
  3  5  1  0
  5  6  2  0
  6  7  1  0
  7  8  1  0
  8  9  2  0
  8 10  1  0
 11 10  1  6
 11 12  1  0
 12 13  1  0
 13 14  1  0
 11 15  1  0
 15 16  1  6
 16 17  1  0
 15 18  1  0
 18 19  1  0
 19 20  1  0
  7 21  2  0
 21 22  1  0
 22 23  2  0
 23 24  1  0
 23  5  1  0
 14 12  1  0
 20 18  1  0
M  END
>  <energy_score>  (525) 
-7.331913

>  <inchikey>  (525) 
None

>  <smiles>  (525) 
None

>  <ref_pdb>  (525) 
A3181a

>  <alias>  (525) 
None

>  <HIPPO Pose ID>  (525) 
498891

>  <name>  (525) 
P498891

>  <HIPPO Compound ID>  (525) 
294237

>  <ref_mols>  (525) 
A3181a,A3618a

>  <distance_score>  (525) 
1.717962

>  <inspiration_score>  (525) 
None

$$$$
P498892
     RDKit          3D

 24 27  0  0  0  0  0  0  0  0999 V2000
    9.8168   14.2454   25.2155 O   0  0  0  0  0  0  0  0  0  0  0  0
    9.4280   13.5842   24.3372 C   0  0  0  0  0  0  0  0  0  0  0  0
    9.5781   13.7585   22.8134 N   0  0  0  0  0  0  0  0  0  0  0  0
   10.1563   14.8327   22.0464 C   0  0  2  0  0  0  0  0  0  0  0  0
    9.2427   15.1622   20.8606 C   0  0  0  0  0  0  0  0  0  0  0  0
    9.9163   15.8751   19.6869 C   0  0  0  0  0  0  0  0  0  0  0  0
   11.1632   15.1692   19.1802 C   0  0  0  0  0  0  0  0  0  0  0  0
   12.0800   14.7337   20.2638 C   0  0  1  0  0  0  0  0  0  0  0  0
   12.4408   15.6526   21.3733 C   0  0  1  0  0  0  0  0  0  0  0  0
   11.8181   16.8766   21.4060 F   0  0  0  0  0  0  0  0  0  0  0  0
   11.5577   14.4801   21.6583 C   0  0  1  0  0  0  0  0  0  0  0  0
    8.6352   12.3424   24.6353 C   0  0  0  0  0  0  0  0  0  0  0  0
    8.9878   11.1349   24.0446 C   0  0  0  0  0  0  0  0  0  0  0  0
    8.2557   10.0006   24.3679 C   0  0  0  0  0  0  0  0  0  0  0  0
    7.1948   10.1154   25.2570 C   0  0  0  0  0  0  0  0  0  0  0  0
    6.8891   11.3678   25.7844 C   0  0  0  0  0  0  0  0  0  0  0  0
    5.7382   11.4586   26.7425 C   0  0  0  0  0  0  0  0  0  0  0  0
    5.2588   10.4328   27.2272 O   0  0  0  0  0  0  0  0  0  0  0  0
    5.2096   12.6876   27.0460 N   0  0  0  0  0  0  0  0  0  0  0  0
    5.6413   13.5029   28.1523 C   0  0  0  0  0  0  0  0  0  0  0  0
    4.4066   14.3479   28.4314 C   0  0  0  0  0  0  0  0  0  0  0  0
    3.8518   14.6165   27.0390 C   0  0  0  0  0  0  0  0  0  0  0  0
    4.1470   13.3253   26.2920 C   0  0  0  0  0  0  0  0  0  0  0  0
    7.6064   12.4816   25.5015 N   0  0  0  0  0  0  0  0  0  0  0  0
  1  2  2  0
  2  3  1  0
  4  3  1  6
  4  5  1  0
  5  6  1  0
  6  7  1  0
  8  7  1  6
  8  9  1  0
  9 10  1  6
  9 11  1  0
  2 12  1  0
 12 13  2  0
 13 14  1  0
 14 15  2  0
 15 16  1  0
 16 17  1  0
 17 18  2  0
 17 19  1  0
 19 20  1  0
 20 21  1  0
 21 22  1  0
 22 23  1  0
 16 24  2  0
 11  4  1  6
 24 12  1  0
 11  8  1  0
 23 19  1  0
M  END
>  <energy_score>  (526) 
-21.841238

>  <inchikey>  (526) 
None

>  <smiles>  (526) 
None

>  <ref_pdb>  (526) 
A3181a

>  <alias>  (526) 
None

>  <HIPPO Pose ID>  (526) 
498892

>  <name>  (526) 
P498892

>  <HIPPO Compound ID>  (526) 
294274

>  <ref_mols>  (526) 
A3181a,A3618a

>  <distance_score>  (526) 
1.964946

>  <inspiration_score>  (526) 
None

$$$$
P498896
     RDKit          3D

 18 18  0  0  0  0  0  0  0  0999 V2000
    7.6450    9.5325   24.6192 C   0  0  0  0  0  0  0  0  0  0  0  0
    7.5615   10.9163   25.2319 C   0  0  1  0  0  0  0  0  0  0  0  0
    8.0315   12.0179   24.3078 C   0  0  0  0  0  0  0  0  0  0  0  0
    9.2262   11.5209   23.5030 C   0  0  0  0  0  0  0  0  0  0  0  0
   10.1748   12.5311   23.2353 N   0  0  0  0  0  0  0  0  0  0  0  0
   10.0819   13.7696   22.3448 C   0  0  0  0  0  0  0  0  0  0  0  0
    9.1861   14.2008   21.7482 O   0  0  0  0  0  0  0  0  0  0  0  0
   11.4913   14.2924   22.3156 C   0  0  0  0  0  0  0  0  0  0  0  0
   12.3422   13.7263   23.2048 F   0  0  0  0  0  0  0  0  0  0  0  0
   11.9415   15.2038   21.4571 C   0  0  0  0  0  0  0  0  0  0  0  0
   11.0975   15.9273   20.6125 C   0  0  0  0  0  0  0  0  0  0  0  0
   10.8078   15.7470   19.2904 C   0  0  0  0  0  0  0  0  0  0  0  0
    9.9316   16.7361   18.9573 O   0  0  0  0  0  0  0  0  0  0  0  0
    9.7272   17.4212   20.1254 C   0  0  0  0  0  0  0  0  0  0  0  0
   10.4126   16.9740   21.1453 N   0  0  0  0  0  0  0  0  0  0  0  0
    6.0603   11.1301   26.1990 S   0  0  0  0  0  0  0  0  0  0  0  0
    5.7703   12.8820   26.0476 C   0  0  0  0  0  0  0  0  0  0  0  0
    4.8328   10.3131   25.4877 O   0  0  0  0  0  0  0  0  0  0  0  0
  2  1  1  6
  2  3  1  0
  3  4  1  0
  4  5  1  0
  5  6  1  0
  6  7  2  0
  6  8  1  0
  8  9  1  0
  8 10  2  0
 10 11  1  0
 11 12  2  0
 12 13  1  0
 13 14  1  0
 14 15  2  0
  2 16  1  0
 16 17  1  6
 16 18  1  0
 15 11  1  0
M  CHG  2  16   1  18  -1
M  END
>  <energy_score>  (527) 
-0.394555

>  <inchikey>  (527) 
None

>  <smiles>  (527) 
None

>  <ref_pdb>  (527) 
A3618a

>  <alias>  (527) 
None

>  <HIPPO Pose ID>  (527) 
498896

>  <name>  (527) 
P498896

>  <HIPPO Compound ID>  (527) 
294296

>  <ref_mols>  (527) 
A3568a,A3618a

>  <distance_score>  (527) 
1.225184

>  <inspiration_score>  (527) 
None

$$$$
P498899
     RDKit          3D

 24 27  0  0  0  0  0  0  0  0999 V2000
    5.8764   13.5427   26.6340 C   0  0  0  0  0  0  0  0  0  0  0  0
    5.8068   12.1257   27.0295 C   0  0  0  0  0  0  0  0  0  0  0  0
    5.1792   11.6973   28.1138 N   0  0  0  0  0  0  0  0  0  0  0  0
    4.9986   10.3637   27.9363 C   0  0  0  0  0  0  0  0  0  0  0  0
    5.5511    9.9985   26.7448 C   0  0  0  0  0  0  0  0  0  0  0  0
    6.2859   11.0650   26.2873 N   0  0  0  0  0  0  0  0  0  0  0  0
    7.3132   10.9558   25.3020 C   0  0  0  0  0  0  0  0  0  0  0  0
    8.1223   12.0252   24.9798 C   0  0  0  0  0  0  0  0  0  0  0  0
    9.2145   11.8282   24.1307 C   0  0  0  0  0  0  0  0  0  0  0  0
   10.2395   12.8977   24.1079 C   0  0  0  0  0  0  0  0  0  0  0  0
   10.2958   13.5456   25.0755 O   0  0  0  0  0  0  0  0  0  0  0  0
   11.0189   13.0080   22.7888 N   0  0  0  0  0  0  0  0  0  0  0  0
   11.9667   13.9966   22.3417 C   0  0  2  0  0  0  0  0  0  0  0  0
   11.3174   15.3382   22.6489 C   0  0  0  0  0  0  0  0  0  0  0  0
    9.9887   15.4857   21.8633 C   0  0  0  0  0  0  0  0  0  0  0  0
   10.2817   15.3370   20.4608 C   0  0  0  0  0  0  0  0  0  0  0  0
    9.8047   16.0384   19.3712 C   0  0  0  0  0  0  0  0  0  0  0  0
   10.5059   15.7297   18.2886 N   0  0  0  0  0  0  0  0  0  0  0  0
   11.4768   14.9042   18.7185 N   0  0  0  0  0  0  0  0  0  0  0  0
   11.3684   14.6462   20.0277 C   0  0  0  0  0  0  0  0  0  0  0  0
   12.3791   13.9996   20.8655 C   0  0  0  0  0  0  0  0  0  0  0  0
    9.4192   10.5943   23.5575 C   0  0  0  0  0  0  0  0  0  0  0  0
    8.5747    9.5793   23.9370 C   0  0  0  0  0  0  0  0  0  0  0  0
    7.5534    9.7229   24.8043 N   0  0  0  0  0  0  0  0  0  0  0  0
  1  2  1  0
  2  3  2  0
  3  4  1  0
  4  5  2  0
  5  6  1  0
  6  7  1  0
  7  8  2  0
  8  9  1  0
  9 10  1  0
 10 11  2  0
 10 12  1  0
 13 12  1  6
 13 14  1  0
 14 15  1  0
 15 16  1  0
 16 17  1  0
 17 18  2  0
 18 19  1  0
 19 20  1  0
 20 21  1  0
  9 22  2  0
 22 23  1  0
 23 24  2  0
  6  2  1  0
 24  7  1  0
 21 13  1  0
 20 16  2  0
M  END
>  <energy_score>  (528) 
-5.743475

>  <inchikey>  (528) 
None

>  <smiles>  (528) 
None

>  <ref_pdb>  (528) 
A3435a

>  <alias>  (528) 
None

>  <HIPPO Pose ID>  (528) 
498899

>  <name>  (528) 
P498899

>  <HIPPO Compound ID>  (528) 
294484

>  <ref_mols>  (528) 
A0556a,A3435a

>  <distance_score>  (528) 
1.760128

>  <inspiration_score>  (528) 
None

$$$$
P498902
     RDKit          3D

 25 28  0  0  0  0  0  0  0  0999 V2000
    6.1069   13.6830   26.4455 C   0  0  0  0  0  0  0  0  0  0  0  0
    6.0219   12.2656   26.8282 C   0  0  0  0  0  0  0  0  0  0  0  0
    5.3374   11.8278   27.8740 N   0  0  0  0  0  0  0  0  0  0  0  0
    5.2033   10.4886   27.7010 C   0  0  0  0  0  0  0  0  0  0  0  0
    5.8424   10.1220   26.5534 C   0  0  0  0  0  0  0  0  0  0  0  0
    6.5568   11.2186   26.1086 N   0  0  0  0  0  0  0  0  0  0  0  0
    7.6011   11.1331   25.1323 C   0  0  0  0  0  0  0  0  0  0  0  0
    8.4053   12.2113   24.7516 C   0  0  0  0  0  0  0  0  0  0  0  0
    9.4155   11.9973   23.8081 C   0  0  0  0  0  0  0  0  0  0  0  0
   10.4397   13.0516   23.4721 C   0  0  0  0  0  0  0  0  0  0  0  0
   10.8962   13.6852   24.3433 O   0  0  0  0  0  0  0  0  0  0  0  0
   10.7688   13.0431   21.9542 N   0  0  0  0  0  0  0  0  0  0  0  0
   11.8173   13.7602   21.1926 C   0  0  2  0  0  0  0  0  0  0  0  0
   12.4956   14.8293   21.9626 C   0  0  0  0  0  0  0  0  0  0  0  0
   11.4658   15.8670   22.2265 C   0  0  0  0  0  0  0  0  0  0  0  0
   10.4901   16.1653   21.1527 C   0  0  0  0  0  0  0  0  0  0  0  0
    9.5733   17.1621   20.9934 C   0  0  0  0  0  0  0  0  0  0  0  0
    9.1590   17.1208   19.7121 N   0  0  0  0  0  0  0  0  0  0  0  0
    8.3412   18.1845   19.1911 C   0  0  0  0  0  0  0  0  0  0  0  0
    9.6859   16.0720   19.0179 N   0  0  0  0  0  0  0  0  0  0  0  0
   10.4690   15.4910   19.9438 C   0  0  0  0  0  0  0  0  0  0  0  0
   11.3768   14.3499   19.7712 C   0  0  0  0  0  0  0  0  0  0  0  0
    9.5761   10.7219   23.2913 C   0  0  0  0  0  0  0  0  0  0  0  0
    8.7867    9.7016   23.7628 C   0  0  0  0  0  0  0  0  0  0  0  0
    7.8162    9.8819   24.6632 N   0  0  0  0  0  0  0  0  0  0  0  0
  1  2  1  0
  2  3  2  0
  3  4  1  0
  4  5  2  0
  5  6  1  0
  6  7  1  0
  7  8  2  0
  8  9  1  0
  9 10  1  0
 10 11  2  0
 10 12  1  0
 13 12  1  1
 13 14  1  0
 14 15  1  0
 15 16  1  0
 16 17  2  0
 17 18  1  0
 18 19  1  0
 18 20  1  0
 20 21  2  0
 21 22  1  0
  9 23  2  0
 23 24  1  0
 24 25  2  0
  6  2  1  0
 25  7  1  0
 22 13  1  0
 21 16  1  0
M  END
>  <energy_score>  (529) 
-6.826032

>  <inchikey>  (529) 
None

>  <smiles>  (529) 
None

>  <ref_pdb>  (529) 
A3435a

>  <alias>  (529) 
None

>  <HIPPO Pose ID>  (529) 
498902

>  <name>  (529) 
P498902

>  <HIPPO Compound ID>  (529) 
294530

>  <ref_mols>  (529) 
A0556a,A3435a

>  <distance_score>  (529) 
1.888115

>  <inspiration_score>  (529) 
None

$$$$
P498903
     RDKit          3D

 27 29  0  0  0  0  0  0  0  0999 V2000
   14.3853   12.6252   25.4987 C   0  0  0  0  0  0  0  0  0  0  0  0
   13.5909   13.5933   24.7756 O   0  0  0  0  0  0  0  0  0  0  0  0
   12.4506   13.1175   24.2466 C   0  0  0  0  0  0  0  0  0  0  0  0
   12.1615   11.9321   24.3315 O   0  0  0  0  0  0  0  0  0  0  0  0
   11.5432   14.1188   23.5325 C   0  0  1  0  0  0  0  0  0  0  0  0
   12.0090   14.2210   22.0878 C   0  0  0  0  0  0  0  0  0  0  0  0
   11.0644   14.8835   21.1635 C   0  0  0  0  0  0  0  0  0  0  0  0
   11.0565   14.8579   19.7534 C   0  0  0  0  0  0  0  0  0  0  0  0
    9.9954   15.6531   19.4042 C   0  0  0  0  0  0  0  0  0  0  0  0
    9.5449   16.2073   20.5580 N   0  0  0  0  0  0  0  0  0  0  0  0
    8.5980   17.2805   20.7085 C   0  0  0  0  0  0  0  0  0  0  0  0
   10.0616   15.6180   21.6374 N   0  0  0  0  0  0  0  0  0  0  0  0
   10.2968   13.3957   23.7457 N   0  0  0  0  0  0  0  0  0  0  0  0
    9.3150   13.5100   24.7645 C   0  0  0  0  0  0  0  0  0  0  0  0
    9.2139   14.2861   25.6684 O   0  0  0  0  0  0  0  0  0  0  0  0
    8.2922   12.3924   24.7463 C   0  0  0  0  0  0  0  0  0  0  0  0
    8.6655   11.1307   24.2617 C   0  0  0  0  0  0  0  0  0  0  0  0
    7.9549   10.0305   24.6784 C   0  0  0  0  0  0  0  0  0  0  0  0
    6.9209   10.0987   25.5338 N   0  0  0  0  0  0  0  0  0  0  0  0
    6.5194   11.3216   25.9696 C   0  0  0  0  0  0  0  0  0  0  0  0
    5.4759   11.3253   26.9466 N   0  0  0  0  0  0  0  0  0  0  0  0
    5.1597   10.2369   27.7385 C   0  0  0  0  0  0  0  0  0  0  0  0
    4.1868   10.6419   28.6097 C   0  0  0  0  0  0  0  0  0  0  0  0
    3.8275   11.9256   28.3408 N   0  0  0  0  0  0  0  0  0  0  0  0
    4.5760   12.3139   27.3207 C   0  0  0  0  0  0  0  0  0  0  0  0
    4.3661   13.5925   26.6034 C   0  0  0  0  0  0  0  0  0  0  0  0
    7.1701   12.4910   25.5862 C   0  0  0  0  0  0  0  0  0  0  0  0
  1  2  1  0
  2  3  1  0
  3  4  2  0
  3  5  1  0
  5  6  1  6
  6  7  1  0
  7  8  1  0
  8  9  2  0
  9 10  1  0
 10 11  1  0
 10 12  1  0
  5 13  1  0
 13 14  1  0
 14 15  2  0
 14 16  1  0
 16 17  2  0
 17 18  1  0
 18 19  2  0
 19 20  1  0
 20 21  1  0
 21 22  1  0
 22 23  2  0
 23 24  1  0
 24 25  2  0
 25 26  1  0
 20 27  2  0
 12  7  2  0
 27 16  1  0
 25 21  1  0
M  END
>  <energy_score>  (530) 
-10.164658

>  <inchikey>  (530) 
None

>  <smiles>  (530) 
None

>  <ref_pdb>  (530) 
A3435a

>  <alias>  (530) 
None

>  <HIPPO Pose ID>  (530) 
498903

>  <name>  (530) 
P498903

>  <HIPPO Compound ID>  (530) 
294566

>  <ref_mols>  (530) 
A0556a,A3435a

>  <distance_score>  (530) 
1.75922

>  <inspiration_score>  (530) 
None

$$$$
P498904
     RDKit          3D

 27 29  0  0  0  0  0  0  0  0999 V2000
   11.7546   15.1028   26.7872 C   0  0  0  0  0  0  0  0  0  0  0  0
   11.4549   14.8285   25.4167 O   0  0  0  0  0  0  0  0  0  0  0  0
   12.1609   13.8837   24.7265 C   0  0  0  0  0  0  0  0  0  0  0  0
   13.1261   13.2627   25.1532 O   0  0  0  0  0  0  0  0  0  0  0  0
   11.5159   13.6173   23.3678 C   0  0  2  0  0  0  0  0  0  0  0  0
   11.2112   14.9237   22.6773 C   0  0  0  0  0  0  0  0  0  0  0  0
   11.0063   14.9067   21.2200 C   0  0  0  0  0  0  0  0  0  0  0  0
   11.9253   14.6900   20.2282 C   0  0  0  0  0  0  0  0  0  0  0  0
   11.2893   15.1096   19.0629 C   0  0  0  0  0  0  0  0  0  0  0  0
   10.0305   15.4948   19.2615 N   0  0  0  0  0  0  0  0  0  0  0  0
    9.8532   15.2892   20.5855 N   0  0  0  0  0  0  0  0  0  0  0  0
    8.5319   15.4557   21.1388 C   0  0  0  0  0  0  0  0  0  0  0  0
   10.3788   12.7685   23.6754 N   0  0  0  0  0  0  0  0  0  0  0  0
    9.0082   13.1131   24.3180 C   0  0  0  0  0  0  0  0  0  0  0  0
    8.5554   14.1444   24.6267 O   0  0  0  0  0  0  0  0  0  0  0  0
    8.2124   11.8817   24.6692 C   0  0  0  0  0  0  0  0  0  0  0  0
    8.5386   10.6586   24.1029 C   0  0  0  0  0  0  0  0  0  0  0  0
    7.9354    9.5531   24.6247 C   0  0  0  0  0  0  0  0  0  0  0  0
    6.9993    9.5851   25.5943 N   0  0  0  0  0  0  0  0  0  0  0  0
    6.5855   10.7706   26.0906 C   0  0  0  0  0  0  0  0  0  0  0  0
    5.5677   10.7128   27.1212 N   0  0  0  0  0  0  0  0  0  0  0  0
    5.3293    9.6521   27.9725 C   0  0  0  0  0  0  0  0  0  0  0  0
    4.2603    9.9445   28.7673 C   0  0  0  0  0  0  0  0  0  0  0  0
    3.8020   11.1708   28.4496 N   0  0  0  0  0  0  0  0  0  0  0  0
    4.5617   11.6054   27.4564 C   0  0  0  0  0  0  0  0  0  0  0  0
    4.2245   12.8104   26.6949 C   0  0  0  0  0  0  0  0  0  0  0  0
    7.1814   11.9518   25.6463 C   0  0  0  0  0  0  0  0  0  0  0  0
  1  2  1  0
  2  3  1  0
  3  4  2  0
  3  5  1  0
  5  6  1  1
  6  7  1  0
  7  8  2  0
  8  9  1  0
  9 10  2  0
 10 11  1  0
 11 12  1  0
  5 13  1  0
 13 14  1  0
 14 15  2  0
 14 16  1  0
 16 17  2  0
 17 18  1  0
 18 19  2  0
 19 20  1  0
 20 21  1  0
 21 22  1  0
 22 23  2  0
 23 24  1  0
 24 25  2  0
 25 26  1  0
 20 27  2  0
 11  7  1  0
 27 16  1  0
 25 21  1  0
M  END
>  <energy_score>  (531) 
-6.155335

>  <inchikey>  (531) 
None

>  <smiles>  (531) 
None

>  <ref_pdb>  (531) 
A3435a

>  <alias>  (531) 
None

>  <HIPPO Pose ID>  (531) 
498904

>  <name>  (531) 
P498904

>  <HIPPO Compound ID>  (531) 
294570

>  <ref_mols>  (531) 
A0556a,A3435a

>  <distance_score>  (531) 
1.65133

>  <inspiration_score>  (531) 
None

$$$$
P498905
     RDKit          3D

 27 30  0  0  0  0  0  0  0  0999 V2000
    6.6652   14.9693   22.3166 C   0  0  0  0  0  0  0  0  0  0  0  0
    8.1582   14.7217   22.1387 C   0  0  0  0  0  0  0  0  0  0  0  0
    8.8705   15.5874   21.2277 N   0  0  0  0  0  0  0  0  0  0  0  0
    8.3529   16.7932   20.9840 N   0  0  0  0  0  0  0  0  0  0  0  0
    9.0037   17.2409   19.9206 C   0  0  0  0  0  0  0  0  0  0  0  0
    9.9671   16.3276   19.5137 C   0  0  0  0  0  0  0  0  0  0  0  0
   10.0120   15.3732   20.5128 C   0  0  0  0  0  0  0  0  0  0  0  0
   11.0677   14.3473   20.6532 C   0  0  1  0  0  0  0  0  0  0  0  0
   12.3027   15.0441   20.4359 O   0  0  0  0  0  0  0  0  0  0  0  0
   12.6880   15.5468   21.7091 C   0  0  0  0  0  0  0  0  0  0  0  0
   12.0920   14.6738   22.7805 C   0  0  0  0  0  0  0  0  0  0  0  0
   11.3988   13.6281   21.9620 C   0  0  1  0  0  0  0  0  0  0  0  0
   10.4250   12.8500   22.6693 N   0  0  0  0  0  0  0  0  0  0  0  0
    9.9255   12.9536   24.1180 C   0  0  0  0  0  0  0  0  0  0  0  0
   10.1683   13.7355   24.9465 O   0  0  0  0  0  0  0  0  0  0  0  0
    8.9022   11.9216   24.4192 C   0  0  0  0  0  0  0  0  0  0  0  0
    9.0552   10.6053   24.0207 C   0  0  0  0  0  0  0  0  0  0  0  0
    8.1529    9.7037   24.5344 C   0  0  0  0  0  0  0  0  0  0  0  0
    7.1313   10.0206   25.3733 N   0  0  0  0  0  0  0  0  0  0  0  0
    6.9546   11.3215   25.6948 C   0  0  0  0  0  0  0  0  0  0  0  0
    5.8428   11.7257   26.5049 N   0  0  0  0  0  0  0  0  0  0  0  0
    5.2862   12.9878   26.4778 C   0  0  0  0  0  0  0  0  0  0  0  0
    4.1992   12.9508   27.3052 C   0  0  0  0  0  0  0  0  0  0  0  0
    4.0758   11.7342   27.8895 N   0  0  0  0  0  0  0  0  0  0  0  0
    5.0760   11.0129   27.4314 C   0  0  0  0  0  0  0  0  0  0  0  0
    5.3213    9.6546   27.9426 C   0  0  0  0  0  0  0  0  0  0  0  0
    7.8280   12.2969   25.2306 C   0  0  0  0  0  0  0  0  0  0  0  0
  1  2  1  0
  2  3  1  0
  3  4  1  0
  4  5  2  0
  5  6  1  0
  6  7  2  0
  8  7  1  1
  8  9  1  0
  9 10  1  0
 10 11  1  0
 11 12  1  0
 12 13  1  1
 13 14  1  0
 14 15  2  0
 14 16  1  0
 16 17  2  0
 17 18  1  0
 18 19  2  0
 19 20  1  0
 20 21  1  0
 21 22  1  0
 22 23  2  0
 23 24  1  0
 24 25  2  0
 25 26  1  0
 20 27  2  0
  7  3  1  0
 12  8  1  0
 27 16  1  0
 25 21  1  0
M  END
>  <energy_score>  (532) 
-34.007106

>  <inchikey>  (532) 
None

>  <smiles>  (532) 
None

>  <ref_pdb>  (532) 
A3435a

>  <alias>  (532) 
None

>  <HIPPO Pose ID>  (532) 
498905

>  <name>  (532) 
P498905

>  <HIPPO Compound ID>  (532) 
294571

>  <ref_mols>  (532) 
A0556a,A3435a

>  <distance_score>  (532) 
1.736406

>  <inspiration_score>  (532) 
None

$$$$
P498906
     RDKit          3D

 27 31  0  0  0  0  0  0  0  0999 V2000
    4.1826   13.3756   26.7477 C   0  0  0  0  0  0  0  0  0  0  0  0
    4.4551   12.1235   27.4855 C   0  0  0  0  0  0  0  0  0  0  0  0
    3.6737   11.6337   28.4313 N   0  0  0  0  0  0  0  0  0  0  0  0
    4.1287   10.3807   28.6973 C   0  0  0  0  0  0  0  0  0  0  0  0
    5.2021   10.1039   27.9025 C   0  0  0  0  0  0  0  0  0  0  0  0
    5.4710   11.2481   27.1822 N   0  0  0  0  0  0  0  0  0  0  0  0
    6.5338   11.3948   26.2637 C   0  0  0  0  0  0  0  0  0  0  0  0
    7.0534   12.6262   25.9195 C   0  0  0  0  0  0  0  0  0  0  0  0
    8.0694   12.6569   24.9694 C   0  0  0  0  0  0  0  0  0  0  0  0
    8.8120   13.9376   24.8160 C   0  0  0  0  0  0  0  0  0  0  0  0
    8.2441   14.9532   24.8740 O   0  0  0  0  0  0  0  0  0  0  0  0
   10.3003   13.6381   24.5407 N   0  0  0  0  0  0  0  0  0  0  0  0
   11.3515   14.4952   24.1953 C   0  0  1  0  0  0  0  0  0  0  0  0
   12.4195   13.8030   23.3932 C   0  0  0  0  0  0  0  0  0  0  0  0
   11.7388   14.9777   22.8071 C   0  0  1  0  0  0  0  0  0  0  0  0
   10.7298   14.9456   21.6443 C   0  0  0  0  0  0  0  0  0  0  0  0
   11.0675   15.0029   20.2824 C   0  0  0  0  0  0  0  0  0  0  0  0
    9.9368   15.5179   19.6904 C   0  0  0  0  0  0  0  0  0  0  0  0
    9.0307   15.6965   20.6940 N   0  0  0  0  0  0  0  0  0  0  0  0
    9.4362   15.1707   21.8493 N   0  0  0  0  0  0  0  0  0  0  0  0
    8.4548   11.4802   24.2937 C   0  0  0  0  0  0  0  0  0  0  0  0
    9.3151   11.3673   23.1824 C   0  0  0  0  0  0  0  0  0  0  0  0
    9.7188   10.1292   22.7118 C   0  0  0  0  0  0  0  0  0  0  0  0
    9.2682    8.9834   23.2942 C   0  0  0  0  0  0  0  0  0  0  0  0
    8.3526    9.1141   24.3110 C   0  0  0  0  0  0  0  0  0  0  0  0
    7.9316   10.3106   24.8117 C   0  0  0  0  0  0  0  0  0  0  0  0
    7.0406   10.2499   25.7907 N   0  0  0  0  0  0  0  0  0  0  0  0
  1  2  1  0
  2  3  2  0
  3  4  1  0
  4  5  2  0
  5  6  1  0
  6  7  1  0
  7  8  2  0
  8  9  1  0
  9 10  1  0
 10 11  2  0
 10 12  1  0
 13 12  1  6
 13 14  1  0
 14 15  1  0
 15 16  1  6
 16 17  1  0
 17 18  2  0
 18 19  1  0
 19 20  1  0
  9 21  2  0
 21 22  1  0
 22 23  2  0
 23 24  1  0
 24 25  2  0
 25 26  1  0
 26 27  2  0
  6  2  1  0
 27  7  1  0
 15 13  1  0
 20 16  2  0
 26 21  1  0
M  END
>  <energy_score>  (533) 
-2.511528

>  <inchikey>  (533) 
None

>  <smiles>  (533) 
None

>  <ref_pdb>  (533) 
A3435a

>  <alias>  (533) 
None

>  <HIPPO Pose ID>  (533) 
498906

>  <name>  (533) 
P498906

>  <HIPPO Compound ID>  (533) 
294576

>  <ref_mols>  (533) 
A0556a,A3435a

>  <distance_score>  (533) 
1.948778

>  <inspiration_score>  (533) 
None

$$$$
P498907
     RDKit          3D

 28 32  0  0  0  0  0  0  0  0999 V2000
    4.2500   13.3948   26.7256 C   0  0  0  0  0  0  0  0  0  0  0  0
    4.5032   12.1563   27.4924 C   0  0  0  0  0  0  0  0  0  0  0  0
    3.7053   11.6915   28.4364 N   0  0  0  0  0  0  0  0  0  0  0  0
    4.1332   10.4331   28.7197 C   0  0  0  0  0  0  0  0  0  0  0  0
    5.2139   10.1308   27.9443 C   0  0  0  0  0  0  0  0  0  0  0  0
    5.5151   11.2668   27.2221 N   0  0  0  0  0  0  0  0  0  0  0  0
    6.5993   11.3885   26.3245 C   0  0  0  0  0  0  0  0  0  0  0  0
    7.1412   12.6050   25.9565 C   0  0  0  0  0  0  0  0  0  0  0  0
    8.1486   12.5885   24.9999 C   0  0  0  0  0  0  0  0  0  0  0  0
    8.7538   13.8585   24.5433 C   0  0  0  0  0  0  0  0  0  0  0  0
    8.0816   14.8061   24.4552 O   0  0  0  0  0  0  0  0  0  0  0  0
   10.2334   13.6412   24.1566 N   0  0  0  0  0  0  0  0  0  0  0  0
   11.1387   14.4917   23.5117 C   0  0  1  0  0  0  0  0  0  0  0  0
   12.5412   14.2249   23.1181 C   0  0  0  0  0  0  0  0  0  0  0  0
   11.4652   13.9121   22.1488 C   0  0  2  0  0  0  0  0  0  0  0  0
   11.0988   14.7188   20.9028 C   0  0  0  0  0  0  0  0  0  0  0  0
   11.9146   14.7487   19.8104 C   0  0  0  0  0  0  0  0  0  0  0  0
   11.2039   15.4979   18.8777 C   0  0  0  0  0  0  0  0  0  0  0  0
    9.9852   15.8393   19.2831 N   0  0  0  0  0  0  0  0  0  0  0  0
    9.9313   15.3302   20.5318 N   0  0  0  0  0  0  0  0  0  0  0  0
    8.6624   15.3605   21.2059 C   0  0  0  0  0  0  0  0  0  0  0  0
    8.4961   11.3850   24.3390 C   0  0  0  0  0  0  0  0  0  0  0  0
    9.2928   11.2191   23.1845 C   0  0  0  0  0  0  0  0  0  0  0  0
    9.6891    9.9789   22.7215 C   0  0  0  0  0  0  0  0  0  0  0  0
    9.2333    8.8615   23.3374 C   0  0  0  0  0  0  0  0  0  0  0  0
    8.3305    9.0375   24.3621 C   0  0  0  0  0  0  0  0  0  0  0  0
    7.9589   10.2435   24.8778 C   0  0  0  0  0  0  0  0  0  0  0  0
    7.0813   10.2252   25.8692 N   0  0  0  0  0  0  0  0  0  0  0  0
  1  2  1  0
  2  3  2  0
  3  4  1  0
  4  5  2  0
  5  6  1  0
  6  7  1  0
  7  8  2  0
  8  9  1  0
  9 10  1  0
 10 11  2  0
 10 12  1  0
 13 12  1  1
 13 14  1  0
 14 15  1  0
 15 16  1  6
 16 17  2  0
 17 18  1  0
 18 19  2  0
 19 20  1  0
 20 21  1  0
  9 22  2  0
 22 23  1  0
 23 24  2  0
 24 25  1  0
 25 26  2  0
 26 27  1  0
 27 28  2  0
  6  2  1  0
 28  7  1  0
 15 13  1  0
 20 16  1  0
 27 22  1  0
M  END
>  <energy_score>  (534) 
-1.775429

>  <inchikey>  (534) 
None

>  <smiles>  (534) 
None

>  <ref_pdb>  (534) 
A3435a

>  <alias>  (534) 
None

>  <HIPPO Pose ID>  (534) 
498907

>  <name>  (534) 
P498907

>  <HIPPO Compound ID>  (534) 
294601

>  <ref_mols>  (534) 
A0556a,A3435a

>  <distance_score>  (534) 
1.926858

>  <inspiration_score>  (534) 
None

$$$$
P498908
     RDKit          3D

 21 22  0  0  0  0  0  0  0  0999 V2000
   12.1055   16.2744   26.9527 C   0  0  0  0  0  0  0  0  0  0  0  0
   11.6259   15.3259   25.9963 O   0  0  0  0  0  0  0  0  0  0  0  0
   10.4090   15.6512   25.4546 C   0  0  0  0  0  0  0  0  0  0  0  0
    9.7692   16.6431   25.7609 O   0  0  0  0  0  0  0  0  0  0  0  0
   10.0105   14.5551   24.4157 C   0  0  2  0  0  0  0  0  0  0  0  0
   10.9883   14.5842   23.2141 C   0  0  0  0  0  0  0  0  0  0  0  0
   10.0167   14.8897   22.1290 C   0  0  2  0  0  0  0  0  0  0  0  0
   10.4317   15.7632   21.0609 N   0  0  0  0  0  0  0  0  0  0  0  0
   11.1567   15.3453   19.9762 C   0  0  0  0  0  0  0  0  0  0  0  0
   11.8996   14.3831   19.8962 O   0  0  0  0  0  0  0  0  0  0  0  0
   10.8079   16.2215   18.8060 C   0  0  0  0  0  0  0  0  0  0  0  0
   10.1936   17.3112   19.4884 N   0  0  0  0  0  0  0  0  0  0  0  0
    9.8234   16.9405   20.7495 C   0  0  0  0  0  0  0  0  0  0  0  0
    9.0190   17.5610   21.4155 O   0  0  0  0  0  0  0  0  0  0  0  0
    8.8994   15.3817   23.0242 C   0  0  0  0  0  0  0  0  0  0  0  0
    8.5109   14.3433   24.0015 N   0  0  0  0  0  0  0  0  0  0  0  0
    7.6040   14.4123   25.1895 C   0  0  0  0  0  0  0  0  0  0  0  0
    7.0501   15.3289   25.6707 O   0  0  0  0  0  0  0  0  0  0  0  0
    7.3063   13.0672   25.7651 C   0  0  0  0  0  0  0  0  0  0  0  0
    7.5722   11.7966   25.4482 C   0  0  0  0  0  0  0  0  0  0  0  0
    8.6710   10.9913   23.9785 I   0  0  0  0  0  0  0  0  0  0  0  0
  1  2  1  0
  2  3  1  0
  3  4  2  0
  5  3  1  6
  5  6  1  0
  6  7  1  0
  7  8  1  6
  8  9  1  0
  9 10  2  0
  9 11  1  0
 11 12  1  0
 12 13  1  0
 13 14  2  0
  7 15  1  0
 15 16  1  0
 16 17  1  0
 17 18  2  0
 17 19  1  0
 19 20  2  0
 20 21  1  0
 16  5  1  0
 13  8  1  0
M  END
>  <energy_score>  (535) 
-0.065965

>  <inchikey>  (535) 
None

>  <smiles>  (535) 
None

>  <ref_pdb>  (535) 
A3665a

>  <alias>  (535) 
None

>  <HIPPO Pose ID>  (535) 
498908

>  <name>  (535) 
P498908

>  <HIPPO Compound ID>  (535) 
298358

>  <ref_mols>  (535) 
A3665a,A3571b

>  <distance_score>  (535) 
1.823189

>  <inspiration_score>  (535) 
None

$$$$
P498909
     RDKit          3D

 21 22  0  0  0  0  0  0  0  0999 V2000
   14.2234   13.2920   26.3400 C   0  0  0  0  0  0  0  0  0  0  0  0
   13.1801   13.4214   25.3692 O   0  0  0  0  0  0  0  0  0  0  0  0
   12.3637   14.4991   25.5607 C   0  0  0  0  0  0  0  0  0  0  0  0
   12.4224   15.2395   26.5351 O   0  0  0  0  0  0  0  0  0  0  0  0
   11.4274   14.7458   24.3511 C   0  0  1  0  0  0  0  0  0  0  0  0
   12.1875   15.7529   23.5059 C   0  0  0  0  0  0  0  0  0  0  0  0
   12.0566   15.1141   22.1978 C   0  0  2  0  0  0  0  0  0  0  0  0
   11.0252   15.6160   21.3545 N   0  0  0  0  0  0  0  0  0  0  0  0
   11.0924   15.5292   19.9890 C   0  0  0  0  0  0  0  0  0  0  0  0
   11.8853   14.8859   19.3167 O   0  0  0  0  0  0  0  0  0  0  0  0
   10.0439   16.4430   19.4321 C   0  0  0  0  0  0  0  0  0  0  0  0
    9.3656   16.8601   20.6293 N   0  0  0  0  0  0  0  0  0  0  0  0
    9.9515   16.3518   21.7451 C   0  0  0  0  0  0  0  0  0  0  0  0
    9.5743   16.5843   22.8816 O   0  0  0  0  0  0  0  0  0  0  0  0
   11.8656   13.7179   22.7199 C   0  0  0  0  0  0  0  0  0  0  0  0
   10.8119   13.4283   23.7169 N   0  0  0  0  0  0  0  0  0  0  0  0
    9.2933   13.5232   23.6116 C   0  0  0  0  0  0  0  0  0  0  0  0
    8.6138   13.9255   22.7377 O   0  0  0  0  0  0  0  0  0  0  0  0
    8.7279   13.0651   24.9610 C   0  0  2  0  0  0  0  0  0  0  0  0
    7.4505   12.2691   24.8048 C   0  0  0  0  0  0  0  0  0  0  0  0
    8.4820   14.1901   25.7991 O   0  0  0  0  0  0  0  0  0  0  0  0
  1  2  1  0
  2  3  1  0
  3  4  2  0
  5  3  1  1
  5  6  1  0
  6  7  1  0
  7  8  1  1
  8  9  1  0
  9 10  2  0
  9 11  1  0
 11 12  1  0
 12 13  1  0
 13 14  2  0
  7 15  1  0
 15 16  1  0
 16 17  1  0
 17 18  2  0
 17 19  1  0
 19 20  1  6
 19 21  1  0
 16  5  1  0
 13  8  1  0
M  END
>  <energy_score>  (536) 
-8.970129

>  <inchikey>  (536) 
None

>  <smiles>  (536) 
None

>  <ref_pdb>  (536) 
A3665a

>  <alias>  (536) 
None

>  <HIPPO Pose ID>  (536) 
498909

>  <name>  (536) 
P498909

>  <HIPPO Compound ID>  (536) 
298399

>  <ref_mols>  (536) 
A3665a,A3571b

>  <distance_score>  (536) 
1.517686

>  <inspiration_score>  (536) 
None

$$$$
P498910
     RDKit          3D

 21 22  0  0  0  0  0  0  0  0999 V2000
   12.6941   15.3984   27.0408 C   0  0  0  0  0  0  0  0  0  0  0  0
   11.7792   15.8417   26.0346 O   0  0  0  0  0  0  0  0  0  0  0  0
   11.5579   14.9704   25.0005 C   0  0  0  0  0  0  0  0  0  0  0  0
   12.0787   13.8699   24.8995 O   0  0  0  0  0  0  0  0  0  0  0  0
   10.6071   15.6470   23.9817 C   0  0  1  0  0  0  0  0  0  0  0  0
   11.5693   16.3106   23.0134 C   0  0  0  0  0  0  0  0  0  0  0  0
   10.6245   16.6311   21.9220 C   0  0  1  0  0  0  0  0  0  0  0  0
   10.9533   16.1646   20.6079 N   0  0  0  0  0  0  0  0  0  0  0  0
   11.4788   14.9731   20.2468 C   0  0  0  0  0  0  0  0  0  0  0  0
   11.9303   14.1223   20.9901 O   0  0  0  0  0  0  0  0  0  0  0  0
   11.4342   14.8660   18.7543 C   0  0  0  0  0  0  0  0  0  0  0  0
   10.7243   16.0336   18.4043 N   0  0  0  0  0  0  0  0  0  0  0  0
   10.4305   16.7738   19.5124 C   0  0  0  0  0  0  0  0  0  0  0  0
    9.7849   17.8029   19.5314 O   0  0  0  0  0  0  0  0  0  0  0  0
    9.3773   15.9992   22.4979 C   0  0  0  0  0  0  0  0  0  0  0  0
    9.6195   14.7206   23.2398 N   0  0  0  0  0  0  0  0  0  0  0  0
    8.7452   13.9673   24.2078 C   0  0  0  0  0  0  0  0  0  0  0  0
    7.7025   14.2486   24.6665 O   0  0  0  0  0  0  0  0  0  0  0  0
    9.4168   12.6340   24.4469 C   0  0  0  0  0  0  0  0  0  0  0  0
    8.5291   11.5155   23.9758 C   0  0  0  0  0  0  0  0  0  0  0  0
    7.4002   10.8015   25.3665 Br  0  0  0  0  0  0  0  0  0  0  0  0
  1  2  1  0
  2  3  1  0
  3  4  2  0
  5  3  1  1
  5  6  1  0
  6  7  1  0
  7  8  1  6
  8  9  1  0
  9 10  2  0
  9 11  1  0
 11 12  1  0
 12 13  1  0
 13 14  2  0
  7 15  1  0
 15 16  1  0
 16 17  1  0
 17 18  2  0
 17 19  1  0
 19 20  1  0
 20 21  1  0
 16  5  1  0
 13  8  1  0
M  END
>  <energy_score>  (537) 
-3.352538

>  <inchikey>  (537) 
None

>  <smiles>  (537) 
None

>  <ref_pdb>  (537) 
A3665a

>  <alias>  (537) 
None

>  <HIPPO Pose ID>  (537) 
498910

>  <name>  (537) 
P498910

>  <HIPPO Compound ID>  (537) 
298405

>  <ref_mols>  (537) 
A3665a,A3571b

>  <distance_score>  (537) 
1.565527

>  <inspiration_score>  (537) 
None

$$$$
P498911
     RDKit          3D

 22 23  0  0  0  0  0  0  0  0999 V2000
    7.8549   16.9401   25.7005 C   0  0  0  0  0  0  0  0  0  0  0  0
    8.4978   15.8464   25.0436 O   0  0  0  0  0  0  0  0  0  0  0  0
    9.8157   15.7162   25.2918 C   0  0  0  0  0  0  0  0  0  0  0  0
   10.4198   16.3812   26.1335 O   0  0  0  0  0  0  0  0  0  0  0  0
   10.5544   14.6983   24.3753 C   0  0  2  0  0  0  0  0  0  0  0  0
   11.6663   15.4857   23.6669 C   0  0  0  0  0  0  0  0  0  0  0  0
   11.6718   14.8020   22.3630 C   0  0  2  0  0  0  0  0  0  0  0  0
   10.9476   15.4452   21.2959 N   0  0  0  0  0  0  0  0  0  0  0  0
   11.2355   15.2862   19.9641 C   0  0  0  0  0  0  0  0  0  0  0  0
   12.0300   14.5078   19.4573 O   0  0  0  0  0  0  0  0  0  0  0  0
   10.4212   16.2783   19.1735 C   0  0  0  0  0  0  0  0  0  0  0  0
    9.8302   17.0306   20.2359 N   0  0  0  0  0  0  0  0  0  0  0  0
   10.0316   16.4370   21.4464 C   0  0  0  0  0  0  0  0  0  0  0  0
    9.5027   16.7952   22.4830 O   0  0  0  0  0  0  0  0  0  0  0  0
   11.1394   13.4930   22.9018 C   0  0  0  0  0  0  0  0  0  0  0  0
    9.8458   13.4662   23.6374 N   0  0  0  0  0  0  0  0  0  0  0  0
    8.4525   13.8255   23.1869 C   0  0  0  0  0  0  0  0  0  0  0  0
    8.0764   14.2858   22.1750 O   0  0  0  0  0  0  0  0  0  0  0  0
    7.4930   13.3932   24.2459 C   0  0  0  0  0  0  0  0  0  0  0  0
    7.4065   12.1901   24.8443 C   0  0  0  0  0  0  0  0  0  0  0  0
    8.1843   10.9646   24.4721 C   0  0  0  0  0  0  0  0  0  0  0  0
    6.3993   11.9813   25.9409 C   0  0  0  0  0  0  0  0  0  0  0  0
  1  2  1  0
  2  3  1  0
  3  4  2  0
  5  3  1  6
  5  6  1  0
  6  7  1  0
  7  8  1  6
  8  9  1  0
  9 10  2  0
  9 11  1  0
 11 12  1  0
 12 13  1  0
 13 14  2  0
  7 15  1  0
 15 16  1  0
 16 17  1  0
 17 18  2  0
 17 19  1  0
 19 20  2  3
 20 21  1  0
 20 22  1  0
 16  5  1  0
 13  8  1  0
M  END
>  <energy_score>  (538) 
-32.533811

>  <inchikey>  (538) 
None

>  <smiles>  (538) 
None

>  <ref_pdb>  (538) 
A3665a

>  <alias>  (538) 
None

>  <HIPPO Pose ID>  (538) 
498911

>  <name>  (538) 
P498911

>  <HIPPO Compound ID>  (538) 
298527

>  <ref_mols>  (538) 
A3665a,A3571b

>  <distance_score>  (538) 
1.475243

>  <inspiration_score>  (538) 
None

$$$$
P498912
     RDKit          3D

 34 37  0  0  0  0  0  0  0  0999 V2000
    4.4748   14.7170   32.0133 C   0  0  0  0  0  0  0  0  0  0  0  0
    4.5832   14.6396   30.4923 C   0  0  2  0  0  0  0  0  0  0  0  0
    5.9678   13.5369   30.0345 S   0  0  0  0  0  0  0  0  0  0  0  0
    5.8854   13.3883   28.2836 C   0  0  0  0  0  0  0  0  0  0  0  0
    6.8493   12.7409   27.6626 N   0  0  0  0  0  0  0  0  0  0  0  0
    6.7172   12.9126   26.2925 C   0  0  0  0  0  0  0  0  0  0  0  0
    7.6071   12.4441   25.3094 C   0  0  0  0  0  0  0  0  0  0  0  0
    7.4468   12.8530   23.9900 C   0  0  0  0  0  0  0  0  0  0  0  0
    6.3598   13.6385   23.6225 C   0  0  0  0  0  0  0  0  0  0  0  0
    5.4168   14.0523   24.5635 C   0  0  0  0  0  0  0  0  0  0  0  0
    5.6228   13.6812   25.8957 C   0  0  0  0  0  0  0  0  0  0  0  0
    4.6736   14.0416   27.2729 S   0  0  0  0  0  0  0  0  0  0  0  0
    4.7165   16.0533   29.8823 C   0  0  0  0  0  0  0  0  0  0  0  0
    3.7870   16.4780   29.2539 O   0  0  0  0  0  0  0  0  0  0  0  0
    5.9899   16.6509   30.1997 N   0  0  0  0  0  0  0  0  0  0  0  0
    6.5582   17.8577   29.7979 C   0  0  0  0  0  0  0  0  0  0  0  0
    7.7320   18.2885   30.3933 C   0  0  0  0  0  0  0  0  0  0  0  0
    8.3256   19.4804   29.9636 C   0  0  0  0  0  0  0  0  0  0  0  0
    7.7663   20.2195   28.9179 C   0  0  0  0  0  0  0  0  0  0  0  0
    8.3679   21.3945   28.4408 N   0  0  0  0  0  0  0  0  0  0  0  0
    7.8646   21.8005   27.1219 C   0  0  0  0  0  0  0  0  0  0  0  0
    8.7124   22.9674   26.5680 C   0  0  0  0  0  0  0  0  0  0  0  0
   10.1566   22.6860   26.2181 N   0  0  0  0  0  0  0  0  0  0  0  0
   11.1312   23.5000   25.6132 C   0  0  0  0  0  0  0  0  0  0  0  0
   11.0963   24.6555   25.3000 O   0  0  0  0  0  0  0  0  0  0  0  0
   12.2511   22.7312   25.4951 O   0  0  0  0  0  0  0  0  0  0  0  0
   13.5187   23.2772   25.0503 C   0  0  0  0  0  0  0  0  0  0  0  0
   13.4581   23.6551   23.5696 C   0  0  0  0  0  0  0  0  0  0  0  0
   13.9750   24.4514   25.9251 C   0  0  0  0  0  0  0  0  0  0  0  0
   14.5223   22.1282   25.2291 C   0  0  0  0  0  0  0  0  0  0  0  0
   10.3045   22.7304   27.7327 C   0  0  0  0  0  0  0  0  0  0  0  0
    9.8267   21.4697   28.4886 C   0  0  0  0  0  0  0  0  0  0  0  0
    6.5959   19.8166   28.3733 N   0  0  0  0  0  0  0  0  0  0  0  0
    6.0201   18.6647   28.8074 C   0  0  0  0  0  0  0  0  0  0  0  0
  2  1  1  1
  2  3  1  0
  3  4  1  0
  4  5  2  0
  5  6  1  0
  6  7  2  0
  7  8  1  0
  8  9  2  0
  9 10  1  0
 10 11  2  0
 11 12  1  0
  2 13  1  0
 13 14  2  0
 13 15  1  0
 15 16  1  0
 16 17  2  0
 17 18  1  0
 18 19  2  0
 19 20  1  0
 20 21  1  0
 21 22  1  0
 22 23  1  0
 23 24  1  0
 24 25  2  0
 24 26  1  0
 26 27  1  0
 27 28  1  0
 27 29  1  0
 27 30  1  0
 23 31  1  0
 31 32  1  0
 19 33  1  0
 33 34  2  0
 12  4  1  0
 34 16  1  0
 11  6  1  0
 32 20  1  0
M  END
>  <energy_score>  (539) 
-64.002818

>  <inchikey>  (539) 
None

>  <smiles>  (539) 
None

>  <ref_pdb>  (539) 
A0469a

>  <alias>  (539) 
None

>  <HIPPO Pose ID>  (539) 
498912

>  <name>  (539) 
P498912

>  <HIPPO Compound ID>  (539) 
298803

>  <ref_mols>  (539) 
A4031b,A0469a

>  <distance_score>  (539) 
1.94409

>  <inspiration_score>  (539) 
None

$$$$
P498914
     RDKit          3D

 20 21  0  0  0  0  0  0  0  0999 V2000
    5.1564   12.4980   26.7837 C   0  0  0  0  0  0  0  0  0  0  0  0
    6.2405   11.5579   26.2972 C   0  0  0  0  0  0  0  0  0  0  0  0
    6.9864   12.0241   25.1541 N   0  0  0  0  0  0  0  0  0  0  0  0
    7.1398   13.4146   24.8235 C   0  0  0  0  0  0  0  0  0  0  0  0
    7.8790   13.3968   23.4890 C   0  0  1  0  0  0  0  0  0  0  0  0
    8.7110   14.6601   23.3756 C   0  0  0  0  0  0  0  0  0  0  0  0
    8.7044   15.4673   24.2182 O   0  0  0  0  0  0  0  0  0  0  0  0
    9.5439   14.5766   22.0722 N   0  0  0  0  0  0  0  0  0  0  0  0
   10.6359   15.4426   21.5720 C   0  0  1  0  0  0  0  0  0  0  0  0
   11.9311   15.0607   22.3209 C   0  0  0  0  0  0  0  0  0  0  0  0
   11.7308   15.0724   23.8219 C   0  0  0  0  0  0  0  0  0  0  0  0
   12.6850   14.5437   24.8669 C   0  0  0  0  0  0  0  0  0  0  0  0
   11.4850   13.7568   24.5260 C   0  0  0  0  0  0  0  0  0  0  0  0
   10.8066   15.3837   20.0387 C   0  0  0  0  0  0  0  0  0  0  0  0
   10.2492   16.4591   19.4379 F   0  0  0  0  0  0  0  0  0  0  0  0
   10.1644   14.3032   19.5756 F   0  0  0  0  0  0  0  0  0  0  0  0
   12.0763   15.2762   19.6200 F   0  0  0  0  0  0  0  0  0  0  0  0
    8.6954   12.1114   23.5756 C   0  0  0  0  0  0  0  0  0  0  0  0
    7.9421   11.2454   24.5343 C   0  0  0  0  0  0  0  0  0  0  0  0
    8.1796   10.0699   24.7444 O   0  0  0  0  0  0  0  0  0  0  0  0
  1  2  1  0
  2  3  1  0
  3  4  1  0
  4  5  1  0
  5  6  1  1
  6  7  2  0
  6  8  1  0
  8  9  1  0
  9 10  1  1
 10 11  1  0
 11 12  1  0
 12 13  1  0
  9 14  1  0
 14 15  1  0
 14 16  1  0
 14 17  1  0
  5 18  1  0
 18 19  1  0
 19 20  2  0
 19  3  1  0
 13 11  1  0
M  END
>  <energy_score>  (540) 
-5.683746

>  <inchikey>  (540) 
None

>  <smiles>  (540) 
None

>  <ref_pdb>  (540) 
A3956a

>  <alias>  (540) 
None

>  <HIPPO Pose ID>  (540) 
498914

>  <name>  (540) 
P498914

>  <HIPPO Compound ID>  (540) 
298885

>  <ref_mols>  (540) 
A3956a,A1778a

>  <distance_score>  (540) 
1.331428

>  <inspiration_score>  (540) 
None

$$$$
P498915
     RDKit          3D

 22 23  0  0  0  0  0  0  0  0999 V2000
    4.8482   12.4247   26.8385 C   0  0  0  0  0  0  0  0  0  0  0  0
    6.1850   11.7704   26.5101 C   0  0  0  0  0  0  0  0  0  0  0  0
    6.0363   10.2716   26.3058 C   0  0  0  0  0  0  0  0  0  0  0  0
    6.8901   12.4227   25.4187 N   0  0  0  0  0  0  0  0  0  0  0  0
    6.6570   13.8056   25.0696 C   0  0  0  0  0  0  0  0  0  0  0  0
    7.8348   14.2219   24.2344 C   0  0  2  0  0  0  0  0  0  0  0  0
    7.7131   14.1487   22.7132 C   0  0  0  0  0  0  0  0  0  0  0  0
    6.9789   13.4709   22.1149 O   0  0  0  0  0  0  0  0  0  0  0  0
    8.8407   15.0863   22.2191 N   0  0  0  0  0  0  0  0  0  0  0  0
    9.3573   15.3083   20.8965 C   0  0  2  0  0  0  0  0  0  0  0  0
   10.7475   14.7605   20.8681 C   0  0  2  0  0  0  0  0  0  0  0  0
   11.3871   13.6422   21.6101 C   0  0  0  0  0  0  0  0  0  0  0  0
   11.7469   15.0379   22.0152 C   0  0  0  0  0  0  0  0  0  0  0  0
   11.5833   15.2582   23.4851 C   0  0  0  0  0  0  0  0  0  0  0  0
   12.8963   15.7969   21.4915 C   0  0  0  0  0  0  0  0  0  0  0  0
    9.4802   16.7610   20.4209 C   0  0  0  0  0  0  0  0  0  0  0  0
    9.7738   16.8344   19.1053 F   0  0  0  0  0  0  0  0  0  0  0  0
    8.3553   17.4604   20.6601 F   0  0  0  0  0  0  0  0  0  0  0  0
   10.4571   17.4067   21.0805 F   0  0  0  0  0  0  0  0  0  0  0  0
    8.9063   13.1809   24.5819 C   0  0  0  0  0  0  0  0  0  0  0  0
    8.1169   11.9761   24.9657 C   0  0  0  0  0  0  0  0  0  0  0  0
    8.5501   10.8389   24.9689 O   0  0  0  0  0  0  0  0  0  0  0  0
  1  2  1  0
  2  3  1  0
  2  4  1  0
  4  5  1  0
  5  6  1  0
  6  7  1  6
  7  8  2  0
  7  9  1  0
 10  9  1  1
 10 11  1  0
 11 12  1  1
 12 13  1  0
 13 14  1  0
 13 15  1  0
 10 16  1  0
 16 17  1  0
 16 18  1  0
 16 19  1  0
  6 20  1  0
 20 21  1  0
 21 22  2  0
 21  4  1  0
 13 11  1  0
M  END
>  <energy_score>  (541) 
-5.196439

>  <inchikey>  (541) 
None

>  <smiles>  (541) 
None

>  <ref_pdb>  (541) 
A3956a

>  <alias>  (541) 
None

>  <HIPPO Pose ID>  (541) 
498915

>  <name>  (541) 
P498915

>  <HIPPO Compound ID>  (541) 
298912

>  <ref_mols>  (541) 
A3956a,A1778a

>  <distance_score>  (541) 
1.854977

>  <inspiration_score>  (541) 
None

$$$$
P498916
     RDKit          3D

 22 23  0  0  0  0  0  0  0  0999 V2000
    4.7838   15.0380   27.5857 C   0  0  0  0  0  0  0  0  0  0  0  0
    5.0768   13.9799   26.6835 O   0  0  0  0  0  0  0  0  0  0  0  0
    5.8608   12.9552   27.2960 C   0  0  0  0  0  0  0  0  0  0  0  0
    6.2068   11.8704   26.2779 C   0  0  0  0  0  0  0  0  0  0  0  0
    7.2554   12.2319   25.3383 N   0  0  0  0  0  0  0  0  0  0  0  0
    7.2576   13.4909   24.6217 C   0  0  0  0  0  0  0  0  0  0  0  0
    8.0364   13.2169   23.3331 C   0  0  1  0  0  0  0  0  0  0  0  0
    8.9483   14.3763   22.9758 C   0  0  0  0  0  0  0  0  0  0  0  0
    8.8877   15.4097   23.5107 O   0  0  0  0  0  0  0  0  0  0  0  0
    9.9469   13.8535   21.9116 N   0  0  0  0  0  0  0  0  0  0  0  0
   11.1412   14.4686   21.3548 C   0  0  2  0  0  0  0  0  0  0  0  0
   11.9086   15.1452   22.5140 C   0  0  0  0  0  0  0  0  0  0  0  0
   11.9000   14.1895   23.7122 C   0  0  0  0  0  0  0  0  0  0  0  0
   12.8650   14.1100   24.8513 C   0  0  0  0  0  0  0  0  0  0  0  0
   11.5402   14.7621   25.0636 C   0  0  0  0  0  0  0  0  0  0  0  0
   11.0152   15.2822   20.0724 C   0  0  0  0  0  0  0  0  0  0  0  0
   12.2538   15.6355   19.6994 F   0  0  0  0  0  0  0  0  0  0  0  0
   10.2742   16.3971   20.1922 F   0  0  0  0  0  0  0  0  0  0  0  0
   10.5194   14.5622   19.0486 F   0  0  0  0  0  0  0  0  0  0  0  0
    8.8365   11.9564   23.6676 C   0  0  0  0  0  0  0  0  0  0  0  0
    8.0231   11.2758   24.7094 C   0  0  0  0  0  0  0  0  0  0  0  0
    8.0739   10.0857   24.9594 O   0  0  0  0  0  0  0  0  0  0  0  0
  1  2  1  0
  2  3  1  0
  3  4  1  0
  4  5  1  0
  5  6  1  0
  6  7  1  0
  7  8  1  1
  8  9  2  0
  8 10  1  0
 10 11  1  0
 11 12  1  1
 12 13  1  0
 13 14  1  0
 14 15  1  0
 11 16  1  0
 16 17  1  0
 16 18  1  0
 16 19  1  0
  7 20  1  0
 20 21  1  0
 21 22  2  0
 21  5  1  0
 15 13  1  0
M  END
>  <energy_score>  (542) 
-11.600015

>  <inchikey>  (542) 
None

>  <smiles>  (542) 
None

>  <ref_pdb>  (542) 
A3956a

>  <alias>  (542) 
None

>  <HIPPO Pose ID>  (542) 
498916

>  <name>  (542) 
P498916

>  <HIPPO Compound ID>  (542) 
298921

>  <ref_mols>  (542) 
A3956a,A1778a

>  <distance_score>  (542) 
1.47743

>  <inspiration_score>  (542) 
None

$$$$
P498919
     RDKit          3D

 22 23  0  0  0  0  0  0  0  0999 V2000
    6.5451   13.9993   27.7888 C   0  0  0  0  0  0  0  0  0  0  0  0
    5.6202   13.2399   26.8386 C   0  0  0  0  0  0  0  0  0  0  0  0
    4.4057   12.7333   27.6225 C   0  0  0  0  0  0  0  0  0  0  0  0
    6.3163   12.0651   26.1379 C   0  0  0  0  0  0  0  0  0  0  0  0
    7.3900   12.4020   25.2189 N   0  0  0  0  0  0  0  0  0  0  0  0
    7.4017   13.5912   24.3874 C   0  0  0  0  0  0  0  0  0  0  0  0
    8.1681   13.1860   23.1208 C   0  0  1  0  0  0  0  0  0  0  0  0
    8.8884   14.3761   22.4987 C   0  0  0  0  0  0  0  0  0  0  0  0
    8.5874   15.4652   22.7884 O   0  0  0  0  0  0  0  0  0  0  0  0
   10.0397   13.8578   21.5972 N   0  0  0  0  0  0  0  0  0  0  0  0
   11.1298   14.5813   20.9351 C   0  0  2  0  0  0  0  0  0  0  0  0
   11.6183   15.6987   21.8499 C   0  0  0  0  0  0  0  0  0  0  0  0
   12.2958   15.2620   23.1189 C   0  0  0  0  0  0  0  0  0  0  0  0
   11.5110   15.1822   24.4118 C   0  0  0  0  0  0  0  0  0  0  0  0
   12.1638   13.9552   23.8664 C   0  0  0  0  0  0  0  0  0  0  0  0
   10.8830   15.1143   19.5098 C   0  0  0  0  0  0  0  0  0  0  0  0
   10.6678   14.1356   18.6142 F   0  0  0  0  0  0  0  0  0  0  0  0
    9.8736   16.0014   19.4397 F   0  0  0  0  0  0  0  0  0  0  0  0
   11.9854   15.7297   19.0567 F   0  0  0  0  0  0  0  0  0  0  0  0
    9.0234   12.0292   23.6102 C   0  0  0  0  0  0  0  0  0  0  0  0
    8.1696   11.4025   24.6599 C   0  0  0  0  0  0  0  0  0  0  0  0
    8.1912   10.2247   24.9659 O   0  0  0  0  0  0  0  0  0  0  0  0
  1  2  1  0
  2  3  1  0
  2  4  1  0
  4  5  1  0
  5  6  1  0
  6  7  1  0
  7  8  1  1
  8  9  2  0
  8 10  1  0
 10 11  1  0
 11 12  1  1
 12 13  1  0
 13 14  1  0
 14 15  1  0
 11 16  1  0
 16 17  1  0
 16 18  1  0
 16 19  1  0
  7 20  1  0
 20 21  1  0
 21 22  2  0
 21  5  1  0
 15 13  1  0
M  END
>  <energy_score>  (543) 
-5.21496

>  <inchikey>  (543) 
None

>  <smiles>  (543) 
None

>  <ref_pdb>  (543) 
A3956a

>  <alias>  (543) 
None

>  <HIPPO Pose ID>  (543) 
498919

>  <name>  (543) 
P498919

>  <HIPPO Compound ID>  (543) 
298923

>  <ref_mols>  (543) 
A3956a,A1778a

>  <distance_score>  (543) 
1.182002

>  <inspiration_score>  (543) 
None

$$$$
P498920
     RDKit          3D

 23 24  0  0  0  0  0  0  0  0999 V2000
    5.6259   13.3387   28.4079 C   0  0  0  0  0  0  0  0  0  0  0  0
    6.2087   13.4648   27.0056 C   0  0  0  0  0  0  0  0  0  0  0  0
    6.6849   12.1375   26.3915 C   0  0  0  0  0  0  0  0  0  0  0  0
    5.5530   11.1441   26.2644 C   0  0  0  0  0  0  0  0  0  0  0  0
    5.9723    9.7805   25.7695 C   0  0  0  0  0  0  0  0  0  0  0  0
    7.4736   12.3130   25.1774 N   0  0  0  0  0  0  0  0  0  0  0  0
    7.4042   13.4706   24.3105 C   0  0  0  0  0  0  0  0  0  0  0  0
    8.7407   13.3640   23.6228 C   0  0  2  0  0  0  0  0  0  0  0  0
    9.0031   14.3699   22.5330 C   0  0  0  0  0  0  0  0  0  0  0  0
    8.3340   15.3081   22.3663 O   0  0  0  0  0  0  0  0  0  0  0  0
   10.3162   13.9401   21.8400 N   0  0  0  0  0  0  0  0  0  0  0  0
   11.1327   14.6291   20.8593 C   0  0  2  0  0  0  0  0  0  0  0  0
   11.7295   15.7824   21.6564 C   0  0  0  0  0  0  0  0  0  0  0  0
   12.3814   15.4622   22.9811 C   0  0  0  0  0  0  0  0  0  0  0  0
   12.2714   14.2917   23.9490 C   0  0  0  0  0  0  0  0  0  0  0  0
   11.5395   15.5506   24.2463 C   0  0  0  0  0  0  0  0  0  0  0  0
   10.4652   15.1391   19.5773 C   0  0  0  0  0  0  0  0  0  0  0  0
    9.1239   15.1602   19.7091 F   0  0  0  0  0  0  0  0  0  0  0  0
   10.8284   16.3919   19.2421 F   0  0  0  0  0  0  0  0  0  0  0  0
   10.7937   14.3503   18.5294 F   0  0  0  0  0  0  0  0  0  0  0  0
    8.9425   11.8974   23.4090 C   0  0  0  0  0  0  0  0  0  0  0  0
    8.3157   11.3483   24.6346 C   0  0  0  0  0  0  0  0  0  0  0  0
    8.5494   10.2249   25.0323 O   0  0  0  0  0  0  0  0  0  0  0  0
  1  2  1  0
  2  3  1  0
  3  4  1  0
  4  5  1  0
  3  6  1  0
  6  7  1  0
  7  8  1  0
  8  9  1  6
  9 10  2  0
  9 11  1  0
 11 12  1  0
 12 13  1  1
 13 14  1  0
 14 15  1  0
 15 16  1  0
 12 17  1  0
 17 18  1  0
 17 19  1  0
 17 20  1  0
  8 21  1  0
 21 22  1  0
 22 23  2  0
 22  6  1  0
 16 14  1  0
M  END
>  <energy_score>  (544) 
-21.905244

>  <inchikey>  (544) 
None

>  <smiles>  (544) 
None

>  <ref_pdb>  (544) 
A3956a

>  <alias>  (544) 
None

>  <HIPPO Pose ID>  (544) 
498920

>  <name>  (544) 
P498920

>  <HIPPO Compound ID>  (544) 
298948

>  <ref_mols>  (544) 
A3956a,A1778a

>  <distance_score>  (544) 
1.098533

>  <inspiration_score>  (544) 
None

$$$$
P498923
     RDKit          3D

 23 25  0  0  0  0  0  0  0  0999 V2000
    4.7012   13.2003   26.3365 C   0  0  0  0  0  0  0  0  0  0  0  0
    5.7083   12.0691   26.1145 C   0  0  2  0  0  0  0  0  0  0  0  0
    5.9622   11.2781   27.3698 C   0  0  0  0  0  0  0  0  0  0  0  0
    5.7626   11.8202   28.7744 C   0  0  0  0  0  0  0  0  0  0  0  0
    4.8273   10.7747   28.2425 C   0  0  0  0  0  0  0  0  0  0  0  0
    6.9417   12.5554   25.4773 N   0  0  0  0  0  0  0  0  0  0  0  0
    6.8699   13.6945   24.5799 C   0  0  0  0  0  0  0  0  0  0  0  0
    8.2502   13.8367   24.0222 C   0  0  2  0  0  0  0  0  0  0  0  0
    8.3110   14.2990   22.5651 C   0  0  0  0  0  0  0  0  0  0  0  0
    7.6448   13.8953   21.6995 O   0  0  0  0  0  0  0  0  0  0  0  0
    9.4905   15.2990   22.5394 N   0  0  0  0  0  0  0  0  0  0  0  0
   10.1607   15.9414   21.4192 C   0  0  1  0  0  0  0  0  0  0  0  0
   11.6537   16.0754   21.7728 C   0  0  0  0  0  0  0  0  0  0  0  0
   12.3329   15.1757   22.7706 C   0  0  0  0  0  0  0  0  0  0  0  0
   11.8716   13.7844   23.1098 C   0  0  0  0  0  0  0  0  0  0  0  0
   11.9481   14.8232   24.1953 C   0  0  0  0  0  0  0  0  0  0  0  0
   10.0268   15.4520   19.9735 C   0  0  0  0  0  0  0  0  0  0  0  0
   10.8676   14.4614   19.6381 F   0  0  0  0  0  0  0  0  0  0  0  0
   10.2778   16.4813   19.1228 F   0  0  0  0  0  0  0  0  0  0  0  0
    8.7646   15.0684   19.7527 F   0  0  0  0  0  0  0  0  0  0  0  0
    8.8307   12.4268   24.0789 C   0  0  0  0  0  0  0  0  0  0  0  0
    7.8951   11.6660   24.9669 C   0  0  0  0  0  0  0  0  0  0  0  0
    8.0035   10.4706   25.1814 O   0  0  0  0  0  0  0  0  0  0  0  0
  2  1  1  1
  2  3  1  0
  3  4  1  0
  4  5  1  0
  2  6  1  0
  6  7  1  0
  7  8  1  0
  8  9  1  6
  9 10  2  0
  9 11  1  0
 11 12  1  0
 12 13  1  1
 13 14  1  0
 14 15  1  0
 15 16  1  0
 12 17  1  0
 17 18  1  0
 17 19  1  0
 17 20  1  0
  8 21  1  0
 21 22  1  0
 22 23  2  0
  5  3  1  0
 22  6  1  0
 16 14  1  0
M  END
>  <energy_score>  (545) 
-3.84605

>  <inchikey>  (545) 
None

>  <smiles>  (545) 
None

>  <ref_pdb>  (545) 
A3956a

>  <alias>  (545) 
None

>  <HIPPO Pose ID>  (545) 
498923

>  <name>  (545) 
P498923

>  <HIPPO Compound ID>  (545) 
298954

>  <ref_mols>  (545) 
A3956a,A1778a

>  <distance_score>  (545) 
1.433161

>  <inspiration_score>  (545) 
None

$$$$
P498924
     RDKit          3D

 23 24  0  0  0  0  0  0  0  0999 V2000
    5.3426   14.7842   28.2103 C   0  0  0  0  0  0  0  0  0  0  0  0
    5.3861   13.9361   27.0173 N   0  0  0  0  0  0  0  0  0  0  0  0
    4.0628   13.8895   26.3949 C   0  0  0  0  0  0  0  0  0  0  0  0
    5.8937   12.5938   27.3519 C   0  0  0  0  0  0  0  0  0  0  0  0
    6.2588   11.6597   26.1782 C   0  0  0  0  0  0  0  0  0  0  0  0
    7.3100   12.1217   25.2877 N   0  0  0  0  0  0  0  0  0  0  0  0
    7.2679   13.4131   24.6445 C   0  0  0  0  0  0  0  0  0  0  0  0
    8.0232   13.2108   23.3220 C   0  0  1  0  0  0  0  0  0  0  0  0
    8.5902   14.5336   22.8541 C   0  0  0  0  0  0  0  0  0  0  0  0
    8.2560   15.5134   23.3911 O   0  0  0  0  0  0  0  0  0  0  0  0
    9.5728   14.3203   21.6744 N   0  0  0  0  0  0  0  0  0  0  0  0
   10.4254   15.2693   20.9704 C   0  0  1  0  0  0  0  0  0  0  0  0
   11.3374   15.9463   21.9970 C   0  0  0  0  0  0  0  0  0  0  0  0
   12.1923   15.1417   22.9360 C   0  0  0  0  0  0  0  0  0  0  0  0
   11.6293   14.8800   24.3209 C   0  0  0  0  0  0  0  0  0  0  0  0
   11.9679   13.7353   23.4249 C   0  0  0  0  0  0  0  0  0  0  0  0
   11.2098   14.9423   19.6894 C   0  0  0  0  0  0  0  0  0  0  0  0
   11.4292   16.1010   19.0270 F   0  0  0  0  0  0  0  0  0  0  0  0
   12.3977   14.3659   19.9437 F   0  0  0  0  0  0  0  0  0  0  0  0
   10.5680   14.1732   18.8076 F   0  0  0  0  0  0  0  0  0  0  0  0
    8.9900   12.1022   23.6838 C   0  0  0  0  0  0  0  0  0  0  0  0
    8.1697   11.2683   24.6207 C   0  0  0  0  0  0  0  0  0  0  0  0
    8.2786   10.0661   24.7703 O   0  0  0  0  0  0  0  0  0  0  0  0
  1  2  1  0
  2  3  1  0
  2  4  1  0
  4  5  1  0
  5  6  1  0
  6  7  1  0
  7  8  1  0
  8  9  1  1
  9 10  2  0
  9 11  1  0
 11 12  1  0
 12 13  1  1
 13 14  1  0
 14 15  1  0
 15 16  1  0
 12 17  1  0
 17 18  1  0
 17 19  1  0
 17 20  1  0
  8 21  1  0
 21 22  1  0
 22 23  2  0
 22  6  1  0
 16 14  1  0
M  END
>  <energy_score>  (546) 
-4.846038

>  <inchikey>  (546) 
None

>  <smiles>  (546) 
None

>  <ref_pdb>  (546) 
A3956a

>  <alias>  (546) 
None

>  <HIPPO Pose ID>  (546) 
498924

>  <name>  (546) 
P498924

>  <HIPPO Compound ID>  (546) 
298961

>  <ref_mols>  (546) 
A3956a,A1778a

>  <distance_score>  (546) 
1.131233

>  <inspiration_score>  (546) 
None

$$$$
P498926
     RDKit          3D

 23 26  0  0  0  0  0  0  0  0999 V2000
    7.9916   14.8006   26.3053 O   0  0  0  0  0  0  0  0  0  0  0  0
    8.0709   13.8511   25.5477 C   0  0  0  0  0  0  0  0  0  0  0  0
    9.3126   13.3946   24.8451 C   0  0  0  0  0  0  0  0  0  0  0  0
    8.7895   12.4873   23.6760 C   0  0  1  0  0  0  0  0  0  0  0  0
    8.6343   13.5444   22.5267 C   0  0  0  0  0  0  0  0  0  0  0  0
    7.6160   14.0154   22.2085 O   0  0  0  0  0  0  0  0  0  0  0  0
   10.0805   13.8524   22.0455 N   0  0  0  0  0  0  0  0  0  0  0  0
   10.5814   14.8866   21.1303 C   0  0  1  0  0  0  0  0  0  0  0  0
   10.0204   15.1712   19.7576 C   0  0  0  0  0  0  0  0  0  0  0  0
   10.2854   16.4290   19.3315 F   0  0  0  0  0  0  0  0  0  0  0  0
    8.6859   15.0360   19.7971 F   0  0  0  0  0  0  0  0  0  0  0  0
   10.5571   14.3523   18.8247 F   0  0  0  0  0  0  0  0  0  0  0  0
   10.4373   16.0974   22.0357 C   0  0  0  0  0  0  0  0  0  0  0  0
   11.5721   15.9891   23.0433 C   0  0  1  0  0  0  0  0  0  0  0  0
   12.2565   14.7716   23.6516 C   0  0  0  0  0  0  0  0  0  0  0  0
   12.6496   15.2997   22.3072 C   0  0  1  0  0  0  0  0  0  0  0  0
   12.0976   14.7630   21.0216 C   0  0  0  0  0  0  0  0  0  0  0  0
    9.7889   11.3945   23.3091 C   0  0  0  0  0  0  0  0  0  0  0  0
    9.5653    9.9218   23.6019 C   0  0  0  0  0  0  0  0  0  0  0  0
    8.2154    9.5592   24.1349 C   0  0  0  0  0  0  0  0  0  0  0  0
    7.5877   10.6357   24.9818 C   0  0  0  0  0  0  0  0  0  0  0  0
    7.4899   11.9804   24.2728 C   0  0  1  0  0  0  0  0  0  0  0  0
    7.0764   12.9708   25.2282 N   0  0  0  0  0  0  0  0  0  0  0  0
  1  2  2  0
  2  3  1  0
  3  4  1  0
  4  5  1  6
  5  6  2  0
  5  7  1  0
  8  7  1  1
  8  9  1  0
  9 10  1  0
  9 11  1  0
  9 12  1  0
  8 13  1  0
 14 13  1  6
 14 15  1  0
 16 15  1  1
 16 17  1  0
  4 18  1  0
 18 19  1  0
 19 20  1  0
 20 21  1  0
 22 21  1  1
 22 23  1  0
 23  2  1  0
 22  4  1  0
 17  8  1  0
 16 14  1  0
M  END
>  <energy_score>  (547) 
-4.627695

>  <inchikey>  (547) 
None

>  <smiles>  (547) 
None

>  <ref_pdb>  (547) 
A3956a

>  <alias>  (547) 
None

>  <HIPPO Pose ID>  (547) 
498926

>  <name>  (547) 
P498926

>  <HIPPO Compound ID>  (547) 
298985

>  <ref_mols>  (547) 
A3956a,A1778a

>  <distance_score>  (547) 
1.502673

>  <inspiration_score>  (547) 
None

$$$$
P498927
     RDKit          3D

 28 30  0  0  0  0  0  0  0  0999 V2000
    6.0261   10.8177   26.4431 C   0  0  0  0  0  0  0  0  0  0  0  0
    7.0532   10.9279   25.3831 C   0  0  0  0  0  0  0  0  0  0  0  0
    7.5811    9.8181   24.8688 N   0  0  0  0  0  0  0  0  0  0  0  0
    8.5049   10.2600   23.9971 N   0  0  0  0  0  0  0  0  0  0  0  0
    9.3483    9.2858   23.3392 C   0  0  0  0  0  0  0  0  0  0  0  0
    8.5505   11.6342   23.9095 C   0  0  0  0  0  0  0  0  0  0  0  0
    9.5047   12.3653   23.0362 C   0  0  0  0  0  0  0  0  0  0  0  0
    7.6065   12.1126   24.8120 C   0  0  0  0  0  0  0  0  0  0  0  0
    7.2249   13.5094   25.2144 C   0  0  2  0  0  0  0  0  0  0  0  0
    6.0013   14.1133   24.4915 C   0  0  1  0  0  0  0  0  0  0  0  0
    4.6988   14.0746   25.2991 C   0  0  0  0  0  0  0  0  0  0  0  0
    4.7418   14.8784   26.5005 N   0  0  0  0  0  0  0  0  0  0  0  0
    4.9646   14.4673   27.9804 C   0  0  0  0  0  0  0  0  0  0  0  0
    5.2237   13.4288   28.4456 O   0  0  0  0  0  0  0  0  0  0  0  0
    4.8226   15.7595   28.8114 C   0  0  0  0  0  0  0  0  0  0  0  0
    5.3975   15.5699   30.2299 C   0  0  0  0  0  0  0  0  0  0  0  0
    4.8520   16.6069   31.2088 C   0  0  0  0  0  0  0  0  0  0  0  0
    3.3520   16.5095   31.3108 C   0  0  0  0  0  0  0  0  0  0  0  0
    2.6942   16.9274   32.4009 C   0  0  0  0  0  0  0  0  0  0  0  0
    1.3506   16.8206   32.4665 F   0  0  0  0  0  0  0  0  0  0  0  0
    3.3712   17.4572   33.4410 F   0  0  0  0  0  0  0  0  0  0  0  0
    2.6334   15.9172   30.1270 C   0  0  0  0  0  0  0  0  0  0  0  0
    3.3577   16.2474   28.8215 C   0  0  0  0  0  0  0  0  0  0  0  0
    6.3844   15.5725   24.2021 C   0  0  0  0  0  0  0  0  0  0  0  0
    7.5890   15.7288   25.0655 C   0  0  0  0  0  0  0  0  0  0  0  0
    7.8929   16.7017   25.7324 O   0  0  0  0  0  0  0  0  0  0  0  0
    8.2616   14.5066   25.0225 N   0  0  0  0  0  0  0  0  0  0  0  0
    9.5288   14.4428   25.6960 C   0  0  0  0  0  0  0  0  0  0  0  0
  1  2  1  0
  2  3  2  0
  3  4  1  0
  4  5  1  0
  4  6  1  0
  6  7  1  0
  6  8  2  0
  9  8  1  6
  9 10  1  0
 10 11  1  1
 11 12  1  0
 12 13  1  0
 13 14  2  0
 13 15  1  0
 15 16  1  0
 16 17  1  0
 17 18  1  0
 18 19  2  3
 19 20  1  0
 19 21  1  0
 18 22  1  0
 22 23  1  0
 10 24  1  0
 24 25  1  0
 25 26  2  0
 25 27  1  0
 27 28  1  0
  8  2  1  0
 27  9  1  0
 23 15  1  0
M  END
>  <energy_score>  (548) 
-13.469881

>  <inchikey>  (548) 
None

>  <smiles>  (548) 
None

>  <ref_pdb>  (548) 
A4855a

>  <alias>  (548) 
None

>  <HIPPO Pose ID>  (548) 
498927

>  <name>  (548) 
P498927

>  <HIPPO Compound ID>  (548) 
299120

>  <ref_mols>  (548) 
A4855a,A0556a

>  <distance_score>  (548) 
1.347624

>  <inspiration_score>  (548) 
None

$$$$
P498936
     RDKit          3D

 21 23  0  0  0  0  0  0  0  0999 V2000
   12.8009   14.8659   22.1418 C   0  0  0  0  0  0  0  0  0  0  0  0
   11.8254   14.0514   21.3426 C   0  0  1  0  0  0  0  0  0  0  0  0
   11.1232   13.1115   22.1610 N   0  0  0  0  0  0  0  0  0  0  0  0
   10.5684   13.2480   23.5830 C   0  0  0  0  0  0  0  0  0  0  0  0
   10.6593   14.1210   24.3491 O   0  0  0  0  0  0  0  0  0  0  0  0
    9.8114   12.0310   23.8851 C   0  0  0  0  0  0  0  0  0  0  0  0
   10.0697   10.8924   23.2190 N   0  0  0  0  0  0  0  0  0  0  0  0
    9.2739    9.9881   23.7996 N   0  0  0  0  0  0  0  0  0  0  0  0
    9.4364    8.6082   23.4285 C   0  0  0  0  0  0  0  0  0  0  0  0
    8.4267   10.5122   24.7440 C   0  0  0  0  0  0  0  0  0  0  0  0
    7.4141    9.9473   25.5296 C   0  0  0  0  0  0  0  0  0  0  0  0
    6.7240   10.7863   26.4083 C   0  0  0  0  0  0  0  0  0  0  0  0
    7.0433   12.1385   26.4955 C   0  0  0  0  0  0  0  0  0  0  0  0
    6.0965   13.2388   27.7081 Br  0  0  0  0  0  0  0  0  0  0  0  0
    8.0576   12.6962   25.7128 C   0  0  0  0  0  0  0  0  0  0  0  0
    8.7611   11.8611   24.8239 C   0  0  0  0  0  0  0  0  0  0  0  0
   10.8246   14.8994   20.6525 C   0  0  0  0  0  0  0  0  0  0  0  0
   10.6741   15.1314   19.3089 C   0  0  0  0  0  0  0  0  0  0  0  0
    9.7415   16.1094   19.1464 O   0  0  0  0  0  0  0  0  0  0  0  0
    9.3640   16.4126   20.4148 C   0  0  0  0  0  0  0  0  0  0  0  0
    9.9289   15.6788   21.3441 N   0  0  0  0  0  0  0  0  0  0  0  0
  2  1  1  1
  2  3  1  0
  3  4  1  0
  4  5  2  0
  4  6  1  0
  6  7  2  0
  7  8  1  0
  8  9  1  0
  8 10  1  0
 10 11  2  0
 11 12  1  0
 12 13  2  0
 13 14  1  0
 13 15  1  0
 15 16  2  0
  2 17  1  0
 17 18  2  0
 18 19  1  0
 19 20  1  0
 20 21  2  0
 16  6  1  0
 21 17  1  0
 16 10  1  0
M  END
>  <energy_score>  (549) 
-31.193474

>  <inchikey>  (549) 
None

>  <smiles>  (549) 
None

>  <ref_pdb>  (549) 
A2290a

>  <alias>  (549) 
None

>  <HIPPO Pose ID>  (549) 
498936

>  <name>  (549) 
P498936

>  <HIPPO Compound ID>  (549) 
299205

>  <ref_mols>  (549) 
A3403a,A2290a

>  <distance_score>  (549) 
0.711622

>  <inspiration_score>  (549) 
None

$$$$
P498943
     RDKit          3D

 22 24  0  0  0  0  0  0  0  0999 V2000
    7.5196   18.5574   19.2703 C   0  0  0  0  0  0  0  0  0  0  0  0
    8.8227   18.1701   19.8436 C   0  0  0  0  0  0  0  0  0  0  0  0
    9.2937   16.7661   20.0002 C   0  0  0  0  0  0  0  0  0  0  0  0
    9.7266   16.1705   21.0973 N   0  0  0  0  0  0  0  0  0  0  0  0
   10.5942   15.1963   20.6531 C   0  0  0  0  0  0  0  0  0  0  0  0
   11.6034   14.5565   21.5369 C   0  0  0  0  0  0  0  0  0  0  0  0
   11.0276   13.4624   22.2470 N   0  0  0  0  0  0  0  0  0  0  0  0
   10.5046   13.3730   23.6835 C   0  0  0  0  0  0  0  0  0  0  0  0
   10.5284   14.1549   24.5459 O   0  0  0  0  0  0  0  0  0  0  0  0
    9.8360   12.0795   23.8666 C   0  0  0  0  0  0  0  0  0  0  0  0
   10.1677   11.0155   23.1194 N   0  0  0  0  0  0  0  0  0  0  0  0
    9.4112   10.0172   23.6021 N   0  0  0  0  0  0  0  0  0  0  0  0
    9.5474    8.7068   23.0124 C   0  0  0  0  0  0  0  0  0  0  0  0
    8.5492   10.4129   24.5962 C   0  0  0  0  0  0  0  0  0  0  0  0
    7.5832    9.7284   25.3403 C   0  0  0  0  0  0  0  0  0  0  0  0
    6.8327   10.4526   26.2707 C   0  0  0  0  0  0  0  0  0  0  0  0
    7.0534   11.8148   26.4515 C   0  0  0  0  0  0  0  0  0  0  0  0
    6.0250   12.7586   27.7272 Br  0  0  0  0  0  0  0  0  0  0  0  0
    8.0307   12.4920   25.7190 C   0  0  0  0  0  0  0  0  0  0  0  0
    8.7932   11.7706   24.7791 C   0  0  0  0  0  0  0  0  0  0  0  0
   10.5093   15.1363   19.2853 C   0  0  0  0  0  0  0  0  0  0  0  0
    9.6731   16.1236   18.8564 O   0  0  0  0  0  0  0  0  0  0  0  0
  1  2  1  0
  2  3  1  0
  3  4  2  0
  4  5  1  0
  5  6  1  0
  6  7  1  0
  7  8  1  0
  8  9  2  0
  8 10  1  0
 10 11  2  0
 11 12  1  0
 12 13  1  0
 12 14  1  0
 14 15  2  0
 15 16  1  0
 16 17  2  0
 17 18  1  0
 17 19  1  0
 19 20  2  0
  5 21  2  0
 21 22  1  0
 22  3  1  0
 20 10  1  0
 20 14  1  0
M  END
>  <energy_score>  (550) 
-0.530387

>  <inchikey>  (550) 
None

>  <smiles>  (550) 
None

>  <ref_pdb>  (550) 
A2290a

>  <alias>  (550) 
None

>  <HIPPO Pose ID>  (550) 
498943

>  <name>  (550) 
P498943

>  <HIPPO Compound ID>  (550) 
299215

>  <ref_mols>  (550) 
A3403a,A2290a

>  <distance_score>  (550) 
0.67175

>  <inspiration_score>  (550) 
None

$$$$
P498944
     RDKit          3D

 22 24  0  0  0  0  0  0  0  0999 V2000
    9.7059    8.9711   23.0904 C   0  0  0  0  0  0  0  0  0  0  0  0
    9.3605   10.2050   23.7622 N   0  0  0  0  0  0  0  0  0  0  0  0
    9.8909   11.3684   23.3242 N   0  0  0  0  0  0  0  0  0  0  0  0
    9.2949   12.3004   24.0889 C   0  0  0  0  0  0  0  0  0  0  0  0
    9.2558   13.7238   23.7577 C   0  0  0  0  0  0  0  0  0  0  0  0
    8.9047   14.5029   24.5495 O   0  0  0  0  0  0  0  0  0  0  0  0
    9.6280   13.9050   22.2813 N   0  0  0  0  0  0  0  0  0  0  0  0
    9.5623   14.9866   21.4935 N   0  0  0  0  0  0  0  0  0  0  0  0
   10.2462   15.2875   20.1582 C   0  0  0  0  0  0  0  0  0  0  0  0
   11.0370   14.6786   19.5621 O   0  0  0  0  0  0  0  0  0  0  0  0
    9.6094   16.5135   19.6936 C   0  0  0  0  0  0  0  0  0  0  0  0
    9.6894   17.1109   18.4663 C   0  0  0  0  0  0  0  0  0  0  0  0
    8.8798   18.2051   18.4709 O   0  0  0  0  0  0  0  0  0  0  0  0
    8.3632   18.2424   19.7286 C   0  0  0  0  0  0  0  0  0  0  0  0
    8.7532   17.2570   20.5059 N   0  0  0  0  0  0  0  0  0  0  0  0
    8.4397   11.7286   25.0616 C   0  0  0  0  0  0  0  0  0  0  0  0
    7.5583   12.2414   26.0359 C   0  0  0  0  0  0  0  0  0  0  0  0
    6.6948   11.3657   26.6856 C   0  0  0  0  0  0  0  0  0  0  0  0
    5.4950   12.0248   27.9886 Br  0  0  0  0  0  0  0  0  0  0  0  0
    6.6917   10.0134   26.3731 C   0  0  0  0  0  0  0  0  0  0  0  0
    7.5712    9.4984   25.4143 C   0  0  0  0  0  0  0  0  0  0  0  0
    8.4416   10.3747   24.7707 C   0  0  0  0  0  0  0  0  0  0  0  0
  1  2  1  0
  2  3  1  0
  3  4  2  0
  4  5  1  0
  5  6  2  0
  5  7  1  0
  7  8  1  0
  8  9  1  0
  9 10  2  0
  9 11  1  0
 11 12  2  0
 12 13  1  0
 13 14  1  0
 14 15  2  0
  4 16  1  0
 16 17  2  0
 17 18  1  0
 18 19  1  0
 18 20  2  0
 20 21  1  0
 21 22  2  0
 22  2  1  0
 15 11  1  0
 22 16  1  0
M  END
>  <energy_score>  (551) 
-16.773705

>  <inchikey>  (551) 
None

>  <smiles>  (551) 
None

>  <ref_pdb>  (551) 
A2290a

>  <alias>  (551) 
None

>  <HIPPO Pose ID>  (551) 
498944

>  <name>  (551) 
P498944

>  <HIPPO Compound ID>  (551) 
299216

>  <ref_mols>  (551) 
A3403a,A2290a

>  <distance_score>  (551) 
1.453453

>  <inspiration_score>  (551) 
None

$$$$
P498945
     RDKit          3D

 22 24  0  0  0  0  0  0  0  0999 V2000
   12.7652   13.8543   20.1702 C   0  0  0  0  0  0  0  0  0  0  0  0
   12.5775   14.7580   21.3488 C   0  0  0  0  0  0  0  0  0  0  0  0
   11.1274   14.9277   21.7319 C   0  0  2  0  0  0  0  0  0  0  0  0
   10.5958   13.7514   22.3422 N   0  0  0  0  0  0  0  0  0  0  0  0
   10.2171   13.4706   23.7988 C   0  0  0  0  0  0  0  0  0  0  0  0
   10.3479   14.1254   24.7528 O   0  0  0  0  0  0  0  0  0  0  0  0
    9.6208   12.1418   23.9086 C   0  0  0  0  0  0  0  0  0  0  0  0
    9.9907   11.1237   23.1155 N   0  0  0  0  0  0  0  0  0  0  0  0
    9.3286   10.0657   23.6178 N   0  0  0  0  0  0  0  0  0  0  0  0
    9.5636    8.7657   23.0367 C   0  0  0  0  0  0  0  0  0  0  0  0
    8.4524   10.3930   24.6251 C   0  0  0  0  0  0  0  0  0  0  0  0
    7.5345    9.6454   25.3678 C   0  0  0  0  0  0  0  0  0  0  0  0
    6.7661   10.3104   26.3271 C   0  0  0  0  0  0  0  0  0  0  0  0
    6.9297   11.6718   26.5406 C   0  0  0  0  0  0  0  0  0  0  0  0
    6.1950   12.2761   27.4837 F   0  0  0  0  0  0  0  0  0  0  0  0
    7.8536   12.4150   25.8135 C   0  0  0  0  0  0  0  0  0  0  0  0
    8.6229   11.7558   24.8361 C   0  0  0  0  0  0  0  0  0  0  0  0
   10.2066   15.5697   20.7409 C   0  0  0  0  0  0  0  0  0  0  0  0
   10.1831   15.6062   19.3637 C   0  0  0  0  0  0  0  0  0  0  0  0
    9.4209   16.6641   18.9627 O   0  0  0  0  0  0  0  0  0  0  0  0
    8.9408   17.1718   20.1241 C   0  0  0  0  0  0  0  0  0  0  0  0
    9.2966   16.4973   21.1855 N   0  0  0  0  0  0  0  0  0  0  0  0
  1  2  1  0
  3  2  1  6
  3  4  1  0
  4  5  1  0
  5  6  2  0
  5  7  1  0
  7  8  2  0
  8  9  1  0
  9 10  1  0
  9 11  1  0
 11 12  2  0
 12 13  1  0
 13 14  2  0
 14 15  1  0
 14 16  1  0
 16 17  2  0
  3 18  1  0
 18 19  2  0
 19 20  1  0
 20 21  1  0
 21 22  2  0
 17  7  1  0
 22 18  1  0
 17 11  1  0
M  END
>  <energy_score>  (552) 
-23.28394

>  <inchikey>  (552) 
None

>  <smiles>  (552) 
None

>  <ref_pdb>  (552) 
A2290a

>  <alias>  (552) 
None

>  <HIPPO Pose ID>  (552) 
498945

>  <name>  (552) 
P498945

>  <HIPPO Compound ID>  (552) 
299219

>  <ref_mols>  (552) 
A3403a,A2290a

>  <distance_score>  (552) 
0.849802

>  <inspiration_score>  (552) 
None

$$$$
P498948
     RDKit          3D

 22 24  0  0  0  0  0  0  0  0999 V2000
    9.6920    8.9797   23.1075 C   0  0  0  0  0  0  0  0  0  0  0  0
    9.3401   10.2147   23.7735 N   0  0  0  0  0  0  0  0  0  0  0  0
    9.8626   11.3787   23.3275 N   0  0  0  0  0  0  0  0  0  0  0  0
    9.2684   12.3113   24.0926 C   0  0  0  0  0  0  0  0  0  0  0  0
    9.2292   13.7340   23.7593 C   0  0  0  0  0  0  0  0  0  0  0  0
    8.8711   14.5136   24.5474 O   0  0  0  0  0  0  0  0  0  0  0  0
    9.6118   13.9139   22.2852 N   0  0  0  0  0  0  0  0  0  0  0  0
    9.5500   14.9943   21.4956 N   0  0  0  0  0  0  0  0  0  0  0  0
   10.2381   15.2919   20.1619 C   0  0  0  0  0  0  0  0  0  0  0  0
   11.0296   14.6811   19.5691 O   0  0  0  0  0  0  0  0  0  0  0  0
    9.6047   16.5180   19.6934 C   0  0  0  0  0  0  0  0  0  0  0  0
    9.6891   17.1130   18.4654 C   0  0  0  0  0  0  0  0  0  0  0  0
    8.8800   18.2078   18.4653 O   0  0  0  0  0  0  0  0  0  0  0  0
    8.3602   18.2482   19.7216 C   0  0  0  0  0  0  0  0  0  0  0  0
    8.7469   17.2639   20.5018 N   0  0  0  0  0  0  0  0  0  0  0  0
    8.4194   11.7406   25.0708 C   0  0  0  0  0  0  0  0  0  0  0  0
    7.5445   12.2528   26.0494 C   0  0  0  0  0  0  0  0  0  0  0  0
    6.6925   11.3747   26.7032 C   0  0  0  0  0  0  0  0  0  0  0  0
    5.8548   11.8412   27.6388 F   0  0  0  0  0  0  0  0  0  0  0  0
    6.6846   10.0244   26.3975 C   0  0  0  0  0  0  0  0  0  0  0  0
    7.5566    9.5073   25.4339 C   0  0  0  0  0  0  0  0  0  0  0  0
    8.4227   10.3848   24.7834 C   0  0  0  0  0  0  0  0  0  0  0  0
  1  2  1  0
  2  3  1  0
  3  4  2  0
  4  5  1  0
  5  6  2  0
  5  7  1  0
  7  8  1  0
  8  9  1  0
  9 10  2  0
  9 11  1  0
 11 12  2  0
 12 13  1  0
 13 14  1  0
 14 15  2  0
  4 16  1  0
 16 17  2  0
 17 18  1  0
 18 19  1  0
 18 20  2  0
 20 21  1  0
 21 22  2  0
 22  2  1  0
 15 11  1  0
 22 16  1  0
M  END
>  <energy_score>  (553) 
-6.37942

>  <inchikey>  (553) 
None

>  <smiles>  (553) 
None

>  <ref_pdb>  (553) 
A2290a

>  <alias>  (553) 
None

>  <HIPPO Pose ID>  (553) 
498948

>  <name>  (553) 
P498948

>  <HIPPO Compound ID>  (553) 
299223

>  <ref_mols>  (553) 
A3403a,A2290a

>  <distance_score>  (553) 
1.462612

>  <inspiration_score>  (553) 
None

$$$$
P498949
     RDKit          3D

 22 24  0  0  0  0  0  0  0  0999 V2000
   12.1678   14.7551   17.9681 C   0  0  0  0  0  0  0  0  0  0  0  0
   11.4043   14.1863   19.0684 C   0  0  0  0  0  0  0  0  0  0  0  0
   10.5800   15.1150   19.7886 C   0  0  0  0  0  0  0  0  0  0  0  0
    9.7452   15.9512   19.1191 O   0  0  0  0  0  0  0  0  0  0  0  0
    9.2619   16.7462   20.1040 C   0  0  0  0  0  0  0  0  0  0  0  0
    9.6586   16.4098   21.3032 N   0  0  0  0  0  0  0  0  0  0  0  0
   10.5700   15.4135   21.1172 C   0  0  0  0  0  0  0  0  0  0  0  0
   11.4554   14.8518   22.1626 C   0  0  0  0  0  0  0  0  0  0  0  0
   10.7962   13.7323   22.7425 N   0  0  0  0  0  0  0  0  0  0  0  0
   10.3991   13.4550   24.1893 C   0  0  0  0  0  0  0  0  0  0  0  0
   10.4757   14.1281   25.1356 O   0  0  0  0  0  0  0  0  0  0  0  0
    9.7557   12.1415   24.2288 C   0  0  0  0  0  0  0  0  0  0  0  0
   10.1391   11.1482   23.4082 N   0  0  0  0  0  0  0  0  0  0  0  0
    9.3565   10.1104   23.7610 N   0  0  0  0  0  0  0  0  0  0  0  0
    9.5385    8.8456   23.0863 C   0  0  0  0  0  0  0  0  0  0  0  0
    8.4479   10.4222   24.7455 C   0  0  0  0  0  0  0  0  0  0  0  0
    7.4561    9.6799   25.3927 C   0  0  0  0  0  0  0  0  0  0  0  0
    6.6573   10.3296   26.3373 C   0  0  0  0  0  0  0  0  0  0  0  0
    6.8554   11.6727   26.6232 C   0  0  0  0  0  0  0  0  0  0  0  0
    6.0850   12.2642   27.5463 F   0  0  0  0  0  0  0  0  0  0  0  0
    7.8540   12.4094   25.9950 C   0  0  0  0  0  0  0  0  0  0  0  0
    8.6689   11.7614   25.0485 C   0  0  0  0  0  0  0  0  0  0  0  0
  1  2  1  0
  2  3  1  0
  3  4  1  0
  4  5  1  0
  5  6  2  0
  6  7  1  0
  7  8  1  0
  8  9  1  0
  9 10  1  0
 10 11  2  0
 10 12  1  0
 12 13  2  0
 13 14  1  0
 14 15  1  0
 14 16  1  0
 16 17  2  0
 17 18  1  0
 18 19  2  0
 19 20  1  0
 19 21  1  0
 21 22  2  0
  7  3  2  0
 22 12  1  0
 22 16  1  0
M  END
>  <energy_score>  (554) 
-9.946014

>  <inchikey>  (554) 
None

>  <smiles>  (554) 
None

>  <ref_pdb>  (554) 
A2290a

>  <alias>  (554) 
None

>  <HIPPO Pose ID>  (554) 
498949

>  <name>  (554) 
P498949

>  <HIPPO Compound ID>  (554) 
299224

>  <ref_mols>  (554) 
A3403a,A2290a

>  <distance_score>  (554) 
0.852621

>  <inspiration_score>  (554) 
None

$$$$
P498950
     RDKit          3D

 22 25  0  0  0  0  0  0  0  0999 V2000
    9.4017    8.6200   23.0810 C   0  0  0  0  0  0  0  0  0  0  0  0
    9.2475    9.9120   23.7029 N   0  0  0  0  0  0  0  0  0  0  0  0
    9.9542   10.9325   23.2017 N   0  0  0  0  0  0  0  0  0  0  0  0
    9.5505   11.9945   23.9139 C   0  0  0  0  0  0  0  0  0  0  0  0
   10.0671   13.3204   23.6219 C   0  0  0  0  0  0  0  0  0  0  0  0
    9.9484   14.2009   24.3751 O   0  0  0  0  0  0  0  0  0  0  0  0
   10.6393   13.2987   22.1997 N   0  0  0  0  0  0  0  0  0  0  0  0
   11.2566   14.3046   21.4550 C   0  0  0  0  0  0  0  0  0  0  0  0
   10.3081   15.2281   20.6354 C   0  0  0  0  0  0  0  0  0  0  0  0
   10.3388   15.4294   19.2828 C   0  0  0  0  0  0  0  0  0  0  0  0
    9.5783   16.5255   19.0057 O   0  0  0  0  0  0  0  0  0  0  0  0
    9.1066   16.9030   20.2249 C   0  0  0  0  0  0  0  0  0  0  0  0
    9.4586   16.1177   21.2139 N   0  0  0  0  0  0  0  0  0  0  0  0
   12.3808   14.9689   22.0939 C   0  0  0  0  0  0  0  0  0  0  0  0
   12.6757   14.0624   20.9281 C   0  0  0  0  0  0  0  0  0  0  0  0
    8.5707   11.6573   24.8703 C   0  0  0  0  0  0  0  0  0  0  0  0
    7.8015   12.3656   25.8125 C   0  0  0  0  0  0  0  0  0  0  0  0
    6.8639   11.6639   26.5615 C   0  0  0  0  0  0  0  0  0  0  0  0
    6.1317   12.3133   27.4761 F   0  0  0  0  0  0  0  0  0  0  0  0
    6.6760   10.3006   26.3896 C   0  0  0  0  0  0  0  0  0  0  0  0
    7.4345    9.5929   25.4533 C   0  0  0  0  0  0  0  0  0  0  0  0
    8.3813   10.2901   24.7023 C   0  0  0  0  0  0  0  0  0  0  0  0
  1  2  1  0
  2  3  1  0
  3  4  2  0
  4  5  1  0
  5  6  2  0
  5  7  1  0
  7  8  1  0
  8  9  1  0
  9 10  2  0
 10 11  1  0
 11 12  1  0
 12 13  2  0
  8 14  1  0
 14 15  1  0
  4 16  1  0
 16 17  2  0
 17 18  1  0
 18 19  1  0
 18 20  2  0
 20 21  1  0
 21 22  2  0
 22  2  1  0
 15  8  1  0
 22 16  1  0
 13  9  1  0
M  END
>  <energy_score>  (555) 
-6.873966

>  <inchikey>  (555) 
None

>  <smiles>  (555) 
None

>  <ref_pdb>  (555) 
A2290a

>  <alias>  (555) 
None

>  <HIPPO Pose ID>  (555) 
498950

>  <name>  (555) 
P498950

>  <HIPPO Compound ID>  (555) 
299225

>  <ref_mols>  (555) 
A3403a,A2290a

>  <distance_score>  (555) 
0.820738

>  <inspiration_score>  (555) 
None

$$$$
P498959
     RDKit          3D

 23 25  0  0  0  0  0  0  0  0999 V2000
   12.8221   14.8790   22.1413 C   0  0  0  0  0  0  0  0  0  0  0  0
   11.8633   14.0458   21.3440 C   0  0  1  0  0  0  0  0  0  0  0  0
   11.2021   13.0792   22.1641 N   0  0  0  0  0  0  0  0  0  0  0  0
   10.5861   13.2123   23.5624 C   0  0  0  0  0  0  0  0  0  0  0  0
   10.5847   14.1099   24.3053 O   0  0  0  0  0  0  0  0  0  0  0  0
    9.8648   11.9692   23.8488 C   0  0  0  0  0  0  0  0  0  0  0  0
   10.1611   10.8551   23.1636 N   0  0  0  0  0  0  0  0  0  0  0  0
    9.3478    9.9210   23.6636 N   0  0  0  0  0  0  0  0  0  0  0  0
    9.4000    8.6068   23.0751 C   0  0  0  0  0  0  0  0  0  0  0  0
    8.4990   10.3945   24.6351 C   0  0  0  0  0  0  0  0  0  0  0  0
    7.4905    9.7818   25.3872 C   0  0  0  0  0  0  0  0  0  0  0  0
    6.7470   10.5759   26.2634 C   0  0  0  0  0  0  0  0  0  0  0  0
    7.0248   11.9409   26.3822 C   0  0  0  0  0  0  0  0  0  0  0  0
    6.2391   12.7497   27.3150 N   0  0  0  0  0  0  0  0  0  0  0  0
    6.7679   13.7761   27.7660 O   0  0  0  0  0  0  0  0  0  0  0  0
    5.1156   12.3332   27.6346 O   0  0  0  0  0  0  0  0  0  0  0  0
    8.0558   12.5490   25.6497 C   0  0  0  0  0  0  0  0  0  0  0  0
    8.8020   11.7495   24.7619 C   0  0  0  0  0  0  0  0  0  0  0  0
   10.8405   14.8755   20.6626 C   0  0  0  0  0  0  0  0  0  0  0  0
   10.6832   15.1117   19.3201 C   0  0  0  0  0  0  0  0  0  0  0  0
    9.7417   16.0824   19.1648 O   0  0  0  0  0  0  0  0  0  0  0  0
    9.3667   16.3770   20.4360 C   0  0  0  0  0  0  0  0  0  0  0  0
    9.9382   15.6420   21.3601 N   0  0  0  0  0  0  0  0  0  0  0  0
  2  1  1  1
  2  3  1  0
  3  4  1  0
  4  5  2  0
  4  6  1  0
  6  7  2  0
  7  8  1  0
  8  9  1  0
  8 10  1  0
 10 11  2  0
 11 12  1  0
 12 13  2  0
 13 14  1  0
 14 15  2  0
 14 16  1  0
 13 17  1  0
 17 18  2  0
  2 19  1  0
 19 20  2  0
 20 21  1  0
 21 22  1  0
 22 23  2  0
 18  6  1  0
 23 19  1  0
 18 10  1  0
M  CHG  2  14   1  16  -1
M  END
>  <energy_score>  (556) 
-42.633561

>  <inchikey>  (556) 
None

>  <smiles>  (556) 
None

>  <ref_pdb>  (556) 
A2290a

>  <alias>  (556) 
None

>  <HIPPO Pose ID>  (556) 
498959

>  <name>  (556) 
P498959

>  <HIPPO Compound ID>  (556) 
299234

>  <ref_mols>  (556) 
A3403a,A2290a

>  <distance_score>  (556) 
0.684528

>  <inspiration_score>  (556) 
None

$$$$
P498962
     RDKit          3D

 23 25  0  0  0  0  0  0  0  0999 V2000
    9.4280    8.6864   23.0867 C   0  0  0  0  0  0  0  0  0  0  0  0
    9.3501    9.9724   23.7349 N   0  0  0  0  0  0  0  0  0  0  0  0
   10.1958   10.9305   23.3321 N   0  0  0  0  0  0  0  0  0  0  0  0
    9.8834   11.9946   24.0896 C   0  0  0  0  0  0  0  0  0  0  0  0
   10.6319   13.2461   23.9479 C   0  0  0  0  0  0  0  0  0  0  0  0
   10.6238   14.0675   24.7730 O   0  0  0  0  0  0  0  0  0  0  0  0
   11.2618   13.2458   22.5549 N   0  0  0  0  0  0  0  0  0  0  0  0
   11.9299   14.2773   21.8439 C   0  0  0  0  0  0  0  0  0  0  0  0
   10.9160   14.9410   20.9913 C   0  0  0  0  0  0  0  0  0  0  0  0
    9.8831   15.6550   21.5317 N   0  0  0  0  0  0  0  0  0  0  0  0
    9.3462   16.2794   20.5127 C   0  0  0  0  0  0  0  0  0  0  0  0
    9.8394   15.9120   19.3039 O   0  0  0  0  0  0  0  0  0  0  0  0
   10.8443   15.0392   19.6241 C   0  0  0  0  0  0  0  0  0  0  0  0
   11.6975   14.5348   18.5560 C   0  0  0  0  0  0  0  0  0  0  0  0
   11.1276   13.4937   17.9216 F   0  0  0  0  0  0  0  0  0  0  0  0
   12.8474   14.0284   19.0818 F   0  0  0  0  0  0  0  0  0  0  0  0
    8.7797   11.7281   24.9354 C   0  0  0  0  0  0  0  0  0  0  0  0
    8.0092   12.4726   25.8496 C   0  0  0  0  0  0  0  0  0  0  0  0
    6.9734   11.8308   26.5310 C   0  0  0  0  0  0  0  0  0  0  0  0
    5.9388   12.8035   27.7799 Br  0  0  0  0  0  0  0  0  0  0  0  0
    6.7012   10.4827   26.3209 C   0  0  0  0  0  0  0  0  0  0  0  0
    7.4519    9.7394   25.4057 C   0  0  0  0  0  0  0  0  0  0  0  0
    8.4767   10.3879   24.7109 C   0  0  0  0  0  0  0  0  0  0  0  0
  1  2  1  0
  2  3  1  0
  3  4  2  0
  4  5  1  0
  5  6  2  0
  5  7  1  0
  7  8  1  0
  8  9  1  0
  9 10  1  0
 10 11  2  0
 11 12  1  0
 12 13  1  0
 13 14  1  0
 14 15  1  0
 14 16  1  0
  4 17  1  0
 17 18  2  0
 18 19  1  0
 19 20  1  0
 19 21  2  0
 21 22  1  0
 22 23  2  0
 23  2  1  0
 13  9  2  0
 23 17  1  0
M  END
>  <energy_score>  (557) 
-34.487028

>  <inchikey>  (557) 
None

>  <smiles>  (557) 
None

>  <ref_pdb>  (557) 
A2290a

>  <alias>  (557) 
None

>  <HIPPO Pose ID>  (557) 
498962

>  <name>  (557) 
P498962

>  <HIPPO Compound ID>  (557) 
299238

>  <ref_mols>  (557) 
A3403a,A2290a

>  <distance_score>  (557) 
0.775454

>  <inspiration_score>  (557) 
None

$$$$
P498965
     RDKit          3D

 23 25  0  0  0  0  0  0  0  0999 V2000
    8.5988   17.4501   20.6233 C   0  0  0  0  0  0  0  0  0  0  0  0
    9.5025   16.2961   20.5109 C   0  0  0  0  0  0  0  0  0  0  0  0
    9.9526   15.5280   21.4805 N   0  0  0  0  0  0  0  0  0  0  0  0
   10.8879   14.7414   20.8701 C   0  0  0  0  0  0  0  0  0  0  0  0
   11.8320   13.8844   21.6158 C   0  0  1  0  0  0  0  0  0  0  0  0
   12.7946   14.7051   22.4130 C   0  0  0  0  0  0  0  0  0  0  0  0
   11.0759   12.9901   22.4187 N   0  0  0  0  0  0  0  0  0  0  0  0
   10.4595   13.1780   23.8051 C   0  0  0  0  0  0  0  0  0  0  0  0
   10.5344   14.0690   24.5506 O   0  0  0  0  0  0  0  0  0  0  0  0
    9.6778   11.9771   24.0771 C   0  0  0  0  0  0  0  0  0  0  0  0
    9.9346   10.8524   23.3863 N   0  0  0  0  0  0  0  0  0  0  0  0
    9.1143    9.9496   23.9226 N   0  0  0  0  0  0  0  0  0  0  0  0
    9.2525    8.5824   23.5041 C   0  0  0  0  0  0  0  0  0  0  0  0
    8.2639   10.4616   24.8704 C   0  0  0  0  0  0  0  0  0  0  0  0
    7.2368    9.8922   25.6297 C   0  0  0  0  0  0  0  0  0  0  0  0
    6.5467   10.7195   26.5192 C   0  0  0  0  0  0  0  0  0  0  0  0
    6.8763   12.0670   26.6378 C   0  0  0  0  0  0  0  0  0  0  0  0
    5.9213   13.1507   27.8587 Br  0  0  0  0  0  0  0  0  0  0  0  0
    7.9055   12.6303   25.8813 C   0  0  0  0  0  0  0  0  0  0  0  0
    8.6114   11.8040   24.9881 C   0  0  0  0  0  0  0  0  0  0  0  0
   10.8764   14.9918   19.5268 C   0  0  0  0  0  0  0  0  0  0  0  0
   11.7262   14.5142   18.4468 C   0  0  0  0  0  0  0  0  0  0  0  0
    9.9660   15.9721   19.2705 O   0  0  0  0  0  0  0  0  0  0  0  0
  1  2  1  0
  2  3  2  0
  3  4  1  0
  4  5  1  0
  5  6  1  1
  5  7  1  0
  7  8  1  0
  8  9  2  0
  8 10  1  0
 10 11  2  0
 11 12  1  0
 12 13  1  0
 12 14  1  0
 14 15  2  0
 15 16  1  0
 16 17  2  0
 17 18  1  0
 17 19  1  0
 19 20  2  0
  4 21  2  0
 21 22  1  0
 21 23  1  0
 23  2  1  0
 20 10  1  0
 20 14  1  0
M  END
>  <energy_score>  (558) 
-34.840225

>  <inchikey>  (558) 
None

>  <smiles>  (558) 
None

>  <ref_pdb>  (558) 
A2290a

>  <alias>  (558) 
None

>  <HIPPO Pose ID>  (558) 
498965

>  <name>  (558) 
P498965

>  <HIPPO Compound ID>  (558) 
299248

>  <ref_mols>  (558) 
A3403a,A2290a

>  <distance_score>  (558) 
0.798414

>  <inspiration_score>  (558) 
None

$$$$
P498971
     RDKit          3D

 23 25  0  0  0  0  0  0  0  0999 V2000
    8.5971   17.4291   20.6458 C   0  0  0  0  0  0  0  0  0  0  0  0
    9.5020   16.2767   20.5237 C   0  0  0  0  0  0  0  0  0  0  0  0
    9.9629   15.5070   21.4876 N   0  0  0  0  0  0  0  0  0  0  0  0
   10.9027   14.7331   20.8684 C   0  0  0  0  0  0  0  0  0  0  0  0
   11.8764   13.8978   21.6003 C   0  0  1  0  0  0  0  0  0  0  0  0
   12.8263   14.7387   22.3880 C   0  0  0  0  0  0  0  0  0  0  0  0
   11.1678   12.9715   22.4082 N   0  0  0  0  0  0  0  0  0  0  0  0
   10.5177   13.1440   23.7825 C   0  0  0  0  0  0  0  0  0  0  0  0
   10.5226   14.0516   24.5118 O   0  0  0  0  0  0  0  0  0  0  0  0
    9.7681   11.9174   24.0362 C   0  0  0  0  0  0  0  0  0  0  0  0
   10.0540   10.8185   23.3188 N   0  0  0  0  0  0  0  0  0  0  0  0
    9.2243    9.8861   23.7854 N   0  0  0  0  0  0  0  0  0  0  0  0
    9.2795    8.5905   23.1603 C   0  0  0  0  0  0  0  0  0  0  0  0
    8.3751   10.3481   24.7614 C   0  0  0  0  0  0  0  0  0  0  0  0
    7.3520    9.7419   25.4964 C   0  0  0  0  0  0  0  0  0  0  0  0
    6.6430   10.5283   26.4078 C   0  0  0  0  0  0  0  0  0  0  0  0
    6.9500   11.8725   26.5687 C   0  0  0  0  0  0  0  0  0  0  0  0
    6.2605   12.5957   27.4610 F   0  0  0  0  0  0  0  0  0  0  0  0
    7.9704   12.4791   25.8424 C   0  0  0  0  0  0  0  0  0  0  0  0
    8.7001   11.6941   24.9319 C   0  0  0  0  0  0  0  0  0  0  0  0
   10.8773   14.9856   19.5255 C   0  0  0  0  0  0  0  0  0  0  0  0
   11.7258   14.5196   18.4394 C   0  0  0  0  0  0  0  0  0  0  0  0
    9.9575   15.9589   19.2786 O   0  0  0  0  0  0  0  0  0  0  0  0
  1  2  1  0
  2  3  2  0
  3  4  1  0
  4  5  1  0
  5  6  1  1
  5  7  1  0
  7  8  1  0
  8  9  2  0
  8 10  1  0
 10 11  2  0
 11 12  1  0
 12 13  1  0
 12 14  1  0
 14 15  2  0
 15 16  1  0
 16 17  2  0
 17 18  1  0
 17 19  1  0
 19 20  2  0
  4 21  2  0
 21 22  1  0
 21 23  1  0
 23  2  1  0
 20 10  1  0
 20 14  1  0
M  END
>  <energy_score>  (559) 
-7.691867

>  <inchikey>  (559) 
None

>  <smiles>  (559) 
None

>  <ref_pdb>  (559) 
A2290a

>  <alias>  (559) 
None

>  <HIPPO Pose ID>  (559) 
498971

>  <name>  (559) 
P498971

>  <HIPPO Compound ID>  (559) 
299254

>  <ref_mols>  (559) 
A3403a,A2290a

>  <distance_score>  (559) 
0.784659

>  <inspiration_score>  (559) 
None

$$$$
P498975
     RDKit          3D

 24 27  0  0  0  0  0  0  0  0999 V2000
   11.7888   14.2757   18.6240 C   0  0  0  0  0  0  0  0  0  0  0  0
   10.8470   14.9637   19.4818 C   0  0  0  0  0  0  0  0  0  0  0  0
    9.9497   15.7294   18.8279 O   0  0  0  0  0  0  0  0  0  0  0  0
    9.4435   16.5316   19.7844 C   0  0  0  0  0  0  0  0  0  0  0  0
    8.9091   17.9185   19.3669 C   0  0  0  0  0  0  0  0  0  0  0  0
    7.5390   18.4734   19.4033 C   0  0  0  0  0  0  0  0  0  0  0  0
    8.4452   18.7543   20.5205 C   0  0  0  0  0  0  0  0  0  0  0  0
    9.7695   16.1614   21.0110 N   0  0  0  0  0  0  0  0  0  0  0  0
   10.7273   15.1848   20.8275 C   0  0  0  0  0  0  0  0  0  0  0  0
   11.6135   14.6950   21.9071 C   0  0  0  0  0  0  0  0  0  0  0  0
   10.9994   13.5785   22.5430 N   0  0  0  0  0  0  0  0  0  0  0  0
   10.4953   13.4043   23.9753 C   0  0  0  0  0  0  0  0  0  0  0  0
   10.5680   14.1165   24.8933 O   0  0  0  0  0  0  0  0  0  0  0  0
    9.8059   12.1140   24.0679 C   0  0  0  0  0  0  0  0  0  0  0  0
   10.1485   11.0817   23.2784 N   0  0  0  0  0  0  0  0  0  0  0  0
    9.3662   10.0717   23.6975 N   0  0  0  0  0  0  0  0  0  0  0  0
    9.5171    8.7802   23.0704 C   0  0  0  0  0  0  0  0  0  0  0  0
    8.4835   10.4342   24.6867 C   0  0  0  0  0  0  0  0  0  0  0  0
    7.4948    9.7300   25.3824 C   0  0  0  0  0  0  0  0  0  0  0  0
    6.7305   10.4264   26.3220 C   0  0  0  0  0  0  0  0  0  0  0  0
    6.9599   11.7749   26.5565 C   0  0  0  0  0  0  0  0  0  0  0  0
    6.2248   12.4107   27.4788 F   0  0  0  0  0  0  0  0  0  0  0  0
    7.9543   12.4732   25.8775 C   0  0  0  0  0  0  0  0  0  0  0  0
    8.7331   11.7814   24.9312 C   0  0  0  0  0  0  0  0  0  0  0  0
  1  2  1  0
  2  3  1  0
  3  4  1  0
  4  5  1  0
  5  6  1  0
  6  7  1  0
  4  8  2  0
  8  9  1  0
  9 10  1  0
 10 11  1  0
 11 12  1  0
 12 13  2  0
 12 14  1  0
 14 15  2  0
 15 16  1  0
 16 17  1  0
 16 18  1  0
 18 19  2  0
 19 20  1  0
 20 21  2  0
 21 22  1  0
 21 23  1  0
 23 24  2  0
  9  2  2  0
 24 14  1  0
  7  5  1  0
 24 18  1  0
M  END
>  <energy_score>  (560) 
-19.449693

>  <inchikey>  (560) 
None

>  <smiles>  (560) 
None

>  <ref_pdb>  (560) 
A2290a

>  <alias>  (560) 
None

>  <HIPPO Pose ID>  (560) 
498975

>  <name>  (560) 
P498975

>  <HIPPO Compound ID>  (560) 
299263

>  <ref_mols>  (560) 
A3403a,A2290a

>  <distance_score>  (560) 
0.740246

>  <inspiration_score>  (560) 
None

$$$$
P498976
     RDKit          3D

 24 26  0  0  0  0  0  0  0  0999 V2000
   11.7738   14.3797   18.5645 C   0  0  0  0  0  0  0  0  0  0  0  0
   10.9222   14.9796   19.5765 C   0  0  0  0  0  0  0  0  0  0  0  0
    9.9676   15.8375   19.1336 O   0  0  0  0  0  0  0  0  0  0  0  0
    9.4715   16.3909   20.2719 C   0  0  0  0  0  0  0  0  0  0  0  0
    8.5266   17.5239   20.1085 C   0  0  0  0  0  0  0  0  0  0  0  0
    8.5329   18.1609   18.7321 C   0  0  0  0  0  0  0  0  0  0  0  0
    8.6041   18.5150   21.2047 C   0  0  0  0  0  0  0  0  0  0  0  0
    9.9298   15.8313   21.3722 N   0  0  0  0  0  0  0  0  0  0  0  0
   10.9357   15.0048   20.9462 C   0  0  0  0  0  0  0  0  0  0  0  0
   11.9044   14.3926   21.8802 C   0  0  0  0  0  0  0  0  0  0  0  0
   11.2418   13.3350   22.5605 N   0  0  0  0  0  0  0  0  0  0  0  0
   10.6076   13.2911   23.9507 C   0  0  0  0  0  0  0  0  0  0  0  0
   10.5901   14.0889   24.7983 O   0  0  0  0  0  0  0  0  0  0  0  0
    9.8695   12.0299   24.0670 C   0  0  0  0  0  0  0  0  0  0  0  0
   10.1900   10.9774   23.2973 N   0  0  0  0  0  0  0  0  0  0  0  0
    9.3687    9.9994   23.7047 N   0  0  0  0  0  0  0  0  0  0  0  0
    9.4764    8.7107   23.0636 C   0  0  0  0  0  0  0  0  0  0  0  0
    8.4900   10.3961   24.6850 C   0  0  0  0  0  0  0  0  0  0  0  0
    7.4809    9.7251   25.3840 C   0  0  0  0  0  0  0  0  0  0  0  0
    6.7284   10.4517   26.3099 C   0  0  0  0  0  0  0  0  0  0  0  0
    6.9851   11.7989   26.5241 C   0  0  0  0  0  0  0  0  0  0  0  0
    6.2562   12.4644   27.4301 F   0  0  0  0  0  0  0  0  0  0  0  0
    8.0000   12.4647   25.8426 C   0  0  0  0  0  0  0  0  0  0  0  0
    8.7730   11.7406   24.9158 C   0  0  0  0  0  0  0  0  0  0  0  0
  1  2  1  0
  2  3  1  0
  3  4  1  0
  4  5  1  0
  5  6  1  0
  5  7  1  0
  4  8  2  0
  8  9  1  0
  9 10  1  0
 10 11  1  0
 11 12  1  0
 12 13  2  0
 12 14  1  0
 14 15  2  0
 15 16  1  0
 16 17  1  0
 16 18  1  0
 18 19  2  0
 19 20  1  0
 20 21  2  0
 21 22  1  0
 21 23  1  0
 23 24  2  0
  9  2  2  0
 24 14  1  0
 24 18  1  0
M  END
>  <energy_score>  (561) 
-12.005461

>  <inchikey>  (561) 
None

>  <smiles>  (561) 
None

>  <ref_pdb>  (561) 
A2290a

>  <alias>  (561) 
None

>  <HIPPO Pose ID>  (561) 
498976

>  <name>  (561) 
P498976

>  <HIPPO Compound ID>  (561) 
299264

>  <ref_mols>  (561) 
A3403a,A2290a

>  <distance_score>  (561) 
0.743637

>  <inspiration_score>  (561) 
None

$$$$
P498977
     RDKit          3D

 24 26  0  0  0  0  0  0  0  0999 V2000
    9.4574    8.7108   23.0852 C   0  0  0  0  0  0  0  0  0  0  0  0
    9.3518    9.9973   23.7300 N   0  0  0  0  0  0  0  0  0  0  0  0
   10.1744   10.9754   23.3234 N   0  0  0  0  0  0  0  0  0  0  0  0
    9.8538   12.0252   24.0983 C   0  0  0  0  0  0  0  0  0  0  0  0
   10.5920   13.2845   23.9826 C   0  0  0  0  0  0  0  0  0  0  0  0
   10.6161   14.0674   24.8434 O   0  0  0  0  0  0  0  0  0  0  0  0
   11.1963   13.3344   22.5801 N   0  0  0  0  0  0  0  0  0  0  0  0
   11.8731   14.3831   21.9037 C   0  0  0  0  0  0  0  0  0  0  0  0
   10.8914   15.0100   20.9897 C   0  0  0  0  0  0  0  0  0  0  0  0
    9.8655   15.7774   21.4639 N   0  0  0  0  0  0  0  0  0  0  0  0
    9.3639   16.3545   20.4011 C   0  0  0  0  0  0  0  0  0  0  0  0
    9.8636   15.8953   19.2271 O   0  0  0  0  0  0  0  0  0  0  0  0
   10.8472   15.0235   19.6179 C   0  0  0  0  0  0  0  0  0  0  0  0
   11.7073   14.4172   18.6120 C   0  0  0  0  0  0  0  0  0  0  0  0
   12.7736   13.8035   19.1971 F   0  0  0  0  0  0  0  0  0  0  0  0
   12.2347   15.2969   17.7458 F   0  0  0  0  0  0  0  0  0  0  0  0
   11.0886   13.4597   17.9046 F   0  0  0  0  0  0  0  0  0  0  0  0
    8.7565   11.7367   24.9440 C   0  0  0  0  0  0  0  0  0  0  0  0
    7.9832   12.4610   25.8700 C   0  0  0  0  0  0  0  0  0  0  0  0
    6.9649   11.7964   26.5474 C   0  0  0  0  0  0  0  0  0  0  0  0
    6.2359   12.4626   27.4528 F   0  0  0  0  0  0  0  0  0  0  0  0
    6.7057   10.4504   26.3295 C   0  0  0  0  0  0  0  0  0  0  0  0
    7.4586    9.7242   25.4035 C   0  0  0  0  0  0  0  0  0  0  0  0
    8.4712   10.3937   24.7084 C   0  0  0  0  0  0  0  0  0  0  0  0
  1  2  1  0
  2  3  1  0
  3  4  2  0
  4  5  1  0
  5  6  2  0
  5  7  1  0
  7  8  1  0
  8  9  1  0
  9 10  1  0
 10 11  2  0
 11 12  1  0
 12 13  1  0
 13 14  1  0
 14 15  1  0
 14 16  1  0
 14 17  1  0
  4 18  1  0
 18 19  2  0
 19 20  1  0
 20 21  1  0
 20 22  2  0
 22 23  1  0
 23 24  2  0
 24  2  1  0
 13  9  2  0
 24 18  1  0
M  END
>  <energy_score>  (562) 
-36.883768

>  <inchikey>  (562) 
None

>  <smiles>  (562) 
None

>  <ref_pdb>  (562) 
A2290a

>  <alias>  (562) 
None

>  <HIPPO Pose ID>  (562) 
498977

>  <name>  (562) 
P498977

>  <HIPPO Compound ID>  (562) 
299266

>  <ref_mols>  (562) 
A3403a,A2290a

>  <distance_score>  (562) 
0.769355

>  <inspiration_score>  (562) 
None

$$$$
P498982
     RDKit          3D

 24 26  0  0  0  0  0  0  0  0999 V2000
    8.9431   17.3998   18.1315 C   0  0  0  0  0  0  0  0  0  0  0  0
    8.3043   17.6733   19.3997 N   0  0  0  0  0  0  0  0  0  0  0  0
    7.9675   19.0559   19.5333 C   0  0  0  0  0  0  0  0  0  0  0  0
    8.8739   17.1492   20.6343 C   0  0  0  0  0  0  0  0  0  0  0  0
    9.8038   15.9909   20.5852 C   0  0  0  0  0  0  0  0  0  0  0  0
   10.4407   15.4596   21.6047 N   0  0  0  0  0  0  0  0  0  0  0  0
   11.3743   14.6480   21.0240 C   0  0  0  0  0  0  0  0  0  0  0  0
   12.3201   13.8980   21.8562 C   0  0  0  0  0  0  0  0  0  0  0  0
   11.5296   12.9690   22.5853 N   0  0  0  0  0  0  0  0  0  0  0  0
   10.8122   13.1126   23.9290 C   0  0  0  0  0  0  0  0  0  0  0  0
   10.8138   13.9885   24.6964 O   0  0  0  0  0  0  0  0  0  0  0  0
    9.9676   11.9220   24.0833 C   0  0  0  0  0  0  0  0  0  0  0  0
   10.2166   10.8332   23.3351 N   0  0  0  0  0  0  0  0  0  0  0  0
    9.3336    9.9240   23.7562 N   0  0  0  0  0  0  0  0  0  0  0  0
    9.3600    8.6302   23.1230 C   0  0  0  0  0  0  0  0  0  0  0  0
    8.4768   10.3952   24.7200 C   0  0  0  0  0  0  0  0  0  0  0  0
    7.4256    9.8025   25.4269 C   0  0  0  0  0  0  0  0  0  0  0  0
    6.7088   10.5961   26.3266 C   0  0  0  0  0  0  0  0  0  0  0  0
    7.0379   11.9364   26.5081 C   0  0  0  0  0  0  0  0  0  0  0  0
    6.0456   12.9762   27.7371 Br  0  0  0  0  0  0  0  0  0  0  0  0
    8.1013   12.5207   25.8164 C   0  0  0  0  0  0  0  0  0  0  0  0
    8.8410   11.7264   24.9197 C   0  0  0  0  0  0  0  0  0  0  0  0
   11.2031   14.6447   19.6646 C   0  0  0  0  0  0  0  0  0  0  0  0
   10.1748   15.4721   19.3825 O   0  0  0  0  0  0  0  0  0  0  0  0
  1  2  1  0
  2  3  1  0
  2  4  1  0
  4  5  1  0
  5  6  2  0
  6  7  1  0
  7  8  1  0
  8  9  1  0
  9 10  1  0
 10 11  2  0
 10 12  1  0
 12 13  2  0
 13 14  1  0
 14 15  1  0
 14 16  1  0
 16 17  2  0
 17 18  1  0
 18 19  2  0
 19 20  1  0
 19 21  1  0
 21 22  2  0
  7 23  2  0
 23 24  1  0
 24  5  1  0
 22 12  1  0
 22 16  1  0
M  END
>  <energy_score>  (563) 
-31.820207

>  <inchikey>  (563) 
None

>  <smiles>  (563) 
None

>  <ref_pdb>  (563) 
A2290a

>  <alias>  (563) 
None

>  <HIPPO Pose ID>  (563) 
498982

>  <name>  (563) 
P498982

>  <HIPPO Compound ID>  (563) 
299272

>  <ref_mols>  (563) 
A3403a,A2290a

>  <distance_score>  (563) 
0.846388

>  <inspiration_score>  (563) 
None

$$$$
P498984
     RDKit          3D

 24 27  0  0  0  0  0  0  0  0999 V2000
    9.3929    8.6519   23.0985 C   0  0  0  0  0  0  0  0  0  0  0  0
    9.2686    9.9512   23.7118 N   0  0  0  0  0  0  0  0  0  0  0  0
   10.0168   10.9462   23.2205 N   0  0  0  0  0  0  0  0  0  0  0  0
    9.6389   12.0266   23.9206 C   0  0  0  0  0  0  0  0  0  0  0  0
   10.2305   13.3283   23.6348 C   0  0  0  0  0  0  0  0  0  0  0  0
   10.2199   14.1970   24.4102 O   0  0  0  0  0  0  0  0  0  0  0  0
   10.7728   13.2810   22.2021 N   0  0  0  0  0  0  0  0  0  0  0  0
   11.3199   14.2932   21.4008 C   0  0  0  0  0  0  0  0  0  0  0  0
   10.3229   15.2245   20.6597 C   0  0  0  0  0  0  0  0  0  0  0  0
   10.3034   15.4734   19.3133 C   0  0  0  0  0  0  0  0  0  0  0  0
    9.5229   16.5679   19.0994 O   0  0  0  0  0  0  0  0  0  0  0  0
    9.0716   16.8807   20.3445 C   0  0  0  0  0  0  0  0  0  0  0  0
    9.4584   16.0571   21.2895 N   0  0  0  0  0  0  0  0  0  0  0  0
   12.5760   13.9397   20.6565 C   0  0  0  0  0  0  0  0  0  0  0  0
   12.6415   14.8728   21.8100 C   0  0  0  0  0  0  0  0  0  0  0  0
    8.6184   11.7242   24.8499 C   0  0  0  0  0  0  0  0  0  0  0  0
    7.8381   12.4652   25.7582 C   0  0  0  0  0  0  0  0  0  0  0  0
    6.8453   11.7877   26.4788 C   0  0  0  0  0  0  0  0  0  0  0  0
    6.0151   12.5338   27.4227 N   0  0  0  0  0  0  0  0  0  0  0  0
    4.8837   12.0914   27.6702 O   0  0  0  0  0  0  0  0  0  0  0  0
    6.5154   13.5382   27.9492 O   0  0  0  0  0  0  0  0  0  0  0  0
    6.6402   10.4142   26.3291 C   0  0  0  0  0  0  0  0  0  0  0  0
    7.4247    9.6814   25.4350 C   0  0  0  0  0  0  0  0  0  0  0  0
    8.3982   10.3582   24.6957 C   0  0  0  0  0  0  0  0  0  0  0  0
  1  2  1  0
  2  3  1  0
  3  4  2  0
  4  5  1  0
  5  6  2  0
  5  7  1  0
  7  8  1  0
  8  9  1  0
  9 10  2  0
 10 11  1  0
 11 12  1  0
 12 13  2  0
  8 14  1  0
 14 15  1  0
  4 16  1  0
 16 17  2  0
 17 18  1  0
 18 19  1  0
 19 20  2  0
 19 21  1  0
 18 22  2  0
 22 23  1  0
 23 24  2  0
 24  2  1  0
 15  8  1  0
 24 16  1  0
 13  9  1  0
M  CHG  2  19   1  21  -1
M  END
>  <energy_score>  (564) 
-25.320006

>  <inchikey>  (564) 
None

>  <smiles>  (564) 
None

>  <ref_pdb>  (564) 
A2290a

>  <alias>  (564) 
None

>  <HIPPO Pose ID>  (564) 
498984

>  <name>  (564) 
P498984

>  <HIPPO Compound ID>  (564) 
299274

>  <ref_mols>  (564) 
A3403a,A2290a

>  <distance_score>  (564) 
0.774687

>  <inspiration_score>  (564) 
None

$$$$
P498986
     RDKit          3D

 24 26  0  0  0  0  0  0  0  0999 V2000
   12.7676   13.8543   20.1674 C   0  0  0  0  0  0  0  0  0  0  0  0
   12.5830   14.7591   21.3458 C   0  0  0  0  0  0  0  0  0  0  0  0
   11.1339   14.9280   21.7320 C   0  0  2  0  0  0  0  0  0  0  0  0
   10.6064   13.7501   22.3429 N   0  0  0  0  0  0  0  0  0  0  0  0
   10.2463   13.4625   23.8026 C   0  0  0  0  0  0  0  0  0  0  0  0
   10.3920   14.1115   24.7584 O   0  0  0  0  0  0  0  0  0  0  0  0
    9.6438   12.1370   23.9127 C   0  0  0  0  0  0  0  0  0  0  0  0
   10.0271   11.1119   23.1363 N   0  0  0  0  0  0  0  0  0  0  0  0
    9.3424   10.0620   23.6242 N   0  0  0  0  0  0  0  0  0  0  0  0
    9.5645    8.7619   23.0383 C   0  0  0  0  0  0  0  0  0  0  0  0
    8.4536   10.3986   24.6180 C   0  0  0  0  0  0  0  0  0  0  0  0
    7.5190    9.6554   25.3442 C   0  0  0  0  0  0  0  0  0  0  0  0
    6.7099   10.3257   26.2655 C   0  0  0  0  0  0  0  0  0  0  0  0
    6.8635   11.6998   26.4649 C   0  0  0  0  0  0  0  0  0  0  0  0
    6.0135   12.3769   27.4429 N   0  0  0  0  0  0  0  0  0  0  0  0
    4.9069   11.8745   27.6889 O   0  0  0  0  0  0  0  0  0  0  0  0
    6.4746   13.3841   27.9979 O   0  0  0  0  0  0  0  0  0  0  0  0
    7.8280   12.4385   25.7671 C   0  0  0  0  0  0  0  0  0  0  0  0
    8.6227   11.7626   24.8202 C   0  0  0  0  0  0  0  0  0  0  0  0
   10.2104   15.5678   20.7422 C   0  0  0  0  0  0  0  0  0  0  0  0
   10.1848   15.6054   19.3651 C   0  0  0  0  0  0  0  0  0  0  0  0
    9.4208   16.6627   18.9661 O   0  0  0  0  0  0  0  0  0  0  0  0
    8.9407   17.1681   20.1286 C   0  0  0  0  0  0  0  0  0  0  0  0
    9.2992   16.4930   21.1886 N   0  0  0  0  0  0  0  0  0  0  0  0
  1  2  1  0
  3  2  1  6
  3  4  1  0
  4  5  1  0
  5  6  2  0
  5  7  1  0
  7  8  2  0
  8  9  1  0
  9 10  1  0
  9 11  1  0
 11 12  2  0
 12 13  1  0
 13 14  2  0
 14 15  1  0
 15 16  2  0
 15 17  1  0
 14 18  1  0
 18 19  2  0
  3 20  1  0
 20 21  2  0
 21 22  1  0
 22 23  1  0
 23 24  2  0
 19  7  1  0
 24 20  1  0
 19 11  1  0
M  CHG  2  15   1  17  -1
M  END
>  <energy_score>  (565) 
-18.897584

>  <inchikey>  (565) 
None

>  <smiles>  (565) 
None

>  <ref_pdb>  (565) 
A2290a

>  <alias>  (565) 
None

>  <HIPPO Pose ID>  (565) 
498986

>  <name>  (565) 
P498986

>  <HIPPO Compound ID>  (565) 
299283

>  <ref_mols>  (565) 
A3403a,A2290a

>  <distance_score>  (565) 
0.832486

>  <inspiration_score>  (565) 
None

$$$$
P498988
     RDKit          3D

 24 26  0  0  0  0  0  0  0  0999 V2000
   12.1645   14.7623   17.9605 C   0  0  0  0  0  0  0  0  0  0  0  0
   11.4202   14.1717   19.0619 C   0  0  0  0  0  0  0  0  0  0  0  0
   10.5999   15.0835   19.8062 C   0  0  0  0  0  0  0  0  0  0  0  0
    9.7422   15.9125   19.1568 O   0  0  0  0  0  0  0  0  0  0  0  0
    9.2675   16.6945   20.1555 C   0  0  0  0  0  0  0  0  0  0  0  0
    9.6833   16.3470   21.3448 N   0  0  0  0  0  0  0  0  0  0  0  0
   10.6124   15.3744   21.1363 C   0  0  0  0  0  0  0  0  0  0  0  0
   11.5426   14.8441   22.1598 C   0  0  0  0  0  0  0  0  0  0  0  0
   10.9612   13.6837   22.7447 N   0  0  0  0  0  0  0  0  0  0  0  0
   10.4270   13.4446   24.1541 C   0  0  0  0  0  0  0  0  0  0  0  0
   10.4430   14.1305   25.0939 O   0  0  0  0  0  0  0  0  0  0  0  0
    9.7742   12.1344   24.1789 C   0  0  0  0  0  0  0  0  0  0  0  0
   10.1755   11.1345   23.3762 N   0  0  0  0  0  0  0  0  0  0  0  0
    9.3966   10.0950   23.7268 N   0  0  0  0  0  0  0  0  0  0  0  0
    9.5892    8.8277   23.0584 C   0  0  0  0  0  0  0  0  0  0  0  0
    8.4714   10.4102   24.6956 C   0  0  0  0  0  0  0  0  0  0  0  0
    7.4843    9.6590   25.3392 C   0  0  0  0  0  0  0  0  0  0  0  0
    6.6420   10.3084   26.2449 C   0  0  0  0  0  0  0  0  0  0  0  0
    6.8073   11.6713   26.5033 C   0  0  0  0  0  0  0  0  0  0  0  0
    5.9079   12.3283   27.4499 N   0  0  0  0  0  0  0  0  0  0  0  0
    4.7726   11.8488   27.5895 O   0  0  0  0  0  0  0  0  0  0  0  0
    6.3526   13.2964   28.0819 O   0  0  0  0  0  0  0  0  0  0  0  0
    7.8275   12.4150   25.8967 C   0  0  0  0  0  0  0  0  0  0  0  0
    8.6701   11.7570   24.9794 C   0  0  0  0  0  0  0  0  0  0  0  0
  1  2  1  0
  2  3  1  0
  3  4  1  0
  4  5  1  0
  5  6  2  0
  6  7  1  0
  7  8  1  0
  8  9  1  0
  9 10  1  0
 10 11  2  0
 10 12  1  0
 12 13  2  0
 13 14  1  0
 14 15  1  0
 14 16  1  0
 16 17  2  0
 17 18  1  0
 18 19  2  0
 19 20  1  0
 20 21  2  0
 20 22  1  0
 19 23  1  0
 23 24  2  0
  7  3  2  0
 24 12  1  0
 24 16  1  0
M  CHG  2  20   1  22  -1
M  END
>  <energy_score>  (566) 
-13.642335

>  <inchikey>  (566) 
None

>  <smiles>  (566) 
None

>  <ref_pdb>  (566) 
A2290a

>  <alias>  (566) 
None

>  <HIPPO Pose ID>  (566) 
498988

>  <name>  (566) 
P498988

>  <HIPPO Compound ID>  (566) 
299284

>  <ref_mols>  (566) 
A3403a,A2290a

>  <distance_score>  (566) 
0.820642

>  <inspiration_score>  (566) 
None

$$$$
P498992
     RDKit          3D

 24 26  0  0  0  0  0  0  0  0999 V2000
    5.6717   15.2932   27.8793 C   0  0  0  0  0  0  0  0  0  0  0  0
    6.4940   14.3783   27.1543 O   0  0  0  0  0  0  0  0  0  0  0  0
    6.1180   13.0805   27.2623 C   0  0  0  0  0  0  0  0  0  0  0  0
    5.2222   12.6499   27.9725 O   0  0  0  0  0  0  0  0  0  0  0  0
    6.9670   12.2173   26.3961 C   0  0  0  0  0  0  0  0  0  0  0  0
    6.6801   10.8480   26.3436 C   0  0  0  0  0  0  0  0  0  0  0  0
    7.4083    9.9832   25.5190 C   0  0  0  0  0  0  0  0  0  0  0  0
    8.4344   10.5330   24.7414 C   0  0  0  0  0  0  0  0  0  0  0  0
    8.7610   11.8843   24.7972 C   0  0  0  0  0  0  0  0  0  0  0  0
    8.0216   12.7432   25.6330 C   0  0  0  0  0  0  0  0  0  0  0  0
    9.8388   12.0372   23.8888 C   0  0  0  0  0  0  0  0  0  0  0  0
   10.5961   13.2512   23.5815 C   0  0  0  0  0  0  0  0  0  0  0  0
   10.6935   14.1239   24.3470 O   0  0  0  0  0  0  0  0  0  0  0  0
   11.1391   13.1150   22.1553 N   0  0  0  0  0  0  0  0  0  0  0  0
   11.8345   14.0545   21.3319 C   0  0  2  0  0  0  0  0  0  0  0  0
   12.8114   14.8724   22.1265 C   0  0  0  0  0  0  0  0  0  0  0  0
   10.8285   14.9009   20.6478 C   0  0  0  0  0  0  0  0  0  0  0  0
   10.6707   15.1320   19.3050 C   0  0  0  0  0  0  0  0  0  0  0  0
    9.7374   16.1097   19.1466 O   0  0  0  0  0  0  0  0  0  0  0  0
    9.3652   16.4126   20.4167 C   0  0  0  0  0  0  0  0  0  0  0  0
    9.9370   15.6815   21.3439 N   0  0  0  0  0  0  0  0  0  0  0  0
   10.1199   10.8870   23.2558 N   0  0  0  0  0  0  0  0  0  0  0  0
    9.2960    9.9946   23.8166 N   0  0  0  0  0  0  0  0  0  0  0  0
    9.4378    8.6142   23.4374 C   0  0  0  0  0  0  0  0  0  0  0  0
  1  2  1  0
  2  3  1  0
  3  4  2  0
  3  5  1  0
  5  6  2  0
  6  7  1  0
  7  8  2  0
  8  9  1  0
  9 10  2  0
  9 11  1  0
 11 12  1  0
 12 13  2  0
 12 14  1  0
 14 15  1  0
 15 16  1  1
 15 17  1  0
 17 18  2  0
 18 19  1  0
 19 20  1  0
 20 21  2  0
 11 22  2  0
 22 23  1  0
 23 24  1  0
 10  5  1  0
 21 17  1  0
 23  8  1  0
M  END
>  <energy_score>  (567) 
-13.746397

>  <inchikey>  (567) 
None

>  <smiles>  (567) 
None

>  <ref_pdb>  (567) 
A2290a

>  <alias>  (567) 
None

>  <HIPPO Pose ID>  (567) 
498992

>  <name>  (567) 
P498992

>  <HIPPO Compound ID>  (567) 
299288

>  <ref_mols>  (567) 
A3403a,A2290a

>  <distance_score>  (567) 
0.690548

>  <inspiration_score>  (567) 
None

$$$$
P498998
     RDKit          3D

 24 26  0  0  0  0  0  0  0  0999 V2000
    7.4599   18.6192   19.2459 C   0  0  0  0  0  0  0  0  0  0  0  0
    8.7808   18.2827   19.8032 C   0  0  0  0  0  0  0  0  0  0  0  0
    9.2632   16.8830   19.9633 C   0  0  0  0  0  0  0  0  0  0  0  0
    9.6785   16.2901   21.0673 N   0  0  0  0  0  0  0  0  0  0  0  0
   10.5356   15.3019   20.6385 C   0  0  0  0  0  0  0  0  0  0  0  0
   11.5258   14.6599   21.5408 C   0  0  0  0  0  0  0  0  0  0  0  0
   10.9099   13.5808   22.2345 N   0  0  0  0  0  0  0  0  0  0  0  0
   10.5136   13.4411   23.7077 C   0  0  0  0  0  0  0  0  0  0  0  0
   10.5560   14.2136   24.5775 O   0  0  0  0  0  0  0  0  0  0  0  0
    9.9220   12.1183   23.9016 C   0  0  0  0  0  0  0  0  0  0  0  0
   10.3201   11.0851   23.1518 N   0  0  0  0  0  0  0  0  0  0  0  0
    9.5769   10.0364   23.5805 N   0  0  0  0  0  0  0  0  0  0  0  0
    9.7206    8.7353   22.9162 C   0  0  0  0  0  0  0  0  0  0  0  0
   10.0740    8.8804   21.6185 F   0  0  0  0  0  0  0  0  0  0  0  0
    8.5621    8.0477   22.9388 F   0  0  0  0  0  0  0  0  0  0  0  0
   10.6702    7.9590   23.4844 F   0  0  0  0  0  0  0  0  0  0  0  0
    8.6773   10.3946   24.5675 C   0  0  0  0  0  0  0  0  0  0  0  0
    7.7016    9.6793   25.2715 C   0  0  0  0  0  0  0  0  0  0  0  0
    6.9035   10.3701   26.1891 C   0  0  0  0  0  0  0  0  0  0  0  0
    7.0765   11.7335   26.4031 C   0  0  0  0  0  0  0  0  0  0  0  0
    8.0625   12.4389   25.7087 C   0  0  0  0  0  0  0  0  0  0  0  0
    8.8773   11.7555   24.7852 C   0  0  0  0  0  0  0  0  0  0  0  0
   10.4546   15.2255   19.2713 C   0  0  0  0  0  0  0  0  0  0  0  0
    9.6438   16.2283   18.8266 O   0  0  0  0  0  0  0  0  0  0  0  0
  1  2  1  0
  2  3  1  0
  3  4  2  0
  4  5  1  0
  5  6  1  0
  6  7  1  0
  7  8  1  0
  8  9  2  0
  8 10  1  0
 10 11  2  0
 11 12  1  0
 12 13  1  0
 13 14  1  0
 13 15  1  0
 13 16  1  0
 12 17  1  0
 17 18  2  0
 18 19  1  0
 19 20  2  0
 20 21  1  0
 21 22  2  0
  5 23  2  0
 23 24  1  0
 24  3  1  0
 22 10  1  0
 22 17  1  0
M  END
>  <energy_score>  (568) 
-22.784927

>  <inchikey>  (568) 
None

>  <smiles>  (568) 
None

>  <ref_pdb>  (568) 
A2290a

>  <alias>  (568) 
None

>  <HIPPO Pose ID>  (568) 
498998

>  <name>  (568) 
P498998

>  <HIPPO Compound ID>  (568) 
299293

>  <ref_mols>  (568) 
A3403a,A2290a

>  <distance_score>  (568) 
0.661441

>  <inspiration_score>  (568) 
None

$$$$
P499000
     RDKit          3D

 24 26  0  0  0  0  0  0  0  0999 V2000
   13.4277   15.2137   21.4858 C   0  0  0  0  0  0  0  0  0  0  0  0
   12.3964   14.6449   22.3909 C   0  0  0  0  0  0  0  0  0  0  0  0
   11.3549   14.0142   21.5179 C   0  0  1  0  0  0  0  0  0  0  0  0
   10.6388   13.1006   22.3120 N   0  0  0  0  0  0  0  0  0  0  0  0
   10.0279   13.2597   23.7026 C   0  0  0  0  0  0  0  0  0  0  0  0
    9.9489   14.1943   24.3894 O   0  0  0  0  0  0  0  0  0  0  0  0
    9.5593   11.9432   24.0664 C   0  0  0  0  0  0  0  0  0  0  0  0
   10.0871   10.8892   23.4312 N   0  0  0  0  0  0  0  0  0  0  0  0
    9.3265    9.8477   23.8046 N   0  0  0  0  0  0  0  0  0  0  0  0
    9.4406    8.6086   23.0255 C   0  0  0  0  0  0  0  0  0  0  0  0
   10.2125    7.6647   23.6057 F   0  0  0  0  0  0  0  0  0  0  0  0
    8.2291    8.0655   22.8293 F   0  0  0  0  0  0  0  0  0  0  0  0
    9.9839    8.8380   21.8033 F   0  0  0  0  0  0  0  0  0  0  0  0
    8.4051   10.2099   24.7731 C   0  0  0  0  0  0  0  0  0  0  0  0
    7.4132    9.5103   25.4546 C   0  0  0  0  0  0  0  0  0  0  0  0
    6.5937   10.2000   26.3551 C   0  0  0  0  0  0  0  0  0  0  0  0
    6.7457   11.5657   26.5617 C   0  0  0  0  0  0  0  0  0  0  0  0
    7.7221   12.2739   25.8644 C   0  0  0  0  0  0  0  0  0  0  0  0
    8.5587   11.5803   24.9719 C   0  0  0  0  0  0  0  0  0  0  0  0
   10.4840   14.9438   20.7689 C   0  0  0  0  0  0  0  0  0  0  0  0
   10.4942   15.2198   19.4214 C   0  0  0  0  0  0  0  0  0  0  0  0
    9.6882   16.2931   19.1978 O   0  0  0  0  0  0  0  0  0  0  0  0
    9.2119   16.5977   20.4321 C   0  0  0  0  0  0  0  0  0  0  0  0
    9.5964   15.7798   21.3831 N   0  0  0  0  0  0  0  0  0  0  0  0
  1  2  1  0
  3  2  1  1
  3  4  1  0
  4  5  1  0
  5  6  2  0
  5  7  1  0
  7  8  2  0
  8  9  1  0
  9 10  1  0
 10 11  1  0
 10 12  1  0
 10 13  1  0
  9 14  1  0
 14 15  2  0
 15 16  1  0
 16 17  2  0
 17 18  1  0
 18 19  2  0
  3 20  1  0
 20 21  2  0
 21 22  1  0
 22 23  1  0
 23 24  2  0
 19  7  1  0
 24 20  1  0
 19 14  1  0
M  END
>  <energy_score>  (569) 
-3.73096

>  <inchikey>  (569) 
None

>  <smiles>  (569) 
None

>  <ref_pdb>  (569) 
A2290a

>  <alias>  (569) 
None

>  <HIPPO Pose ID>  (569) 
499000

>  <name>  (569) 
P499000

>  <HIPPO Compound ID>  (569) 
299294

>  <ref_mols>  (569) 
A3403a,A2290a

>  <distance_score>  (569) 
0.878275

>  <inspiration_score>  (569) 
None

$$$$
P499006
     RDKit          3D

 25 27  0  0  0  0  0  0  0  0999 V2000
   10.7267   14.1799   24.5761 O   0  0  0  0  0  0  0  0  0  0  0  0
   10.6132   13.4149   23.7056 C   0  0  0  0  0  0  0  0  0  0  0  0
   10.9645   13.5410   22.2198 N   0  0  0  0  0  0  0  0  0  0  0  0
   11.6116   14.5896   21.5083 C   0  0  0  0  0  0  0  0  0  0  0  0
   10.6162   15.2698   20.6441 C   0  0  0  0  0  0  0  0  0  0  0  0
   10.4996   15.2407   19.2784 C   0  0  0  0  0  0  0  0  0  0  0  0
    9.6630   16.2463   18.8914 O   0  0  0  0  0  0  0  0  0  0  0  0
    9.2821   16.8493   20.0647 C   0  0  0  0  0  0  0  0  0  0  0  0
    8.5418   18.1545   19.9478 C   0  0  0  0  0  0  0  0  0  0  0  0
    7.2797   18.0539   19.4814 F   0  0  0  0  0  0  0  0  0  0  0  0
    8.4668   18.7929   21.1417 F   0  0  0  0  0  0  0  0  0  0  0  0
    9.7610   16.2289   21.1313 N   0  0  0  0  0  0  0  0  0  0  0  0
    9.9751   12.1143   23.9057 C   0  0  0  0  0  0  0  0  0  0  0  0
   10.3538   11.0684   23.1622 N   0  0  0  0  0  0  0  0  0  0  0  0
    9.5830   10.0398   23.5875 N   0  0  0  0  0  0  0  0  0  0  0  0
    9.6991    8.7357   22.9242 C   0  0  0  0  0  0  0  0  0  0  0  0
   10.0542    8.8703   21.6262 F   0  0  0  0  0  0  0  0  0  0  0  0
   10.6327    7.9382   23.4916 F   0  0  0  0  0  0  0  0  0  0  0  0
    8.5277    8.0707   22.9533 F   0  0  0  0  0  0  0  0  0  0  0  0
    8.6898   10.4195   24.5721 C   0  0  0  0  0  0  0  0  0  0  0  0
    7.6994    9.7252   25.2777 C   0  0  0  0  0  0  0  0  0  0  0  0
    6.9133   10.4361   26.1900 C   0  0  0  0  0  0  0  0  0  0  0  0
    7.1117   11.7976   26.3962 C   0  0  0  0  0  0  0  0  0  0  0  0
    8.1131   12.4814   25.7012 C   0  0  0  0  0  0  0  0  0  0  0  0
    8.9177   11.7781   24.7843 C   0  0  0  0  0  0  0  0  0  0  0  0
  1  2  2  0
  2  3  1  0
  3  4  1  0
  4  5  1  0
  5  6  2  0
  6  7  1  0
  7  8  1  0
  8  9  1  0
  9 10  1  0
  9 11  1  0
  8 12  2  0
  2 13  1  0
 13 14  2  0
 14 15  1  0
 15 16  1  0
 16 17  1  0
 16 18  1  0
 16 19  1  0
 15 20  1  0
 20 21  2  0
 21 22  1  0
 22 23  2  0
 23 24  1  0
 24 25  2  0
 12  5  1  0
 25 13  1  0
 25 20  1  0
M  END
>  <energy_score>  (570) 
-24.505995

>  <inchikey>  (570) 
None

>  <smiles>  (570) 
None

>  <ref_pdb>  (570) 
A2290a

>  <alias>  (570) 
None

>  <HIPPO Pose ID>  (570) 
499006

>  <name>  (570) 
P499006

>  <HIPPO Compound ID>  (570) 
299306

>  <ref_mols>  (570) 
A3403a,A2290a

>  <distance_score>  (570) 
0.642107

>  <inspiration_score>  (570) 
None

$$$$
P499007
     RDKit          3D

 25 28  0  0  0  0  0  0  0  0999 V2000
   10.0399   14.1686   25.6590 O   0  0  0  0  0  0  0  0  0  0  0  0
   10.1281   13.3051   24.8887 C   0  0  0  0  0  0  0  0  0  0  0  0
   10.8748   13.2332   23.5745 N   0  0  0  0  0  0  0  0  0  0  0  0
   11.5846   14.2103   22.8814 C   0  0  0  0  0  0  0  0  0  0  0  0
   10.5273   14.6610   21.9468 C   0  0  0  0  0  0  0  0  0  0  0  0
    9.2090   14.8158   22.2972 N   0  0  0  0  0  0  0  0  0  0  0  0
    8.6955   15.4245   21.2542 C   0  0  0  0  0  0  0  0  0  0  0  0
    9.5015   15.4939   20.1679 O   0  0  0  0  0  0  0  0  0  0  0  0
   10.6535   14.9615   20.6351 C   0  0  0  0  0  0  0  0  0  0  0  0
   11.9813   14.9106   19.9784 C   0  0  0  0  0  0  0  0  0  0  0  0
   11.9484   14.3879   18.5812 C   0  0  0  0  0  0  0  0  0  0  0  0
   12.8162   13.7728   19.6163 C   0  0  0  0  0  0  0  0  0  0  0  0
    9.4244   12.0392   24.9523 C   0  0  0  0  0  0  0  0  0  0  0  0
    9.7818   11.0460   24.1157 N   0  0  0  0  0  0  0  0  0  0  0  0
    8.8743   10.0849   24.3463 N   0  0  0  0  0  0  0  0  0  0  0  0
    9.0664    8.7444   23.8077 C   0  0  0  0  0  0  0  0  0  0  0  0
   10.3460    8.4655   23.4692 F   0  0  0  0  0  0  0  0  0  0  0  0
    8.6723    7.8745   24.7555 F   0  0  0  0  0  0  0  0  0  0  0  0
    8.2988    8.4882   22.7444 F   0  0  0  0  0  0  0  0  0  0  0  0
    7.9118   10.4655   25.2629 C   0  0  0  0  0  0  0  0  0  0  0  0
    6.7923    9.8198   25.7916 C   0  0  0  0  0  0  0  0  0  0  0  0
    6.0029   10.5164   26.7092 C   0  0  0  0  0  0  0  0  0  0  0  0
    6.3062   11.8230   27.0746 C   0  0  0  0  0  0  0  0  0  0  0  0
    7.4271   12.4600   26.5483 C   0  0  0  0  0  0  0  0  0  0  0  0
    8.2472   11.7540   25.6543 C   0  0  0  0  0  0  0  0  0  0  0  0
  1  2  2  0
  2  3  1  0
  3  4  1  0
  4  5  1  0
  5  6  1  0
  6  7  2  0
  7  8  1  0
  8  9  1  0
  9 10  1  0
 10 11  1  0
 11 12  1  0
  2 13  1  0
 13 14  2  0
 14 15  1  0
 15 16  1  0
 16 17  1  0
 16 18  1  0
 16 19  1  0
 15 20  1  0
 20 21  2  0
 21 22  1  0
 22 23  2  0
 23 24  1  0
 24 25  2  0
  9  5  2  0
 12 10  1  0
 25 13  1  0
 25 20  1  0
M  END
>  <energy_score>  (571) 
-6.610916

>  <inchikey>  (571) 
None

>  <smiles>  (571) 
None

>  <ref_pdb>  (571) 
A2290a

>  <alias>  (571) 
None

>  <HIPPO Pose ID>  (571) 
499007

>  <name>  (571) 
P499007

>  <HIPPO Compound ID>  (571) 
299307

>  <ref_mols>  (571) 
A3403a,A2290a

>  <distance_score>  (571) 
1.527348

>  <inspiration_score>  (571) 
None

$$$$
P499010
     RDKit          3D

 25 27  0  0  0  0  0  0  0  0999 V2000
   13.3920   15.1922   21.5213 C   0  0  0  0  0  0  0  0  0  0  0  0
   12.3930   14.5777   22.4389 C   0  0  0  0  0  0  0  0  0  0  0  0
   11.3550   13.9377   21.5681 C   0  0  1  0  0  0  0  0  0  0  0  0
   10.6028   13.0418   22.3539 N   0  0  0  0  0  0  0  0  0  0  0  0
    9.9567   13.2254   23.7235 C   0  0  0  0  0  0  0  0  0  0  0  0
    9.8719   14.1687   24.3971 O   0  0  0  0  0  0  0  0  0  0  0  0
    9.4057   11.9329   24.0730 C   0  0  0  0  0  0  0  0  0  0  0  0
    9.8288   10.8476   23.4047 N   0  0  0  0  0  0  0  0  0  0  0  0
    9.0835    9.8552   23.8831 N   0  0  0  0  0  0  0  0  0  0  0  0
    9.2161    8.5781   23.2330 C   0  0  0  0  0  0  0  0  0  0  0  0
    8.1977   10.2645   24.8514 C   0  0  0  0  0  0  0  0  0  0  0  0
    7.2118    9.6025   25.5760 C   0  0  0  0  0  0  0  0  0  0  0  0
    6.4133   10.3423   26.4542 C   0  0  0  0  0  0  0  0  0  0  0  0
    6.5900   11.7193   26.6086 C   0  0  0  0  0  0  0  0  0  0  0  0
    5.6589   12.4488   27.5091 C   0  0  0  0  0  0  0  0  0  0  0  0
    4.6453   11.9502   27.9741 O   0  0  0  0  0  0  0  0  0  0  0  0
    6.1144   13.7026   27.7473 O   0  0  0  0  0  0  0  0  0  0  0  0
    5.2515   14.4925   28.5664 C   0  0  0  0  0  0  0  0  0  0  0  0
    7.5951   12.3775   25.8871 C   0  0  0  0  0  0  0  0  0  0  0  0
    8.3973   11.6325   25.0013 C   0  0  0  0  0  0  0  0  0  0  0  0
   10.5014   14.8731   20.7994 C   0  0  0  0  0  0  0  0  0  0  0  0
   10.5339   15.1536   19.4528 C   0  0  0  0  0  0  0  0  0  0  0  0
    9.7279   16.2254   19.2196 O   0  0  0  0  0  0  0  0  0  0  0  0
    9.2372   16.5315   20.4473 C   0  0  0  0  0  0  0  0  0  0  0  0
    9.6061   15.7112   21.4027 N   0  0  0  0  0  0  0  0  0  0  0  0
  1  2  1  0
  3  2  1  1
  3  4  1  0
  4  5  1  0
  5  6  2  0
  5  7  1  0
  7  8  2  0
  8  9  1  0
  9 10  1  0
  9 11  1  0
 11 12  2  0
 12 13  1  0
 13 14  2  0
 14 15  1  0
 15 16  2  0
 15 17  1  0
 17 18  1  0
 14 19  1  0
 19 20  2  0
  3 21  1  0
 21 22  2  0
 22 23  1  0
 23 24  1  0
 24 25  2  0
 20  7  1  0
 25 21  1  0
 20 11  1  0
M  END
>  <energy_score>  (572) 
-25.889658

>  <inchikey>  (572) 
None

>  <smiles>  (572) 
None

>  <ref_pdb>  (572) 
A2290a

>  <alias>  (572) 
None

>  <HIPPO Pose ID>  (572) 
499010

>  <name>  (572) 
P499010

>  <HIPPO Compound ID>  (572) 
299311

>  <ref_mols>  (572) 
A3403a,A2290a

>  <distance_score>  (572) 
0.881714

>  <inspiration_score>  (572) 
None

$$$$
P499012
     RDKit          3D

 25 27  0  0  0  0  0  0  0  0999 V2000
    8.5974   17.4593   20.6093 C   0  0  0  0  0  0  0  0  0  0  0  0
    9.5092   16.3122   20.4920 C   0  0  0  0  0  0  0  0  0  0  0  0
    9.9808   15.5586   21.4623 N   0  0  0  0  0  0  0  0  0  0  0  0
   10.9105   14.7715   20.8445 C   0  0  0  0  0  0  0  0  0  0  0  0
   11.8731   13.9272   21.5784 C   0  0  1  0  0  0  0  0  0  0  0  0
   12.8498   14.7609   22.3416 C   0  0  0  0  0  0  0  0  0  0  0  0
   11.1270   13.0520   22.4052 N   0  0  0  0  0  0  0  0  0  0  0  0
   10.5682   13.2508   23.8136 C   0  0  0  0  0  0  0  0  0  0  0  0
   10.6936   14.1370   24.5577 O   0  0  0  0  0  0  0  0  0  0  0  0
    9.7532   12.0781   24.0950 C   0  0  0  0  0  0  0  0  0  0  0  0
    9.9898   10.9475   23.4110 N   0  0  0  0  0  0  0  0  0  0  0  0
    9.1392   10.0543   23.9474 N   0  0  0  0  0  0  0  0  0  0  0  0
    9.2725    8.6364   23.6337 C   0  0  0  0  0  0  0  0  0  0  0  0
    8.6302    8.2780   22.5135 F   0  0  0  0  0  0  0  0  0  0  0  0
    8.7111    7.9321   24.6387 F   0  0  0  0  0  0  0  0  0  0  0  0
   10.5607    8.2433   23.4930 F   0  0  0  0  0  0  0  0  0  0  0  0
    8.2857   10.6109   24.8833 C   0  0  0  0  0  0  0  0  0  0  0  0
    7.2334   10.0841   25.6470 C   0  0  0  0  0  0  0  0  0  0  0  0
    6.5618   10.9434   26.5195 C   0  0  0  0  0  0  0  0  0  0  0  0
    6.9260   12.2816   26.6287 C   0  0  0  0  0  0  0  0  0  0  0  0
    7.9819   12.7957   25.8716 C   0  0  0  0  0  0  0  0  0  0  0  0
    8.6740   11.9422   24.9939 C   0  0  0  0  0  0  0  0  0  0  0  0
   10.8777   15.0075   19.5001 C   0  0  0  0  0  0  0  0  0  0  0  0
   11.7242   14.5221   18.4217 C   0  0  0  0  0  0  0  0  0  0  0  0
    9.9588   15.9811   19.2472 O   0  0  0  0  0  0  0  0  0  0  0  0
  1  2  1  0
  2  3  2  0
  3  4  1  0
  4  5  1  0
  5  6  1  1
  5  7  1  0
  7  8  1  0
  8  9  2  0
  8 10  1  0
 10 11  2  0
 11 12  1  0
 12 13  1  0
 13 14  1  0
 13 15  1  0
 13 16  1  0
 12 17  1  0
 17 18  2  0
 18 19  1  0
 19 20  2  0
 20 21  1  0
 21 22  2  0
  4 23  2  0
 23 24  1  0
 23 25  1  0
 25  2  1  0
 22 10  1  0
 22 17  1  0
M  END
>  <energy_score>  (573) 
-11.871406

>  <inchikey>  (573) 
None

>  <smiles>  (573) 
None

>  <ref_pdb>  (573) 
A2290a

>  <alias>  (573) 
None

>  <HIPPO Pose ID>  (573) 
499012

>  <name>  (573) 
P499012

>  <HIPPO Compound ID>  (573) 
299312

>  <ref_mols>  (573) 
A3403a,A2290a

>  <distance_score>  (573) 
0.801003

>  <inspiration_score>  (573) 
None

$$$$
P499014
     RDKit          3D

 25 27  0  0  0  0  0  0  0  0999 V2000
   11.5806   14.2405   18.4371 C   0  0  0  0  0  0  0  0  0  0  0  0
   10.8382   15.2387   19.2536 C   0  0  0  0  0  0  0  0  0  0  0  0
   10.1126   16.3913   18.5532 C   0  0  0  0  0  0  0  0  0  0  0  0
   10.0535   14.8250   20.3964 C   0  0  0  0  0  0  0  0  0  0  0  0
    8.7090   14.8592   20.2964 O   0  0  0  0  0  0  0  0  0  0  0  0
    8.2759   14.8354   21.5708 C   0  0  0  0  0  0  0  0  0  0  0  0
    9.2195   14.6552   22.4530 N   0  0  0  0  0  0  0  0  0  0  0  0
   10.3950   14.6611   21.7042 C   0  0  0  0  0  0  0  0  0  0  0  0
   11.7133   14.3126   22.3249 C   0  0  0  0  0  0  0  0  0  0  0  0
   11.1896   13.2264   23.0481 N   0  0  0  0  0  0  0  0  0  0  0  0
   10.6368   13.1549   24.4605 C   0  0  0  0  0  0  0  0  0  0  0  0
   10.5912   13.9629   25.2946 O   0  0  0  0  0  0  0  0  0  0  0  0
   10.0463   11.8319   24.5559 C   0  0  0  0  0  0  0  0  0  0  0  0
   10.4285   10.8550   23.7170 N   0  0  0  0  0  0  0  0  0  0  0  0
    9.5225    9.8671   23.9022 N   0  0  0  0  0  0  0  0  0  0  0  0
    9.5769    8.6809   23.0359 C   0  0  0  0  0  0  0  0  0  0  0  0
   10.3912    7.7079   23.5048 F   0  0  0  0  0  0  0  0  0  0  0  0
    8.3525    8.1376   22.8968 F   0  0  0  0  0  0  0  0  0  0  0  0
   10.0229    8.9918   21.7955 F   0  0  0  0  0  0  0  0  0  0  0  0
    8.5577   10.2136   24.8344 C   0  0  0  0  0  0  0  0  0  0  0  0
    7.4480    9.5486   25.3565 C   0  0  0  0  0  0  0  0  0  0  0  0
    6.5971   10.2336   26.2306 C   0  0  0  0  0  0  0  0  0  0  0  0
    6.8337   11.5611   26.5632 C   0  0  0  0  0  0  0  0  0  0  0  0
    7.9546   12.2179   26.0592 C   0  0  0  0  0  0  0  0  0  0  0  0
    8.8459   11.5165   25.2236 C   0  0  0  0  0  0  0  0  0  0  0  0
  1  2  1  0
  2  3  1  0
  2  4  1  0
  4  5  1  0
  5  6  1  0
  6  7  2  0
  7  8  1  0
  8  9  1  0
  9 10  1  0
 10 11  1  0
 11 12  2  0
 11 13  1  0
 13 14  2  0
 14 15  1  0
 15 16  1  0
 16 17  1  0
 16 18  1  0
 16 19  1  0
 15 20  1  0
 20 21  2  0
 21 22  1  0
 22 23  2  0
 23 24  1  0
 24 25  2  0
  8  4  2  0
 25 13  1  0
 25 20  1  0
M  END
>  <energy_score>  (574) 
-1.391932

>  <inchikey>  (574) 
None

>  <smiles>  (574) 
None

>  <ref_pdb>  (574) 
A2290a

>  <alias>  (574) 
None

>  <HIPPO Pose ID>  (574) 
499014

>  <name>  (574) 
P499014

>  <HIPPO Compound ID>  (574) 
299317

>  <ref_mols>  (574) 
A3403a,A2290a

>  <distance_score>  (574) 
1.416222

>  <inspiration_score>  (574) 
None

$$$$
P499015
     RDKit          3D

 25 27  0  0  0  0  0  0  0  0999 V2000
    7.8822   18.9103   19.8712 C   0  0  0  0  0  0  0  0  0  0  0  0
    8.6795   17.7564   19.9535 N   0  0  0  0  0  0  0  0  0  0  0  0
    9.3989   16.9747   18.8688 C   0  0  0  0  0  0  0  0  0  0  0  0
    9.5173   17.1940   17.7389 O   0  0  0  0  0  0  0  0  0  0  0  0
   10.0392   15.8556   19.5477 C   0  0  0  0  0  0  0  0  0  0  0  0
   11.0472   15.0493   19.0816 C   0  0  0  0  0  0  0  0  0  0  0  0
   11.4292   14.2331   20.0920 O   0  0  0  0  0  0  0  0  0  0  0  0
   10.5507   14.5042   21.0839 C   0  0  0  0  0  0  0  0  0  0  0  0
   10.3859   13.5554   22.0080 N   0  0  0  0  0  0  0  0  0  0  0  0
    9.6059   13.5725   23.3175 C   0  0  0  0  0  0  0  0  0  0  0  0
    9.0411   14.4386   23.8474 O   0  0  0  0  0  0  0  0  0  0  0  0
    9.5540   12.2125   23.8495 C   0  0  0  0  0  0  0  0  0  0  0  0
   10.2173   11.2055   23.2614 N   0  0  0  0  0  0  0  0  0  0  0  0
    9.5551   10.0889   23.6800 N   0  0  0  0  0  0  0  0  0  0  0  0
    9.7495    8.8076   22.9819 C   0  0  0  0  0  0  0  0  0  0  0  0
   10.7366    8.0608   23.5251 F   0  0  0  0  0  0  0  0  0  0  0  0
    8.6190    8.0699   22.9996 F   0  0  0  0  0  0  0  0  0  0  0  0
   10.0857    8.9937   21.6850 F   0  0  0  0  0  0  0  0  0  0  0  0
    8.6236   10.3721   24.6646 C   0  0  0  0  0  0  0  0  0  0  0  0
    7.7067    9.5789   25.3597 C   0  0  0  0  0  0  0  0  0  0  0  0
    6.8301   10.1960   26.2584 C   0  0  0  0  0  0  0  0  0  0  0  0
    6.8545   11.5714   26.4495 C   0  0  0  0  0  0  0  0  0  0  0  0
    7.7479   12.3632   25.7282 C   0  0  0  0  0  0  0  0  0  0  0  0
    8.6482   11.7514   24.8330 C   0  0  0  0  0  0  0  0  0  0  0  0
    9.7789   15.5381   20.8784 N   0  0  0  0  0  0  0  0  0  0  0  0
  1  2  1  0
  2  3  1  0
  3  4  2  0
  3  5  1  0
  5  6  2  0
  6  7  1  0
  7  8  1  0
  8  9  1  0
  9 10  1  0
 10 11  2  0
 10 12  1  0
 12 13  2  0
 13 14  1  0
 14 15  1  0
 15 16  1  0
 15 17  1  0
 15 18  1  0
 14 19  1  0
 19 20  2  0
 20 21  1  0
 21 22  2  0
 22 23  1  0
 23 24  2  0
  8 25  2  0
 25  5  1  0
 24 12  1  0
 24 19  1  0
M  END
>  <energy_score>  (575) 
-10.475395

>  <inchikey>  (575) 
None

>  <smiles>  (575) 
None

>  <ref_pdb>  (575) 
A2290a

>  <alias>  (575) 
None

>  <HIPPO Pose ID>  (575) 
499015

>  <name>  (575) 
P499015

>  <HIPPO Compound ID>  (575) 
299319

>  <ref_mols>  (575) 
A3403a,A2290a

>  <distance_score>  (575) 
1.132163

>  <inspiration_score>  (575) 
None

$$$$
P499016
     RDKit          3D

 25 27  0  0  0  0  0  0  0  0999 V2000
    7.8850   18.9093   19.8712 C   0  0  0  0  0  0  0  0  0  0  0  0
    8.6814   17.7547   19.9556 N   0  0  0  0  0  0  0  0  0  0  0  0
    9.4033   16.9725   18.8729 C   0  0  0  0  0  0  0  0  0  0  0  0
    9.5250   17.1917   17.7434 O   0  0  0  0  0  0  0  0  0  0  0  0
   10.0393   15.8512   19.5524 C   0  0  0  0  0  0  0  0  0  0  0  0
   11.0482   15.0439   19.0899 C   0  0  0  0  0  0  0  0  0  0  0  0
   11.4208   14.2219   20.1000 O   0  0  0  0  0  0  0  0  0  0  0  0
   10.5345   14.4902   21.0855 C   0  0  0  0  0  0  0  0  0  0  0  0
   10.3459   13.5373   22.0017 N   0  0  0  0  0  0  0  0  0  0  0  0
    9.5453   13.5541   23.2974 C   0  0  0  0  0  0  0  0  0  0  0  0
    8.9797   14.4222   23.8229 O   0  0  0  0  0  0  0  0  0  0  0  0
    9.4664   12.1944   23.8280 C   0  0  0  0  0  0  0  0  0  0  0  0
   10.0978   11.1668   23.2384 N   0  0  0  0  0  0  0  0  0  0  0  0
    9.4571   10.0797   23.7101 N   0  0  0  0  0  0  0  0  0  0  0  0
    9.7146    8.8011   23.0869 C   0  0  0  0  0  0  0  0  0  0  0  0
    8.5231   10.3759   24.6772 C   0  0  0  0  0  0  0  0  0  0  0  0
    7.6172    9.5846   25.3875 C   0  0  0  0  0  0  0  0  0  0  0  0
    6.7295   10.2099   26.2679 C   0  0  0  0  0  0  0  0  0  0  0  0
    6.7575   11.5967   26.4198 C   0  0  0  0  0  0  0  0  0  0  0  0
    5.8159   12.2343   27.3357 N   0  0  0  0  0  0  0  0  0  0  0  0
    6.1943   13.2621   27.9146 O   0  0  0  0  0  0  0  0  0  0  0  0
    4.7170   11.6852   27.5033 O   0  0  0  0  0  0  0  0  0  0  0  0
    7.6573   12.3939   25.7036 C   0  0  0  0  0  0  0  0  0  0  0  0
    8.5511   11.7581   24.8181 C   0  0  0  0  0  0  0  0  0  0  0  0
    9.7691   15.5288   20.8793 N   0  0  0  0  0  0  0  0  0  0  0  0
  1  2  1  0
  2  3  1  0
  3  4  2  0
  3  5  1  0
  5  6  2  0
  6  7  1  0
  7  8  1  0
  8  9  1  0
  9 10  1  0
 10 11  2  0
 10 12  1  0
 12 13  2  0
 13 14  1  0
 14 15  1  0
 14 16  1  0
 16 17  2  0
 17 18  1  0
 18 19  2  0
 19 20  1  0
 20 21  2  0
 20 22  1  0
 19 23  1  0
 23 24  2  0
  8 25  2  0
 25  5  1  0
 24 12  1  0
 24 16  1  0
M  CHG  2  20   1  22  -1
M  END
>  <energy_score>  (576) 
-57.520635

>  <inchikey>  (576) 
None

>  <smiles>  (576) 
None

>  <ref_pdb>  (576) 
A2290a

>  <alias>  (576) 
None

>  <HIPPO Pose ID>  (576) 
499016

>  <name>  (576) 
P499016

>  <HIPPO Compound ID>  (576) 
299320

>  <ref_mols>  (576) 
A3403a,A2290a

>  <distance_score>  (576) 
1.127477

>  <inspiration_score>  (576) 
None

$$$$
P499021
     RDKit          3D

 25 27  0  0  0  0  0  0  0  0999 V2000
    8.5824   18.7733   20.6757 C   0  0  0  0  0  0  0  0  0  0  0  0
    8.3983   17.3817   20.2279 C   0  0  0  0  0  0  0  0  0  0  0  0
    9.5353   16.4343   20.2575 C   0  0  0  0  0  0  0  0  0  0  0  0
   10.1323   15.8745   21.2886 N   0  0  0  0  0  0  0  0  0  0  0  0
   11.0262   14.9877   20.7370 C   0  0  0  0  0  0  0  0  0  0  0  0
   12.0251   14.2771   21.5646 C   0  0  0  0  0  0  0  0  0  0  0  0
   11.3481   13.2568   22.2971 N   0  0  0  0  0  0  0  0  0  0  0  0
   10.7625   13.2690   23.7134 C   0  0  0  0  0  0  0  0  0  0  0  0
   10.8048   14.0874   24.5413 O   0  0  0  0  0  0  0  0  0  0  0  0
    9.9917   12.0296   23.9012 C   0  0  0  0  0  0  0  0  0  0  0  0
   10.2610   10.9437   23.1590 N   0  0  0  0  0  0  0  0  0  0  0  0
    9.4298   10.0000   23.6223 N   0  0  0  0  0  0  0  0  0  0  0  0
    9.4944    8.6859   23.0304 C   0  0  0  0  0  0  0  0  0  0  0  0
    8.5816   10.4481   24.6050 C   0  0  0  0  0  0  0  0  0  0  0  0
    7.5644    9.8214   25.3334 C   0  0  0  0  0  0  0  0  0  0  0  0
    6.8407   10.5910   26.2490 C   0  0  0  0  0  0  0  0  0  0  0  0
    7.1392   11.9433   26.4420 C   0  0  0  0  0  0  0  0  0  0  0  0
    6.4102   12.7648   27.4382 C   0  0  0  0  0  0  0  0  0  0  0  0
    6.8925   13.7463   27.9807 O   0  0  0  0  0  0  0  0  0  0  0  0
    5.1675   12.2622   27.6482 O   0  0  0  0  0  0  0  0  0  0  0  0
    4.3825   13.0356   28.5557 C   0  0  0  0  0  0  0  0  0  0  0  0
    8.1821   12.5515   25.7249 C   0  0  0  0  0  0  0  0  0  0  0  0
    8.9122   11.7881   24.7935 C   0  0  0  0  0  0  0  0  0  0  0  0
   10.8525   14.9740   19.3748 C   0  0  0  0  0  0  0  0  0  0  0  0
    9.8988   15.8933   19.0581 O   0  0  0  0  0  0  0  0  0  0  0  0
  1  2  1  0
  2  3  1  0
  3  4  2  0
  4  5  1  0
  5  6  1  0
  6  7  1  0
  7  8  1  0
  8  9  2  0
  8 10  1  0
 10 11  2  0
 11 12  1  0
 12 13  1  0
 12 14  1  0
 14 15  2  0
 15 16  1  0
 16 17  2  0
 17 18  1  0
 18 19  2  0
 18 20  1  0
 20 21  1  0
 17 22  1  0
 22 23  2  0
  5 24  2  0
 24 25  1  0
 25  3  1  0
 23 10  1  0
 23 14  1  0
M  END
>  <energy_score>  (577) 
-15.132575

>  <inchikey>  (577) 
None

>  <smiles>  (577) 
None

>  <ref_pdb>  (577) 
A2290a

>  <alias>  (577) 
None

>  <HIPPO Pose ID>  (577) 
499021

>  <name>  (577) 
P499021

>  <HIPPO Compound ID>  (577) 
299330

>  <ref_mols>  (577) 
A3403a,A2290a

>  <distance_score>  (577) 
0.671656

>  <inspiration_score>  (577) 
None

$$$$
P499022
     RDKit          3D

 26 29  0  0  0  0  0  0  0  0999 V2000
    9.3674    8.7072   23.1390 C   0  0  0  0  0  0  0  0  0  0  0  0
    9.2751    9.9721   23.8264 N   0  0  0  0  0  0  0  0  0  0  0  0
   10.1491   10.9287   23.4907 N   0  0  0  0  0  0  0  0  0  0  0  0
    9.8182   11.9739   24.2708 C   0  0  0  0  0  0  0  0  0  0  0  0
   10.6241   13.1945   24.2282 C   0  0  0  0  0  0  0  0  0  0  0  0
   10.5767   14.0163   25.0500 O   0  0  0  0  0  0  0  0  0  0  0  0
   11.4357   13.1302   22.9396 N   0  0  0  0  0  0  0  0  0  0  0  0
   12.2838   14.0893   22.3379 C   0  0  0  0  0  0  0  0  0  0  0  0
   11.5642   14.5920   21.1710 C   0  0  0  0  0  0  0  0  0  0  0  0
   11.8101   14.4006   19.8376 C   0  0  0  0  0  0  0  0  0  0  0  0
   10.8791   15.0842   19.1387 O   0  0  0  0  0  0  0  0  0  0  0  0
   10.1582   15.7206   20.1030 C   0  0  0  0  0  0  0  0  0  0  0  0
    9.3628   16.8278   19.6702 C   0  0  0  0  0  0  0  0  0  0  0  0
    8.8011   17.6663   20.6168 C   0  0  0  0  0  0  0  0  0  0  0  0
    8.0499   18.7449   20.2407 C   0  0  0  0  0  0  0  0  0  0  0  0
    7.6934   18.8765   18.9321 C   0  0  0  0  0  0  0  0  0  0  0  0
    8.2790   18.0851   17.9673 C   0  0  0  0  0  0  0  0  0  0  0  0
    9.1779   17.1169   18.3325 C   0  0  0  0  0  0  0  0  0  0  0  0
   10.4595   15.3783   21.3340 N   0  0  0  0  0  0  0  0  0  0  0  0
    8.6762   11.7025   25.0546 C   0  0  0  0  0  0  0  0  0  0  0  0
    7.8862   12.4305   25.9642 C   0  0  0  0  0  0  0  0  0  0  0  0
    6.8342   11.7768   26.6060 C   0  0  0  0  0  0  0  0  0  0  0  0
    5.7692   12.7230   27.8492 Br  0  0  0  0  0  0  0  0  0  0  0  0
    6.5696   10.4327   26.3639 C   0  0  0  0  0  0  0  0  0  0  0  0
    7.3385    9.7089   25.4482 C   0  0  0  0  0  0  0  0  0  0  0  0
    8.3768   10.3690   24.7880 C   0  0  0  0  0  0  0  0  0  0  0  0
  1  2  1  0
  2  3  1  0
  3  4  2  0
  4  5  1  0
  5  6  2  0
  5  7  1  0
  7  8  1  0
  8  9  1  0
  9 10  2  0
 10 11  1  0
 11 12  1  0
 12 13  1  0
 13 14  2  0
 14 15  1  0
 15 16  2  0
 16 17  1  0
 17 18  2  0
 12 19  2  0
  4 20  1  0
 20 21  2  0
 21 22  1  0
 22 23  1  0
 22 24  2  0
 24 25  1  0
 25 26  2  0
 26  2  1  0
 19  9  1  0
 26 20  1  0
 18 13  1  0
M  END
>  <energy_score>  (578) 
-0.1335

>  <inchikey>  (578) 
None

>  <smiles>  (578) 
None

>  <ref_pdb>  (578) 
A2290a

>  <alias>  (578) 
None

>  <HIPPO Pose ID>  (578) 
499022

>  <name>  (578) 
P499022

>  <HIPPO Compound ID>  (578) 
299334

>  <ref_mols>  (578) 
A3403a,A2290a

>  <distance_score>  (578) 
1.008551

>  <inspiration_score>  (578) 
None

$$$$
P499024
     RDKit          3D

 26 29  0  0  0  0  0  0  0  0999 V2000
    8.7054   17.3844   20.5269 C   0  0  0  0  0  0  0  0  0  0  0  0
    9.6183   16.2282   20.5343 C   0  0  0  0  0  0  0  0  0  0  0  0
   10.1178   15.6128   21.5797 N   0  0  0  0  0  0  0  0  0  0  0  0
   11.0647   14.7649   21.0737 C   0  0  0  0  0  0  0  0  0  0  0  0
   11.9631   14.0402   22.0098 C   0  0  0  0  0  0  0  0  0  0  0  0
   11.1295   13.4575   23.0298 N   0  0  0  0  0  0  0  0  0  0  0  0
   10.9226   13.8586   24.5068 C   0  0  0  0  0  0  0  0  0  0  0  0
   11.4523   14.6759   25.1505 O   0  0  0  0  0  0  0  0  0  0  0  0
    9.8514   13.0122   25.0331 C   0  0  0  0  0  0  0  0  0  0  0  0
    9.9261   11.7189   24.7272 N   0  0  0  0  0  0  0  0  0  0  0  0
    8.8165   11.1816   25.2289 N   0  0  0  0  0  0  0  0  0  0  0  0
    8.4466    9.8740   24.7908 C   0  0  0  0  0  0  0  0  0  0  0  0
    8.8839    9.7637   23.3876 C   0  0  1  0  0  0  0  0  0  0  0  0
   10.3249    9.5236   23.1190 C   0  0  0  0  0  0  0  0  0  0  0  0
   10.3780    8.1441   22.9220 N   0  0  0  0  0  0  0  0  0  0  0  0
    9.1458    7.7487   22.5253 C   0  0  0  0  0  0  0  0  0  0  0  0
    8.8200    6.7400   21.9549 O   0  0  0  0  0  0  0  0  0  0  0  0
    8.2282    8.6317   22.9176 O   0  0  0  0  0  0  0  0  0  0  0  0
    8.0229   12.0401   25.9008 C   0  0  0  0  0  0  0  0  0  0  0  0
    6.8027   11.8350   26.5470 C   0  0  0  0  0  0  0  0  0  0  0  0
    6.2067   12.9551   27.1035 C   0  0  0  0  0  0  0  0  0  0  0  0
    6.8161   14.2058   27.0085 C   0  0  0  0  0  0  0  0  0  0  0  0
    8.0460   14.3827   26.3562 C   0  0  0  0  0  0  0  0  0  0  0  0
    8.6706   13.2707   25.7848 C   0  0  0  0  0  0  0  0  0  0  0  0
   10.9824   14.7907   19.7001 C   0  0  0  0  0  0  0  0  0  0  0  0
   10.0458   15.7234   19.3431 O   0  0  0  0  0  0  0  0  0  0  0  0
  1  2  1  0
  2  3  2  0
  3  4  1  0
  4  5  1  0
  5  6  1  0
  6  7  1  0
  7  8  2  0
  7  9  1  0
  9 10  2  0
 10 11  1  0
 11 12  1  0
 13 12  1  1
 13 14  1  0
 14 15  1  0
 15 16  1  0
 16 17  2  0
 16 18  1  0
 11 19  1  0
 19 20  2  0
 20 21  1  0
 21 22  2  0
 22 23  1  0
 23 24  2  0
  4 25  2  0
 25 26  1  0
 26  2  1  0
 24  9  1  0
 18 13  1  0
 24 19  1  0
M  END
>  <energy_score>  (579) 
-24.679718

>  <inchikey>  (579) 
None

>  <smiles>  (579) 
None

>  <ref_pdb>  (579) 
A2290a

>  <alias>  (579) 
None

>  <HIPPO Pose ID>  (579) 
499024

>  <name>  (579) 
P499024

>  <HIPPO Compound ID>  (579) 
299336

>  <ref_mols>  (579) 
A3403a,A2290a

>  <distance_score>  (579) 
1.746893

>  <inspiration_score>  (579) 
None

$$$$
P499025
     RDKit          3D

 26 28  0  0  0  0  0  0  0  0999 V2000
    7.9668   19.0572   19.5310 C   0  0  0  0  0  0  0  0  0  0  0  0
    8.3036   17.6749   19.3980 N   0  0  0  0  0  0  0  0  0  0  0  0
    8.9430   17.3992   18.1307 C   0  0  0  0  0  0  0  0  0  0  0  0
    8.8728   17.1514   20.6335 C   0  0  0  0  0  0  0  0  0  0  0  0
    9.8069   15.9968   20.5856 C   0  0  0  0  0  0  0  0  0  0  0  0
   10.4477   15.4717   21.6055 N   0  0  0  0  0  0  0  0  0  0  0  0
   11.3716   14.6477   21.0267 C   0  0  0  0  0  0  0  0  0  0  0  0
   12.3083   13.8889   21.8608 C   0  0  0  0  0  0  0  0  0  0  0  0
   11.5060   12.9697   22.5877 N   0  0  0  0  0  0  0  0  0  0  0  0
   10.8101   13.1120   23.9420 C   0  0  0  0  0  0  0  0  0  0  0  0
   10.8424   13.9771   24.7207 O   0  0  0  0  0  0  0  0  0  0  0  0
    9.9643   11.9246   24.1003 C   0  0  0  0  0  0  0  0  0  0  0  0
   10.2348   10.8275   23.3739 N   0  0  0  0  0  0  0  0  0  0  0  0
    9.3321    9.9265   23.7679 N   0  0  0  0  0  0  0  0  0  0  0  0
    9.3542    8.6384   23.1221 C   0  0  0  0  0  0  0  0  0  0  0  0
    8.4617   10.4028   24.7188 C   0  0  0  0  0  0  0  0  0  0  0  0
    7.3967    9.8099   25.4059 C   0  0  0  0  0  0  0  0  0  0  0  0
    6.6462   10.6076   26.2725 C   0  0  0  0  0  0  0  0  0  0  0  0
    6.9694   11.9568   26.4450 C   0  0  0  0  0  0  0  0  0  0  0  0
    6.1690   12.7691   27.3629 N   0  0  0  0  0  0  0  0  0  0  0  0
    5.0217   12.3792   27.6275 O   0  0  0  0  0  0  0  0  0  0  0  0
    6.7064   13.7708   27.8568 O   0  0  0  0  0  0  0  0  0  0  0  0
    8.0623   12.5413   25.7869 C   0  0  0  0  0  0  0  0  0  0  0  0
    8.8221   11.7361   24.9164 C   0  0  0  0  0  0  0  0  0  0  0  0
   11.1983   14.6411   19.6676 C   0  0  0  0  0  0  0  0  0  0  0  0
   10.1746   15.4736   19.3838 O   0  0  0  0  0  0  0  0  0  0  0  0
  1  2  1  0
  2  3  1  0
  2  4  1  0
  4  5  1  0
  5  6  2  0
  6  7  1  0
  7  8  1  0
  8  9  1  0
  9 10  1  0
 10 11  2  0
 10 12  1  0
 12 13  2  0
 13 14  1  0
 14 15  1  0
 14 16  1  0
 16 17  2  0
 17 18  1  0
 18 19  2  0
 19 20  1  0
 20 21  2  0
 20 22  1  0
 19 23  1  0
 23 24  2  0
  7 25  2  0
 25 26  1  0
 26  5  1  0
 24 12  1  0
 24 16  1  0
M  CHG  2  20   1  22  -1
M  END
>  <energy_score>  (580) 
-16.350143

>  <inchikey>  (580) 
None

>  <smiles>  (580) 
None

>  <ref_pdb>  (580) 
A2290a

>  <alias>  (580) 
None

>  <HIPPO Pose ID>  (580) 
499025

>  <name>  (580) 
P499025

>  <HIPPO Compound ID>  (580) 
299337

>  <ref_mols>  (580) 
A3403a,A2290a

>  <distance_score>  (580) 
0.914272

>  <inspiration_score>  (580) 
None

$$$$
P499033
     RDKit          3D

 26 28  0  0  0  0  0  0  0  0999 V2000
    4.1519   12.7884   28.5976 C   0  0  0  0  0  0  0  0  0  0  0  0
    4.9725   12.0614   27.6837 O   0  0  0  0  0  0  0  0  0  0  0  0
    6.2127   12.5883   27.5258 C   0  0  0  0  0  0  0  0  0  0  0  0
    6.6621   13.5625   28.1083 O   0  0  0  0  0  0  0  0  0  0  0  0
    6.9832   11.8070   26.5286 C   0  0  0  0  0  0  0  0  0  0  0  0
    6.7146   10.4569   26.2907 C   0  0  0  0  0  0  0  0  0  0  0  0
    7.4731    9.7270   25.3705 C   0  0  0  0  0  0  0  0  0  0  0  0
    8.4969   10.3860   24.6843 C   0  0  0  0  0  0  0  0  0  0  0  0
    8.8006   11.7226   24.9249 C   0  0  0  0  0  0  0  0  0  0  0  0
    8.0341   12.4498   25.8564 C   0  0  0  0  0  0  0  0  0  0  0  0
    9.9011   12.0025   24.0761 C   0  0  0  0  0  0  0  0  0  0  0  0
   10.6476   13.2590   23.9497 C   0  0  0  0  0  0  0  0  0  0  0  0
   10.6285   14.0704   24.7843 O   0  0  0  0  0  0  0  0  0  0  0  0
   11.2894   13.2787   22.5614 N   0  0  0  0  0  0  0  0  0  0  0  0
   11.9595   14.3240   21.8672 C   0  0  0  0  0  0  0  0  0  0  0  0
   10.9558   14.9675   20.9891 C   0  0  0  0  0  0  0  0  0  0  0  0
    9.9397   15.7236   21.5020 N   0  0  0  0  0  0  0  0  0  0  0  0
    9.3934   16.2963   20.4587 C   0  0  0  0  0  0  0  0  0  0  0  0
    9.8546   15.8433   19.2665 O   0  0  0  0  0  0  0  0  0  0  0  0
   10.8618   14.9850   19.6199 C   0  0  0  0  0  0  0  0  0  0  0  0
   11.6545   14.3685   18.5653 C   0  0  0  0  0  0  0  0  0  0  0  0
   12.6737   13.6347   19.0937 F   0  0  0  0  0  0  0  0  0  0  0  0
   12.2576   15.2728   17.7718 F   0  0  0  0  0  0  0  0  0  0  0  0
   10.2069   10.9489   23.3003 N   0  0  0  0  0  0  0  0  0  0  0  0
    9.3734    9.9804   23.7072 N   0  0  0  0  0  0  0  0  0  0  0  0
    9.4630    8.6923   23.0639 C   0  0  0  0  0  0  0  0  0  0  0  0
  1  2  1  0
  2  3  1  0
  3  4  2  0
  3  5  1  0
  5  6  2  0
  6  7  1  0
  7  8  2  0
  8  9  1  0
  9 10  2  0
  9 11  1  0
 11 12  1  0
 12 13  2  0
 12 14  1  0
 14 15  1  0
 15 16  1  0
 16 17  1  0
 17 18  2  0
 18 19  1  0
 19 20  1  0
 20 21  1  0
 21 22  1  0
 21 23  1  0
 11 24  2  0
 24 25  1  0
 25 26  1  0
 10  5  1  0
 20 16  2  0
 25  8  1  0
M  END
>  <energy_score>  (581) 
-22.224355

>  <inchikey>  (581) 
None

>  <smiles>  (581) 
None

>  <ref_pdb>  (581) 
A2290a

>  <alias>  (581) 
None

>  <HIPPO Pose ID>  (581) 
499033

>  <name>  (581) 
P499033

>  <HIPPO Compound ID>  (581) 
299356

>  <ref_mols>  (581) 
A3403a,A2290a

>  <distance_score>  (581) 
0.770622

>  <inspiration_score>  (581) 
None

$$$$
P499038
     RDKit          3D

 26 28  0  0  0  0  0  0  0  0999 V2000
    4.1466   12.9717   28.6708 C   0  0  0  0  0  0  0  0  0  0  0  0
    4.9364   12.1922   27.7728 O   0  0  0  0  0  0  0  0  0  0  0  0
    6.1794   12.6949   27.5637 C   0  0  0  0  0  0  0  0  0  0  0  0
    6.6550   13.6859   28.0948 O   0  0  0  0  0  0  0  0  0  0  0  0
    6.9162   11.8624   26.5822 C   0  0  0  0  0  0  0  0  0  0  0  0
    6.6119   10.5122   26.3891 C   0  0  0  0  0  0  0  0  0  0  0  0
    7.3370    9.7349   25.4804 C   0  0  0  0  0  0  0  0  0  0  0  0
    8.3705   10.3435   24.7649 C   0  0  0  0  0  0  0  0  0  0  0  0
    8.6997   11.6844   24.9535 C   0  0  0  0  0  0  0  0  0  0  0  0
    7.9667   12.4603   25.8705 C   0  0  0  0  0  0  0  0  0  0  0  0
    9.7683   11.9161   24.0610 C   0  0  0  0  0  0  0  0  0  0  0  0
   10.5098   13.1456   23.8008 C   0  0  0  0  0  0  0  0  0  0  0  0
   10.5650   14.0351   24.5506 O   0  0  0  0  0  0  0  0  0  0  0  0
   11.1246   12.9805   22.4092 N   0  0  0  0  0  0  0  0  0  0  0  0
   11.8521   13.8968   21.6081 C   0  0  2  0  0  0  0  0  0  0  0  0
   12.8090   14.7260   22.4011 C   0  0  0  0  0  0  0  0  0  0  0  0
   10.8933   14.7433   20.8697 C   0  0  0  0  0  0  0  0  0  0  0  0
    9.9615   15.5302   21.4839 N   0  0  0  0  0  0  0  0  0  0  0  0
    9.5026   16.2938   20.5152 C   0  0  0  0  0  0  0  0  0  0  0  0
    8.5960   17.4449   20.6317 C   0  0  0  0  0  0  0  0  0  0  0  0
    9.9609   15.9704   19.2725 O   0  0  0  0  0  0  0  0  0  0  0  0
   10.8739   14.9916   19.5258 C   0  0  0  0  0  0  0  0  0  0  0  0
   11.7223   14.5148   18.4441 C   0  0  0  0  0  0  0  0  0  0  0  0
   10.0687   10.8188   23.3476 N   0  0  0  0  0  0  0  0  0  0  0  0
    9.2251    9.8872   23.7907 N   0  0  0  0  0  0  0  0  0  0  0  0
    9.2786    8.5985   23.1512 C   0  0  0  0  0  0  0  0  0  0  0  0
  1  2  1  0
  2  3  1  0
  3  4  2  0
  3  5  1  0
  5  6  2  0
  6  7  1  0
  7  8  2  0
  8  9  1  0
  9 10  2  0
  9 11  1  0
 11 12  1  0
 12 13  2  0
 12 14  1  0
 14 15  1  0
 15 16  1  1
 15 17  1  0
 17 18  1  0
 18 19  2  0
 19 20  1  0
 19 21  1  0
 21 22  1  0
 22 23  1  0
 11 24  2  0
 24 25  1  0
 25 26  1  0
 10  5  1  0
 22 17  2  0
 25  8  1  0
M  END
>  <energy_score>  (582) 
-18.162547

>  <inchikey>  (582) 
None

>  <smiles>  (582) 
None

>  <ref_pdb>  (582) 
A2290a

>  <alias>  (582) 
None

>  <HIPPO Pose ID>  (582) 
499038

>  <name>  (582) 
P499038

>  <HIPPO Compound ID>  (582) 
299368

>  <ref_mols>  (582) 
A3403a,A2290a

>  <distance_score>  (582) 
0.790196

>  <inspiration_score>  (582) 
None

$$$$
P499040
     RDKit          3D

 26 29  0  0  0  0  0  0  0  0999 V2000
    5.0936   14.0357   28.7882 C   0  0  0  0  0  0  0  0  0  0  0  0
    6.0156   13.3735   27.9221 O   0  0  0  0  0  0  0  0  0  0  0  0
    5.6215   12.1366   27.5333 C   0  0  0  0  0  0  0  0  0  0  0  0
    4.6105   11.5561   27.8984 O   0  0  0  0  0  0  0  0  0  0  0  0
    6.6174   11.5423   26.6034 C   0  0  0  0  0  0  0  0  0  0  0  0
    6.5266   10.1766   26.3263 C   0  0  0  0  0  0  0  0  0  0  0  0
    7.3939    9.5631   25.4163 C   0  0  0  0  0  0  0  0  0  0  0  0
    8.3449   10.3491   24.7707 C   0  0  0  0  0  0  0  0  0  0  0  0
    8.4755   11.7004   25.0567 C   0  0  0  0  0  0  0  0  0  0  0  0
    7.6094   12.3147   25.9832 C   0  0  0  0  0  0  0  0  0  0  0  0
    9.5286   12.1362   24.2274 C   0  0  0  0  0  0  0  0  0  0  0  0
   10.0748   13.4861   24.1606 C   0  0  0  0  0  0  0  0  0  0  0  0
   10.0591   14.1999   25.0787 O   0  0  0  0  0  0  0  0  0  0  0  0
   10.5458   13.7243   22.7304 N   0  0  0  0  0  0  0  0  0  0  0  0
   11.1799   14.8470   22.1448 C   0  0  0  0  0  0  0  0  0  0  0  0
   10.3336   15.4587   21.0905 C   0  0  0  0  0  0  0  0  0  0  0  0
    9.4359   16.4639   21.3189 N   0  0  0  0  0  0  0  0  0  0  0  0
    9.1194   16.9292   20.1400 C   0  0  0  0  0  0  0  0  0  0  0  0
    9.6294   16.2127   19.1124 O   0  0  0  0  0  0  0  0  0  0  0  0
   10.3804   15.2718   19.7389 C   0  0  0  0  0  0  0  0  0  0  0  0
   11.2570   14.2698   19.0686 C   0  0  0  0  0  0  0  0  0  0  0  0
   12.6849   14.1454   19.4254 C   0  0  0  0  0  0  0  0  0  0  0  0
   12.2386   14.6835   18.0862 C   0  0  0  0  0  0  0  0  0  0  0  0
    9.9807   11.1591   23.4225 N   0  0  0  0  0  0  0  0  0  0  0  0
    9.2743   10.0776   23.7937 N   0  0  0  0  0  0  0  0  0  0  0  0
    9.5170    8.8276   23.1102 C   0  0  0  0  0  0  0  0  0  0  0  0
  1  2  1  0
  2  3  1  0
  3  4  2  0
  3  5  1  0
  5  6  2  0
  6  7  1  0
  7  8  2  0
  8  9  1  0
  9 10  2  0
  9 11  1  0
 11 12  1  0
 12 13  2  0
 12 14  1  0
 14 15  1  0
 15 16  1  0
 16 17  1  0
 17 18  2  0
 18 19  1  0
 19 20  1  0
 20 21  1  0
 21 22  1  0
 22 23  1  0
 11 24  2  0
 24 25  1  0
 25 26  1  0
 10  5  1  0
 20 16  2  0
 23 21  1  0
 25  8  1  0
M  END
>  <energy_score>  (583) 
-3.14888

>  <inchikey>  (583) 
None

>  <smiles>  (583) 
None

>  <ref_pdb>  (583) 
A2290a

>  <alias>  (583) 
None

>  <HIPPO Pose ID>  (583) 
499040

>  <name>  (583) 
P499040

>  <HIPPO Compound ID>  (583) 
299369

>  <ref_mols>  (583) 
A3403a,A2290a

>  <distance_score>  (583) 
0.932001

>  <inspiration_score>  (583) 
None

$$$$
P499041
     RDKit          3D

 26 28  0  0  0  0  0  0  0  0999 V2000
    9.5615    8.7002   23.0269 C   0  0  0  0  0  0  0  0  0  0  0  0
    9.4206   10.0156   23.6030 N   0  0  0  0  0  0  0  0  0  0  0  0
   10.1701   11.0109   23.1058 N   0  0  0  0  0  0  0  0  0  0  0  0
    9.8433   12.0799   23.8483 C   0  0  0  0  0  0  0  0  0  0  0  0
   10.5221   13.3692   23.6687 C   0  0  0  0  0  0  0  0  0  0  0  0
   10.5337   14.1530   24.5290 O   0  0  0  0  0  0  0  0  0  0  0  0
   11.0687   13.4536   22.2411 N   0  0  0  0  0  0  0  0  0  0  0  0
   11.6592   14.5454   21.5372 C   0  0  0  0  0  0  0  0  0  0  0  0
   10.6483   15.2047   20.6688 C   0  0  0  0  0  0  0  0  0  0  0  0
   10.5452   15.1611   19.3021 C   0  0  0  0  0  0  0  0  0  0  0  0
    9.6912   16.1419   18.8976 O   0  0  0  0  0  0  0  0  0  0  0  0
    9.3082   16.7772   20.0559 C   0  0  0  0  0  0  0  0  0  0  0  0
    8.5609   18.0877   19.8896 C   0  0  0  0  0  0  0  0  0  0  0  0
    7.2557   17.9726   19.5794 F   0  0  0  0  0  0  0  0  0  0  0  0
    9.0780   18.8217   18.8641 F   0  0  0  0  0  0  0  0  0  0  0  0
    8.6186   18.8459   21.0082 F   0  0  0  0  0  0  0  0  0  0  0  0
    9.7761   16.1634   21.1380 N   0  0  0  0  0  0  0  0  0  0  0  0
    8.7863   11.7822   24.7506 C   0  0  0  0  0  0  0  0  0  0  0  0
    8.0089   12.5181   25.6676 C   0  0  0  0  0  0  0  0  0  0  0  0
    7.0061   11.8412   26.3773 C   0  0  0  0  0  0  0  0  0  0  0  0
    6.1782   12.5819   27.3279 N   0  0  0  0  0  0  0  0  0  0  0  0
    5.0451   12.1385   27.5675 O   0  0  0  0  0  0  0  0  0  0  0  0
    6.6816   13.5769   27.8672 O   0  0  0  0  0  0  0  0  0  0  0  0
    6.7923   10.4691   26.2182 C   0  0  0  0  0  0  0  0  0  0  0  0
    7.5731    9.7378   25.3205 C   0  0  0  0  0  0  0  0  0  0  0  0
    8.5462   10.4211   24.5825 C   0  0  0  0  0  0  0  0  0  0  0  0
  1  2  1  0
  2  3  1  0
  3  4  2  0
  4  5  1  0
  5  6  2  0
  5  7  1  0
  7  8  1  0
  8  9  1  0
  9 10  2  0
 10 11  1  0
 11 12  1  0
 12 13  1  0
 13 14  1  0
 13 15  1  0
 13 16  1  0
 12 17  2  0
  4 18  1  0
 18 19  2  0
 19 20  1  0
 20 21  1  0
 21 22  2  0
 21 23  1  0
 20 24  2  0
 24 25  1  0
 25 26  2  0
 26  2  1  0
 17  9  1  0
 26 18  1  0
M  CHG  2  21   1  23  -1
M  END
>  <energy_score>  (584) 
-35.741589

>  <inchikey>  (584) 
None

>  <smiles>  (584) 
None

>  <ref_pdb>  (584) 
A2290a

>  <alias>  (584) 
None

>  <HIPPO Pose ID>  (584) 
499041

>  <name>  (584) 
P499041

>  <HIPPO Compound ID>  (584) 
299370

>  <ref_mols>  (584) 
A3403a,A2290a

>  <distance_score>  (584) 
0.650028

>  <inspiration_score>  (584) 
None

$$$$
P499043
     RDKit          3D

 26 29  0  0  0  0  0  0  0  0999 V2000
   11.7520   14.4202   18.6578 C   0  0  0  0  0  0  0  0  0  0  0  0
   10.9131   14.9946   19.7020 C   0  0  0  0  0  0  0  0  0  0  0  0
    9.8905   15.8043   19.2901 O   0  0  0  0  0  0  0  0  0  0  0  0
    9.3767   16.2806   20.4477 C   0  0  0  0  0  0  0  0  0  0  0  0
    9.8995   15.7547   21.5251 N   0  0  0  0  0  0  0  0  0  0  0  0
   10.9720   15.0358   21.0747 C   0  0  0  0  0  0  0  0  0  0  0  0
   11.9834   14.5130   22.0295 C   0  0  0  0  0  0  0  0  0  0  0  0
   11.2695   13.6997   22.9586 N   0  0  0  0  0  0  0  0  0  0  0  0
   11.0030   13.8968   24.4654 C   0  0  0  0  0  0  0  0  0  0  0  0
   11.3900   14.7158   25.2018 O   0  0  0  0  0  0  0  0  0  0  0  0
   10.0387   12.8696   24.8228 C   0  0  0  0  0  0  0  0  0  0  0  0
   10.2594   11.6816   24.2668 N   0  0  0  0  0  0  0  0  0  0  0  0
    9.1898   10.9721   24.5618 N   0  0  0  0  0  0  0  0  0  0  0  0
    9.0518    9.6989   23.9409 C   0  0  0  0  0  0  0  0  0  0  0  0
   10.1625    9.4335   22.9245 C   0  0  1  0  0  0  0  0  0  0  0  0
   11.0189    8.2874   23.3255 C   0  0  0  0  0  0  0  0  0  0  0  0
   10.0429    7.2859   23.2816 N   0  0  0  0  0  0  0  0  0  0  0  0
    9.2180    7.6192   22.2418 C   0  0  0  0  0  0  0  0  0  0  0  0
    8.3881    6.8923   21.7564 O   0  0  0  0  0  0  0  0  0  0  0  0
    9.5508    8.8503   21.8110 O   0  0  0  0  0  0  0  0  0  0  0  0
    8.3214   11.5667   25.4131 C   0  0  0  0  0  0  0  0  0  0  0  0
    7.1426   11.1033   26.0040 C   0  0  0  0  0  0  0  0  0  0  0  0
    6.4370   12.0178   26.7779 C   0  0  0  0  0  0  0  0  0  0  0  0
    6.8944   13.3277   26.9325 C   0  0  0  0  0  0  0  0  0  0  0  0
    8.0846   13.7678   26.3320 C   0  0  0  0  0  0  0  0  0  0  0  0
    8.8292   12.8580   25.5699 C   0  0  0  0  0  0  0  0  0  0  0  0
  1  2  1  0
  2  3  1  0
  3  4  1  0
  4  5  2  0
  5  6  1  0
  6  7  1  0
  7  8  1  0
  8  9  1  0
  9 10  2  0
  9 11  1  0
 11 12  2  0
 12 13  1  0
 13 14  1  0
 15 14  1  1
 15 16  1  0
 16 17  1  0
 17 18  1  0
 18 19  2  0
 18 20  1  0
 13 21  1  0
 21 22  2  0
 22 23  1  0
 23 24  2  0
 24 25  1  0
 25 26  2  0
  6  2  2  0
 26 11  1  0
 20 15  1  0
 26 21  1  0
M  END
>  <energy_score>  (585) 
-6.325599

>  <inchikey>  (585) 
None

>  <smiles>  (585) 
None

>  <ref_pdb>  (585) 
A2290a

>  <alias>  (585) 
None

>  <HIPPO Pose ID>  (585) 
499043

>  <name>  (585) 
P499043

>  <HIPPO Compound ID>  (585) 
299372

>  <ref_mols>  (585) 
A3403a,A2290a

>  <distance_score>  (585) 
1.321535

>  <inspiration_score>  (585) 
None

$$$$
P499045
     RDKit          3D

 27 30  0  0  0  0  0  0  0  0999 V2000
    8.5546    6.9452   21.7927 O   0  0  0  0  0  0  0  0  0  0  0  0
    9.3751    7.7138   22.2378 C   0  0  0  0  0  0  0  0  0  0  0  0
    9.9200    8.7696   21.5991 N   0  0  0  0  0  0  0  0  0  0  0  0
   10.0411    9.7986   22.5346 C   0  0  0  0  0  0  0  0  0  0  0  0
   10.0229    9.0123   23.8080 C   0  0  1  0  0  0  0  0  0  0  0  0
    8.7602    9.3217   24.5654 C   0  0  0  0  0  0  0  0  0  0  0  0
    8.7417   10.6616   25.0600 N   0  0  0  0  0  0  0  0  0  0  0  0
    9.6692   11.5129   24.6292 N   0  0  0  0  0  0  0  0  0  0  0  0
    9.0742   12.6973   24.7316 C   0  0  0  0  0  0  0  0  0  0  0  0
    9.6132   13.8058   23.9738 C   0  0  0  0  0  0  0  0  0  0  0  0
   10.6546   14.2679   24.2311 O   0  0  0  0  0  0  0  0  0  0  0  0
    8.5891   14.1866   22.8754 N   0  0  0  0  0  0  0  0  0  0  0  0
    8.6713   15.0890   21.8775 N   0  0  0  0  0  0  0  0  0  0  0  0
    9.7507   15.2872   20.7915 C   0  0  0  0  0  0  0  0  0  0  0  0
   10.6968   14.6546   20.5429 O   0  0  0  0  0  0  0  0  0  0  0  0
    9.3748   16.4973   20.0774 C   0  0  0  0  0  0  0  0  0  0  0  0
    9.7065   16.8925   18.8068 C   0  0  0  0  0  0  0  0  0  0  0  0
    9.0186   18.0364   18.5274 O   0  0  0  0  0  0  0  0  0  0  0  0
    8.3223   18.2996   19.6656 C   0  0  0  0  0  0  0  0  0  0  0  0
    8.4836   17.4134   20.6206 N   0  0  0  0  0  0  0  0  0  0  0  0
    7.9043   12.6076   25.5231 C   0  0  0  0  0  0  0  0  0  0  0  0
    6.9583   13.5032   26.0328 C   0  0  0  0  0  0  0  0  0  0  0  0
    5.8849   12.9839   26.7657 C   0  0  0  0  0  0  0  0  0  0  0  0
    5.7283   11.6097   26.9573 C   0  0  0  0  0  0  0  0  0  0  0  0
    6.6367   10.7005   26.4252 C   0  0  0  0  0  0  0  0  0  0  0  0
    7.7194   11.2441   25.7348 C   0  0  0  0  0  0  0  0  0  0  0  0
    9.9042    7.6513   23.4578 O   0  0  0  0  0  0  0  0  0  0  0  0
  1  2  2  0
  2  3  1  0
  3  4  1  0
  4  5  1  0
  5  6  1  1
  6  7  1  0
  7  8  1  0
  8  9  2  0
  9 10  1  0
 10 11  2  0
 10 12  1  0
 12 13  1  0
 13 14  1  0
 14 15  2  0
 14 16  1  0
 16 17  2  0
 17 18  1  0
 18 19  1  0
 19 20  2  0
  9 21  1  0
 21 22  2  0
 22 23  1  0
 23 24  2  0
 24 25  1  0
 25 26  2  0
  5 27  1  0
 27  2  1  0
 26  7  1  0
 20 16  1  0
 26 21  1  0
M  END
>  <energy_score>  (586) 
-9.817873

>  <inchikey>  (586) 
None

>  <smiles>  (586) 
None

>  <ref_pdb>  (586) 
A2290a

>  <alias>  (586) 
None

>  <HIPPO Pose ID>  (586) 
499045

>  <name>  (586) 
P499045

>  <HIPPO Compound ID>  (586) 
299386

>  <ref_mols>  (586) 
A3403a,A2290a

>  <distance_score>  (586) 
1.831257

>  <inspiration_score>  (586) 
None

$$$$
P499053
     RDKit          3D

 27 30  0  0  0  0  0  0  0  0999 V2000
   12.1657   14.0756   18.8244 C   0  0  0  0  0  0  0  0  0  0  0  0
   11.3654   14.6115   19.8784 C   0  0  0  0  0  0  0  0  0  0  0  0
   10.2835   15.2005   19.3876 O   0  0  0  0  0  0  0  0  0  0  0  0
    9.8605   15.9534   20.4059 C   0  0  0  0  0  0  0  0  0  0  0  0
    9.1705   17.0873   19.9107 C   0  0  0  0  0  0  0  0  0  0  0  0
    8.5896   17.9900   20.7587 C   0  0  0  0  0  0  0  0  0  0  0  0
    7.8476   18.9923   20.2152 C   0  0  0  0  0  0  0  0  0  0  0  0
    7.5654   18.9849   18.8792 C   0  0  0  0  0  0  0  0  0  0  0  0
    8.2301   18.1640   18.0068 C   0  0  0  0  0  0  0  0  0  0  0  0
    9.1046   17.2640   18.5194 C   0  0  0  0  0  0  0  0  0  0  0  0
   10.3345   15.6017   21.5754 N   0  0  0  0  0  0  0  0  0  0  0  0
   11.3598   14.7540   21.2346 C   0  0  0  0  0  0  0  0  0  0  0  0
   12.2426   14.1688   22.2430 C   0  0  0  0  0  0  0  0  0  0  0  0
   11.4625   13.1724   22.8836 N   0  0  0  0  0  0  0  0  0  0  0  0
   10.6848   13.2126   24.1964 C   0  0  0  0  0  0  0  0  0  0  0  0
   10.6172   14.0431   25.0087 O   0  0  0  0  0  0  0  0  0  0  0  0
    9.8837   11.9864   24.2523 C   0  0  0  0  0  0  0  0  0  0  0  0
   10.1983   10.9394   23.4689 N   0  0  0  0  0  0  0  0  0  0  0  0
    9.3134    9.9909   23.8062 N   0  0  0  0  0  0  0  0  0  0  0  0
    9.3917    8.7221   23.1236 C   0  0  0  0  0  0  0  0  0  0  0  0
    8.4214   10.3947   24.7711 C   0  0  0  0  0  0  0  0  0  0  0  0
    7.3714    9.7445   25.4273 C   0  0  0  0  0  0  0  0  0  0  0  0
    6.6132   10.4777   26.3433 C   0  0  0  0  0  0  0  0  0  0  0  0
    6.9009   11.8130   26.5873 C   0  0  0  0  0  0  0  0  0  0  0  0
    6.1647   12.4859   27.4822 F   0  0  0  0  0  0  0  0  0  0  0  0
    7.9565   12.4583   25.9504 C   0  0  0  0  0  0  0  0  0  0  0  0
    8.7393   11.7245   25.0402 C   0  0  0  0  0  0  0  0  0  0  0  0
  1  2  1  0
  2  3  1  0
  3  4  1  0
  4  5  1  0
  5  6  2  0
  6  7  1  0
  7  8  2  0
  8  9  1  0
  9 10  2  0
  4 11  2  0
 11 12  1  0
 12 13  1  0
 13 14  1  0
 14 15  1  0
 15 16  2  0
 15 17  1  0
 17 18  2  0
 18 19  1  0
 19 20  1  0
 19 21  1  0
 21 22  2  0
 22 23  1  0
 23 24  2  0
 24 25  1  0
 24 26  1  0
 26 27  2  0
 12  2  2  0
 27 17  1  0
 10  5  1  0
 27 21  1  0
M  END
>  <energy_score>  (587) 
-7.566361

>  <inchikey>  (587) 
None

>  <smiles>  (587) 
None

>  <ref_pdb>  (587) 
A2290a

>  <alias>  (587) 
None

>  <HIPPO Pose ID>  (587) 
499053

>  <name>  (587) 
P499053

>  <HIPPO Compound ID>  (587) 
299407

>  <ref_mols>  (587) 
A3403a,A2290a

>  <distance_score>  (587) 
0.919625

>  <inspiration_score>  (587) 
None

$$$$
P499054
     RDKit          3D

 28 31  0  0  0  0  0  0  0  0999 V2000
   11.9079   11.9834   24.2965 O   0  0  0  0  0  0  0  0  0  0  0  0
   10.9091   12.3001   23.7922 C   0  0  0  0  0  0  0  0  0  0  0  0
   10.6510   13.1927   22.5775 N   0  0  0  0  0  0  0  0  0  0  0  0
   11.5596   13.9657   21.7768 C   0  0  0  0  0  0  0  0  0  0  0  0
   10.7849   14.8152   20.8519 C   0  0  0  0  0  0  0  0  0  0  0  0
   10.8113   14.9036   19.4822 C   0  0  0  0  0  0  0  0  0  0  0  0
    9.9753   15.9134   19.1073 O   0  0  0  0  0  0  0  0  0  0  0  0
    9.5005   16.4142   20.2825 C   0  0  0  0  0  0  0  0  0  0  0  0
    8.5368   17.8277   20.3983 Cl  0  0  0  0  0  0  0  0  0  0  0  0
    9.8841   15.7303   21.3399 N   0  0  0  0  0  0  0  0  0  0  0  0
    9.6034   11.8692   24.3531 C   0  0  0  0  0  0  0  0  0  0  0  0
    9.1112   10.6138   24.2929 N   0  0  0  0  0  0  0  0  0  0  0  0
    7.9152   10.6907   24.9475 N   0  0  0  0  0  0  0  0  0  0  0  0
    7.2642    9.4678   25.4481 C   0  0  0  0  0  0  0  0  0  0  0  0
    6.1905    9.6057   26.5612 C   0  0  0  0  0  0  0  0  0  0  0  0
    6.4936   10.3379   27.7325 C   0  0  0  0  0  0  0  0  0  0  0  0
    5.6163   10.4510   28.8167 C   0  0  0  0  0  0  0  0  0  0  0  0
    4.3920    9.8106   28.7722 C   0  0  0  0  0  0  0  0  0  0  0  0
    3.3055    9.9326   30.0967 Cl  0  0  0  0  0  0  0  0  0  0  0  0
    4.0427    9.0743   27.6519 C   0  0  0  0  0  0  0  0  0  0  0  0
    4.9230    8.9732   26.5576 C   0  0  0  0  0  0  0  0  0  0  0  0
    4.3336    7.9456   25.2898 Cl  0  0  0  0  0  0  0  0  0  0  0  0
    7.5724   11.9770   25.2655 C   0  0  0  0  0  0  0  0  0  0  0  0
    6.4093   12.5455   25.7937 C   0  0  0  0  0  0  0  0  0  0  0  0
    6.4596   13.8549   26.2399 C   0  0  0  0  0  0  0  0  0  0  0  0
    7.6277   14.5892   26.1257 C   0  0  0  0  0  0  0  0  0  0  0  0
    8.7564   14.0442   25.5118 C   0  0  0  0  0  0  0  0  0  0  0  0
    8.7169   12.7229   25.0506 C   0  0  0  0  0  0  0  0  0  0  0  0
  1  2  2  0
  2  3  1  0
  3  4  1  0
  4  5  1  0
  5  6  2  0
  6  7  1  0
  7  8  1  0
  8  9  1  0
  8 10  2  0
  2 11  1  0
 11 12  2  0
 12 13  1  0
 13 14  1  0
 14 15  1  0
 15 16  2  0
 16 17  1  0
 17 18  2  0
 18 19  1  0
 18 20  1  0
 20 21  2  0
 21 22  1  0
 13 23  1  0
 23 24  2  0
 24 25  1  0
 25 26  2  0
 26 27  1  0
 27 28  2  0
 10  5  1  0
 28 11  1  0
 21 15  1  0
 28 23  1  0
M  END
>  <energy_score>  (588) 
-5.090941

>  <inchikey>  (588) 
None

>  <smiles>  (588) 
None

>  <ref_pdb>  (588) 
A2290a

>  <alias>  (588) 
None

>  <HIPPO Pose ID>  (588) 
499054

>  <name>  (588) 
P499054

>  <HIPPO Compound ID>  (588) 
299412

>  <ref_mols>  (588) 
A3403a,A2290a

>  <distance_score>  (588) 
1.812884

>  <inspiration_score>  (588) 
None

$$$$
P499056
     RDKit          3D

 28 31  0  0  0  0  0  0  0  0999 V2000
   10.6607   14.0589   25.0783 O   0  0  0  0  0  0  0  0  0  0  0  0
   10.7396   13.2422   24.2537 C   0  0  0  0  0  0  0  0  0  0  0  0
   11.5383   13.2216   22.9546 N   0  0  0  0  0  0  0  0  0  0  0  0
   12.3293   14.2229   22.3458 C   0  0  0  0  0  0  0  0  0  0  0  0
   11.5824   14.6474   21.1668 C   0  0  0  0  0  0  0  0  0  0  0  0
   11.8100   14.4140   19.8371 C   0  0  0  0  0  0  0  0  0  0  0  0
   10.8650   15.0742   19.1314 O   0  0  0  0  0  0  0  0  0  0  0  0
   10.1486   15.7244   20.0894 C   0  0  0  0  0  0  0  0  0  0  0  0
    9.3550   16.8313   19.6556 C   0  0  0  0  0  0  0  0  0  0  0  0
    9.1684   17.1210   18.3194 C   0  0  0  0  0  0  0  0  0  0  0  0
    8.2704   18.0913   17.9591 C   0  0  0  0  0  0  0  0  0  0  0  0
    7.6874   18.8814   18.9271 C   0  0  0  0  0  0  0  0  0  0  0  0
    8.0463   18.7487   20.2347 C   0  0  0  0  0  0  0  0  0  0  0  0
    8.7976   17.6695   20.6065 C   0  0  0  0  0  0  0  0  0  0  0  0
   10.4603   15.4070   21.3231 N   0  0  0  0  0  0  0  0  0  0  0  0
    9.9723   11.9968   24.2789 C   0  0  0  0  0  0  0  0  0  0  0  0
   10.3606   10.9719   23.5023 N   0  0  0  0  0  0  0  0  0  0  0  0
    9.4776    9.9810   23.7655 N   0  0  0  0  0  0  0  0  0  0  0  0
    9.5461    8.7333   22.9908 C   0  0  0  0  0  0  0  0  0  0  0  0
   10.0117    8.9495   21.7377 F   0  0  0  0  0  0  0  0  0  0  0  0
    8.3291    8.1663   22.8815 F   0  0  0  0  0  0  0  0  0  0  0  0
   10.3655    7.8075   23.5397 F   0  0  0  0  0  0  0  0  0  0  0  0
    8.5490   10.3501   24.7226 C   0  0  0  0  0  0  0  0  0  0  0  0
    7.4961    9.6691   25.3402 C   0  0  0  0  0  0  0  0  0  0  0  0
    6.6844   10.3687   26.2387 C   0  0  0  0  0  0  0  0  0  0  0  0
    6.9133   11.7123   26.5136 C   0  0  0  0  0  0  0  0  0  0  0  0
    7.9797   12.3831   25.9132 C   0  0  0  0  0  0  0  0  0  0  0  0
    8.8164   11.6844   25.0227 C   0  0  0  0  0  0  0  0  0  0  0  0
  1  2  2  0
  2  3  1  0
  3  4  1  0
  4  5  1  0
  5  6  2  0
  6  7  1  0
  7  8  1  0
  8  9  1  0
  9 10  2  0
 10 11  1  0
 11 12  2  0
 12 13  1  0
 13 14  2  0
  8 15  2  0
  2 16  1  0
 16 17  2  0
 17 18  1  0
 18 19  1  0
 19 20  1  0
 19 21  1  0
 19 22  1  0
 18 23  1  0
 23 24  2  0
 24 25  1  0
 25 26  2  0
 26 27  1  0
 27 28  2  0
 15  5  1  0
 28 16  1  0
 14  9  1  0
 28 23  1  0
M  END
>  <energy_score>  (589) 
-20.508245

>  <inchikey>  (589) 
None

>  <smiles>  (589) 
None

>  <ref_pdb>  (589) 
A2290a

>  <alias>  (589) 
None

>  <HIPPO Pose ID>  (589) 
499056

>  <name>  (589) 
P499056

>  <HIPPO Compound ID>  (589) 
299423

>  <ref_mols>  (589) 
A3403a,A2290a

>  <distance_score>  (589) 
1.017395

>  <inspiration_score>  (589) 
None

$$$$
P499057
     RDKit          3D

 28 31  0  0  0  0  0  0  0  0999 V2000
    9.3777    8.7093   23.1314 C   0  0  0  0  0  0  0  0  0  0  0  0
    9.2872    9.9729   23.8221 N   0  0  0  0  0  0  0  0  0  0  0  0
   10.1701   10.9256   23.4986 N   0  0  0  0  0  0  0  0  0  0  0  0
    9.8304   11.9748   24.2676 C   0  0  0  0  0  0  0  0  0  0  0  0
   10.6319   13.1989   24.2273 C   0  0  0  0  0  0  0  0  0  0  0  0
   10.5276   14.0442   25.0192 O   0  0  0  0  0  0  0  0  0  0  0  0
   11.4778   13.1287   22.9609 N   0  0  0  0  0  0  0  0  0  0  0  0
   12.2982   14.1053   22.3468 C   0  0  0  0  0  0  0  0  0  0  0  0
   11.5651   14.5922   21.1809 C   0  0  0  0  0  0  0  0  0  0  0  0
   11.8104   14.3988   19.8476 C   0  0  0  0  0  0  0  0  0  0  0  0
   10.8772   15.0788   19.1482 O   0  0  0  0  0  0  0  0  0  0  0  0
   10.1556   15.7155   20.1121 C   0  0  0  0  0  0  0  0  0  0  0  0
    9.3626   16.8241   19.6771 C   0  0  0  0  0  0  0  0  0  0  0  0
    9.1809   17.1124   18.3385 C   0  0  0  0  0  0  0  0  0  0  0  0
    8.2834   18.0809   17.9695 C   0  0  0  0  0  0  0  0  0  0  0  0
    7.6964   18.8741   18.9317 C   0  0  0  0  0  0  0  0  0  0  0  0
    8.0505   18.7442   20.2411 C   0  0  0  0  0  0  0  0  0  0  0  0
    8.8000   17.6652   20.6207 C   0  0  0  0  0  0  0  0  0  0  0  0
   10.4558   15.3719   21.3433 N   0  0  0  0  0  0  0  0  0  0  0  0
    8.6731   11.7105   25.0336 C   0  0  0  0  0  0  0  0  0  0  0  0
    7.8641   12.4501   25.9177 C   0  0  0  0  0  0  0  0  0  0  0  0
    6.7833   11.7972   26.5253 C   0  0  0  0  0  0  0  0  0  0  0  0
    5.9260   12.5386   27.4501 N   0  0  0  0  0  0  0  0  0  0  0  0
    6.4210   13.5169   28.0277 O   0  0  0  0  0  0  0  0  0  0  0  0
    4.7746   12.1156   27.6335 O   0  0  0  0  0  0  0  0  0  0  0  0
    6.5242   10.4440   26.2950 C   0  0  0  0  0  0  0  0  0  0  0  0
    7.3273    9.7147   25.4152 C   0  0  0  0  0  0  0  0  0  0  0  0
    8.3778   10.3746   24.7724 C   0  0  0  0  0  0  0  0  0  0  0  0
  1  2  1  0
  2  3  1  0
  3  4  2  0
  4  5  1  0
  5  6  2  0
  5  7  1  0
  7  8  1  0
  8  9  1  0
  9 10  2  0
 10 11  1  0
 11 12  1  0
 12 13  1  0
 13 14  2  0
 14 15  1  0
 15 16  2  0
 16 17  1  0
 17 18  2  0
 12 19  2  0
  4 20  1  0
 20 21  2  0
 21 22  1  0
 22 23  1  0
 23 24  2  0
 23 25  1  0
 22 26  2  0
 26 27  1  0
 27 28  2  0
 28  2  1  0
 19  9  1  0
 28 20  1  0
 18 13  1  0
M  CHG  2  23   1  25  -1
M  END
>  <energy_score>  (590) 
-40.900264

>  <inchikey>  (590) 
None

>  <smiles>  (590) 
None

>  <ref_pdb>  (590) 
A2290a

>  <alias>  (590) 
None

>  <HIPPO Pose ID>  (590) 
499057

>  <name>  (590) 
P499057

>  <HIPPO Compound ID>  (590) 
299424

>  <ref_mols>  (590) 
A3403a,A2290a

>  <distance_score>  (590) 
0.999529

>  <inspiration_score>  (590) 
None

$$$$
P499058
     RDKit          3D

 28 31  0  0  0  0  0  0  0  0999 V2000
    9.1724    8.6791   23.2907 C   0  0  0  0  0  0  0  0  0  0  0  0
    9.0837    9.8137   24.1755 N   0  0  0  0  0  0  0  0  0  0  0  0
   10.0242   10.7552   24.0372 N   0  0  0  0  0  0  0  0  0  0  0  0
    9.7038   11.6725   24.9674 C   0  0  0  0  0  0  0  0  0  0  0  0
   10.3048   12.9838   24.9613 C   0  0  0  0  0  0  0  0  0  0  0  0
   10.3820   13.7098   25.8593 O   0  0  0  0  0  0  0  0  0  0  0  0
   10.6841   13.1703   23.5210 N   0  0  0  0  0  0  0  0  0  0  0  0
   11.1440   14.2903   22.8475 C   0  0  0  0  0  0  0  0  0  0  0  0
    9.7464   14.6787   22.4256 C   0  0  0  0  0  0  0  0  0  0  0  0
    8.6306   14.5359   23.2722 N   0  0  0  0  0  0  0  0  0  0  0  0
    7.6079   14.9216   22.5466 C   0  0  0  0  0  0  0  0  0  0  0  0
    7.9298   15.2833   21.2933 O   0  0  0  0  0  0  0  0  0  0  0  0
    9.2649   15.1246   21.2429 C   0  0  0  0  0  0  0  0  0  0  0  0
    9.9023   15.4219   20.0448 C   0  0  0  0  0  0  0  0  0  0  0  0
    9.5583   16.5613   19.3572 C   0  0  0  0  0  0  0  0  0  0  0  0
   10.3123   16.8351   18.2709 C   0  0  0  0  0  0  0  0  0  0  0  0
   11.4040   16.0043   17.9582 C   0  0  0  0  0  0  0  0  0  0  0  0
   11.6983   14.8299   18.6079 C   0  0  0  0  0  0  0  0  0  0  0  0
   10.9447   14.5721   19.6900 C   0  0  0  0  0  0  0  0  0  0  0  0
    8.4743   11.4009   25.5857 C   0  0  0  0  0  0  0  0  0  0  0  0
    7.6155   12.1252   26.4364 C   0  0  0  0  0  0  0  0  0  0  0  0
    6.4304   11.5151   26.8455 C   0  0  0  0  0  0  0  0  0  0  0  0
    5.5235   12.2273   27.7454 N   0  0  0  0  0  0  0  0  0  0  0  0
    4.3377   11.8649   27.7748 O   0  0  0  0  0  0  0  0  0  0  0  0
    6.0049   13.1269   28.4489 O   0  0  0  0  0  0  0  0  0  0  0  0
    6.1110   10.2258   26.4304 C   0  0  0  0  0  0  0  0  0  0  0  0
    6.9516    9.5416   25.5471 C   0  0  0  0  0  0  0  0  0  0  0  0
    8.1176   10.1525   25.0986 C   0  0  0  0  0  0  0  0  0  0  0  0
  1  2  1  0
  2  3  1  0
  3  4  2  0
  4  5  1  0
  5  6  2  0
  5  7  1  0
  7  8  1  0
  8  9  1  0
  9 10  1  0
 10 11  2  0
 11 12  1  0
 12 13  1  0
 13 14  1  0
 14 15  2  0
 15 16  1  0
 16 17  2  0
 17 18  1  0
 18 19  2  0
  4 20  1  0
 20 21  2  0
 21 22  1  0
 22 23  1  0
 23 24  2  0
 23 25  1  0
 22 26  2  0
 26 27  1  0
 27 28  2  0
 28  2  1  0
 13  9  2  0
 19 14  1  0
 28 20  1  0
M  CHG  2  23   1  25  -1
M  END
>  <energy_score>  (591) 
-17.01715

>  <inchikey>  (591) 
None

>  <smiles>  (591) 
None

>  <ref_pdb>  (591) 
A2290a

>  <alias>  (591) 
None

>  <HIPPO Pose ID>  (591) 
499058

>  <name>  (591) 
P499058

>  <HIPPO Compound ID>  (591) 
299426

>  <ref_mols>  (591) 
A3403a,A2290a

>  <distance_score>  (591) 
1.947211

>  <inspiration_score>  (591) 
None

$$$$
P499059
     RDKit          3D

 28 31  0  0  0  0  0  0  0  0999 V2000
    9.5959    8.1802   20.2736 O   0  0  0  0  0  0  0  0  0  0  0  0
    9.6620    8.3826   21.4750 C   0  0  0  0  0  0  0  0  0  0  0  0
    9.2853    7.4486   22.3767 N   0  0  0  0  0  0  0  0  0  0  0  0
   10.2107    7.6056   23.4120 C   0  0  0  0  0  0  0  0  0  0  0  0
   10.1714    9.0734   23.4975 C   0  0  2  0  0  0  0  0  0  0  0  0
    8.8555    9.4664   24.1252 C   0  0  0  0  0  0  0  0  0  0  0  0
    8.8727   10.8465   24.4941 N   0  0  0  0  0  0  0  0  0  0  0  0
    9.8077   11.6141   23.9638 N   0  0  0  0  0  0  0  0  0  0  0  0
    9.7454   12.7496   24.6587 C   0  0  0  0  0  0  0  0  0  0  0  0
   10.7548   13.7502   24.3340 C   0  0  0  0  0  0  0  0  0  0  0  0
   11.1693   14.5230   25.1030 O   0  0  0  0  0  0  0  0  0  0  0  0
   11.0447   13.5828   22.8338 N   0  0  0  0  0  0  0  0  0  0  0  0
   11.8243   14.3793   21.9472 C   0  0  0  0  0  0  0  0  0  0  0  0
   10.8608   15.0167   21.0110 C   0  0  0  0  0  0  0  0  0  0  0  0
    9.8220   15.7756   21.4799 N   0  0  0  0  0  0  0  0  0  0  0  0
    9.3366   16.3702   20.4207 C   0  0  0  0  0  0  0  0  0  0  0  0
    9.8606   15.9389   19.2485 O   0  0  0  0  0  0  0  0  0  0  0  0
   10.8376   15.0597   19.6374 C   0  0  0  0  0  0  0  0  0  0  0  0
   11.7150   14.5172   18.6075 C   0  0  0  0  0  0  0  0  0  0  0  0
   11.1461   13.4818   17.9647 F   0  0  0  0  0  0  0  0  0  0  0  0
   12.8426   14.0064   19.1771 F   0  0  0  0  0  0  0  0  0  0  0  0
    8.6399   12.7292   25.5492 C   0  0  0  0  0  0  0  0  0  0  0  0
    8.0299   13.6236   26.4388 C   0  0  0  0  0  0  0  0  0  0  0  0
    6.9164   13.1881   27.1719 C   0  0  0  0  0  0  0  0  0  0  0  0
    6.4146   11.8925   27.0373 C   0  0  0  0  0  0  0  0  0  0  0  0
    6.9997   10.9874   26.1582 C   0  0  0  0  0  0  0  0  0  0  0  0
    8.0976   11.4495   25.4271 C   0  0  0  0  0  0  0  0  0  0  0  0
   10.1937    9.4466   22.1184 O   0  0  0  0  0  0  0  0  0  0  0  0
  1  2  2  0
  2  3  1  0
  3  4  1  0
  4  5  1  0
  5  6  1  6
  6  7  1  0
  7  8  1  0
  8  9  2  0
  9 10  1  0
 10 11  2  0
 10 12  1  0
 12 13  1  0
 13 14  1  0
 14 15  1  0
 15 16  2  0
 16 17  1  0
 17 18  1  0
 18 19  1  0
 19 20  1  0
 19 21  1  0
  9 22  1  0
 22 23  2  0
 23 24  1  0
 24 25  2  0
 25 26  1  0
 26 27  2  0
  5 28  1  0
 28  2  1  0
 27  7  1  0
 18 14  2  0
 27 22  1  0
M  END
>  <energy_score>  (592) 
-28.063548

>  <inchikey>  (592) 
None

>  <smiles>  (592) 
None

>  <ref_pdb>  (592) 
A2290a

>  <alias>  (592) 
None

>  <HIPPO Pose ID>  (592) 
499059

>  <name>  (592) 
P499059

>  <HIPPO Compound ID>  (592) 
299429

>  <ref_mols>  (592) 
A3403a,A2290a

>  <distance_score>  (592) 
1.28036

>  <inspiration_score>  (592) 
None

$$$$
P499060
     RDKit          3D

 28 32  0  0  0  0  0  0  0  0999 V2000
    9.5618    8.1021   20.3221 O   0  0  0  0  0  0  0  0  0  0  0  0
    9.6387    8.3239   21.5196 C   0  0  0  0  0  0  0  0  0  0  0  0
   10.4857    9.2146   22.0859 N   0  0  0  0  0  0  0  0  0  0  0  0
   10.7059    8.7630   23.3980 C   0  0  0  0  0  0  0  0  0  0  0  0
    9.3558    8.2678   23.7143 C   0  0  1  0  0  0  0  0  0  0  0  0
    8.3353    9.3065   24.0188 C   0  0  0  0  0  0  0  0  0  0  0  0
    8.6537   10.4996   24.7355 N   0  0  0  0  0  0  0  0  0  0  0  0
    9.5010   11.3654   24.1706 N   0  0  0  0  0  0  0  0  0  0  0  0
    9.2742   12.5191   24.8101 C   0  0  0  0  0  0  0  0  0  0  0  0
   10.0539   13.6900   24.4366 C   0  0  0  0  0  0  0  0  0  0  0  0
   10.6530   14.3061   25.2247 O   0  0  0  0  0  0  0  0  0  0  0  0
    9.9868   13.8251   22.9091 N   0  0  0  0  0  0  0  0  0  0  0  0
   10.7071   14.6761   22.0224 C   0  0  0  0  0  0  0  0  0  0  0  0
    9.8789   15.5056   21.1004 C   0  0  0  0  0  0  0  0  0  0  0  0
    8.7297   16.1414   21.4814 N   0  0  0  0  0  0  0  0  0  0  0  0
    8.6080   17.1218   20.6140 C   0  0  0  0  0  0  0  0  0  0  0  0
    9.3755   16.9884   19.5102 O   0  0  0  0  0  0  0  0  0  0  0  0
   10.1560   15.9247   19.8168 C   0  0  0  0  0  0  0  0  0  0  0  0
   11.2189   15.3882   18.8670 C   0  0  0  0  0  0  0  0  0  0  0  0
   12.3691   14.4844   19.2601 C   0  0  0  0  0  0  0  0  0  0  0  0
   11.1165   13.9448   18.7650 C   0  0  0  0  0  0  0  0  0  0  0  0
    8.2508   12.3858   25.7702 C   0  0  0  0  0  0  0  0  0  0  0  0
    7.5841   13.2492   26.6490 C   0  0  0  0  0  0  0  0  0  0  0  0
    6.5427   12.7359   27.4272 C   0  0  0  0  0  0  0  0  0  0  0  0
    6.1678   11.3963   27.3383 C   0  0  0  0  0  0  0  0  0  0  0  0
    6.8210   10.5218   26.4735 C   0  0  0  0  0  0  0  0  0  0  0  0
    7.8665   11.0494   25.7087 C   0  0  0  0  0  0  0  0  0  0  0  0
    8.9960    7.6310   22.4889 O   0  0  0  0  0  0  0  0  0  0  0  0
  1  2  2  0
  2  3  1  0
  3  4  1  0
  4  5  1  0
  5  6  1  6
  6  7  1  0
  7  8  1  0
  8  9  2  0
  9 10  1  0
 10 11  2  0
 10 12  1  0
 12 13  1  0
 13 14  1  0
 14 15  1  0
 15 16  2  0
 16 17  1  0
 17 18  1  0
 18 19  1  0
 19 20  1  0
 20 21  1  0
  9 22  1  0
 22 23  2  0
 23 24  1  0
 24 25  2  0
 25 26  1  0
 26 27  2  0
  5 28  1  0
 28  2  1  0
 27  7  1  0
 18 14  2  0
 21 19  1  0
 27 22  1  0
M  END
>  <energy_score>  (593) 
-5.296204

>  <inchikey>  (593) 
None

>  <smiles>  (593) 
None

>  <ref_pdb>  (593) 
A2290a

>  <alias>  (593) 
None

>  <HIPPO Pose ID>  (593) 
499060

>  <name>  (593) 
P499060

>  <HIPPO Compound ID>  (593) 
299449

>  <ref_mols>  (593) 
A3403a,A2290a

>  <distance_score>  (593) 
1.502504

>  <inspiration_score>  (593) 
None

$$$$
P499066
     RDKit          3D

 29 32  0  0  0  0  0  0  0  0999 V2000
    7.2550   19.2598   19.6480 C   0  0  0  0  0  0  0  0  0  0  0  0
    8.3341   18.2889   19.6958 C   0  0  0  0  0  0  0  0  0  0  0  0
    8.4945   17.6291   20.8911 C   0  0  0  0  0  0  0  0  0  0  0  0
    9.0439   16.3947   20.8555 C   0  0  0  0  0  0  0  0  0  0  0  0
    9.7452   15.9923   19.7327 C   0  0  0  0  0  0  0  0  0  0  0  0
   10.6068   14.9041   20.0088 C   0  0  0  0  0  0  0  0  0  0  0  0
   10.7041   14.3859   21.2095 N   0  0  0  0  0  0  0  0  0  0  0  0
   12.0081   14.0433   21.2843 C   0  0  0  0  0  0  0  0  0  0  0  0
   12.5370   13.6124   22.5761 C   0  0  0  0  0  0  0  0  0  0  0  0
   11.5160   12.8558   23.1898 N   0  0  0  0  0  0  0  0  0  0  0  0
   10.6116   13.1862   24.3671 C   0  0  0  0  0  0  0  0  0  0  0  0
   10.6056   14.1046   25.0790 O   0  0  0  0  0  0  0  0  0  0  0  0
    9.6532   12.0832   24.4339 C   0  0  0  0  0  0  0  0  0  0  0  0
    9.8670   10.9937   23.6702 N   0  0  0  0  0  0  0  0  0  0  0  0
    8.9581   10.1048   24.1034 N   0  0  0  0  0  0  0  0  0  0  0  0
    9.0804    8.6959   23.7488 C   0  0  0  0  0  0  0  0  0  0  0  0
    8.3278    8.3426   22.6981 F   0  0  0  0  0  0  0  0  0  0  0  0
   10.3491    8.3114   23.4726 F   0  0  0  0  0  0  0  0  0  0  0  0
    8.6213    7.9585   24.7810 F   0  0  0  0  0  0  0  0  0  0  0  0
    8.0806   10.6361   25.0281 C   0  0  0  0  0  0  0  0  0  0  0  0
    6.9942   10.0917   25.7256 C   0  0  0  0  0  0  0  0  0  0  0  0
    6.3114   10.9207   26.6174 C   0  0  0  0  0  0  0  0  0  0  0  0
    6.6990   12.2433   26.8098 C   0  0  0  0  0  0  0  0  0  0  0  0
    7.7964   12.7706   26.1261 C   0  0  0  0  0  0  0  0  0  0  0  0
    8.4989   11.9481   25.2297 C   0  0  0  0  0  0  0  0  0  0  0  0
   12.5627   14.1473   20.0373 C   0  0  0  0  0  0  0  0  0  0  0  0
   11.6536   14.6851   19.1859 O   0  0  0  0  0  0  0  0  0  0  0  0
    9.7384   16.7530   18.5823 C   0  0  0  0  0  0  0  0  0  0  0  0
    8.8951   17.8264   18.5285 C   0  0  0  0  0  0  0  0  0  0  0  0
  1  2  1  0
  2  3  2  0
  3  4  1  0
  4  5  2  0
  5  6  1  0
  6  7  2  0
  7  8  1  0
  8  9  1  0
  9 10  1  0
 10 11  1  0
 11 12  2  0
 11 13  1  0
 13 14  2  0
 14 15  1  0
 15 16  1  0
 16 17  1  0
 16 18  1  0
 16 19  1  0
 15 20  1  0
 20 21  2  0
 21 22  1  0
 22 23  2  0
 23 24  1  0
 24 25  2  0
  8 26  2  0
 26 27  1  0
  5 28  1  0
 28 29  2  0
 29  2  1  0
 27  6  1  0
 25 13  1  0
 25 20  1  0
M  END
>  <energy_score>  (594) 
-0.155075

>  <inchikey>  (594) 
None

>  <smiles>  (594) 
None

>  <ref_pdb>  (594) 
A2290a

>  <alias>  (594) 
None

>  <HIPPO Pose ID>  (594) 
499066

>  <name>  (594) 
P499066

>  <HIPPO Compound ID>  (594) 
299471

>  <ref_mols>  (594) 
A3403a,A2290a

>  <distance_score>  (594) 
1.396853

>  <inspiration_score>  (594) 
None

$$$$
P499067
     RDKit          3D

 29 32  0  0  0  0  0  0  0  0999 V2000
   12.1648   14.0812   18.8217 C   0  0  0  0  0  0  0  0  0  0  0  0
   11.3643   14.6262   19.8714 C   0  0  0  0  0  0  0  0  0  0  0  0
   10.2656   15.1892   19.3823 O   0  0  0  0  0  0  0  0  0  0  0  0
    9.8491   15.9564   20.3924 C   0  0  0  0  0  0  0  0  0  0  0  0
    9.1621   17.0898   19.8962 C   0  0  0  0  0  0  0  0  0  0  0  0
    8.5869   17.9922   20.7491 C   0  0  0  0  0  0  0  0  0  0  0  0
    7.8446   18.9957   20.2107 C   0  0  0  0  0  0  0  0  0  0  0  0
    7.5603   18.9903   18.8753 C   0  0  0  0  0  0  0  0  0  0  0  0
    8.2211   18.1693   17.9988 C   0  0  0  0  0  0  0  0  0  0  0  0
    9.0944   17.2660   18.5067 C   0  0  0  0  0  0  0  0  0  0  0  0
   10.3361   15.6304   21.5622 N   0  0  0  0  0  0  0  0  0  0  0  0
   11.3795   14.8078   21.2230 C   0  0  0  0  0  0  0  0  0  0  0  0
   12.2926   14.2866   22.2377 C   0  0  0  0  0  0  0  0  0  0  0  0
   11.5533   13.2604   22.8771 N   0  0  0  0  0  0  0  0  0  0  0  0
   10.7670   13.2714   24.1865 C   0  0  0  0  0  0  0  0  0  0  0  0
   10.6594   14.1009   24.9955 O   0  0  0  0  0  0  0  0  0  0  0  0
   10.0233   12.0114   24.2359 C   0  0  0  0  0  0  0  0  0  0  0  0
   10.4082   10.9887   23.4574 N   0  0  0  0  0  0  0  0  0  0  0  0
    9.5414    9.9887   23.7373 N   0  0  0  0  0  0  0  0  0  0  0  0
    9.6294    8.7321   22.9804 C   0  0  0  0  0  0  0  0  0  0  0  0
   10.5109    7.8525   23.5089 F   0  0  0  0  0  0  0  0  0  0  0  0
    8.4332    8.1148   22.9295 F   0  0  0  0  0  0  0  0  0  0  0  0
   10.0302    8.9477   21.7060 F   0  0  0  0  0  0  0  0  0  0  0  0
    8.6081   10.3567   24.6900 C   0  0  0  0  0  0  0  0  0  0  0  0
    7.5608    9.6702   25.3125 C   0  0  0  0  0  0  0  0  0  0  0  0
    6.7452   10.3681   26.2090 C   0  0  0  0  0  0  0  0  0  0  0  0
    6.9637   11.7155   26.4745 C   0  0  0  0  0  0  0  0  0  0  0  0
    8.0249   12.3913   25.8691 C   0  0  0  0  0  0  0  0  0  0  0  0
    8.8687   11.6940   24.9837 C   0  0  0  0  0  0  0  0  0  0  0  0
  1  2  1  0
  2  3  1  0
  3  4  1  0
  4  5  1  0
  5  6  2  0
  6  7  1  0
  7  8  2  0
  8  9  1  0
  9 10  2  0
  4 11  2  0
 11 12  1  0
 12 13  1  0
 13 14  1  0
 14 15  1  0
 15 16  2  0
 15 17  1  0
 17 18  2  0
 18 19  1  0
 19 20  1  0
 20 21  1  0
 20 22  1  0
 20 23  1  0
 19 24  1  0
 24 25  2  0
 25 26  1  0
 26 27  2  0
 27 28  1  0
 28 29  2  0
 12  2  2  0
 29 17  1  0
 10  5  1  0
 29 24  1  0
M  END
>  <energy_score>  (595) 
-8.741452

>  <inchikey>  (595) 
None

>  <smiles>  (595) 
None

>  <ref_pdb>  (595) 
A2290a

>  <alias>  (595) 
None

>  <HIPPO Pose ID>  (595) 
499067

>  <name>  (595) 
P499067

>  <HIPPO Compound ID>  (595) 
299472

>  <ref_mols>  (595) 
A3403a,A2290a

>  <distance_score>  (595) 
0.893867

>  <inspiration_score>  (595) 
None

$$$$
P499069
     RDKit          3D

 29 32  0  0  0  0  0  0  0  0999 V2000
   12.1689   14.0748   18.8271 C   0  0  0  0  0  0  0  0  0  0  0  0
   11.3671   14.6123   19.8794 C   0  0  0  0  0  0  0  0  0  0  0  0
   10.2846   15.1996   19.3872 O   0  0  0  0  0  0  0  0  0  0  0  0
    9.8597   15.9524   20.4048 C   0  0  0  0  0  0  0  0  0  0  0  0
    9.1702   17.0864   19.9094 C   0  0  0  0  0  0  0  0  0  0  0  0
    9.1039   17.2629   18.5182 C   0  0  0  0  0  0  0  0  0  0  0  0
    8.2298   18.1635   18.0059 C   0  0  0  0  0  0  0  0  0  0  0  0
    7.5654   18.9846   18.8787 C   0  0  0  0  0  0  0  0  0  0  0  0
    7.8478   18.9919   20.2146 C   0  0  0  0  0  0  0  0  0  0  0  0
    8.5901   17.9895   20.7578 C   0  0  0  0  0  0  0  0  0  0  0  0
   10.3304   15.5999   21.5753 N   0  0  0  0  0  0  0  0  0  0  0  0
   11.3610   14.7576   21.2354 C   0  0  0  0  0  0  0  0  0  0  0  0
   12.2465   14.1784   22.2451 C   0  0  0  0  0  0  0  0  0  0  0  0
   11.4712   13.1739   22.8795 N   0  0  0  0  0  0  0  0  0  0  0  0
   10.6708   13.2107   24.1781 C   0  0  0  0  0  0  0  0  0  0  0  0
   10.5760   14.0455   24.9829 O   0  0  0  0  0  0  0  0  0  0  0  0
    9.8868   11.9747   24.2332 C   0  0  0  0  0  0  0  0  0  0  0  0
   10.2247   10.9267   23.4631 N   0  0  0  0  0  0  0  0  0  0  0  0
    9.3477    9.9699   23.7904 N   0  0  0  0  0  0  0  0  0  0  0  0
    9.4382    8.7053   23.0999 C   0  0  0  0  0  0  0  0  0  0  0  0
    8.4367   10.3698   24.7405 C   0  0  0  0  0  0  0  0  0  0  0  0
    7.3892    9.7053   25.3841 C   0  0  0  0  0  0  0  0  0  0  0  0
    6.5818   10.4332   26.2606 C   0  0  0  0  0  0  0  0  0  0  0  0
    6.8336   11.7891   26.4852 C   0  0  0  0  0  0  0  0  0  0  0  0
    5.9646   12.5299   27.3986 N   0  0  0  0  0  0  0  0  0  0  0  0
    6.4564   13.4968   27.9967 O   0  0  0  0  0  0  0  0  0  0  0  0
    4.8048   12.1162   27.5490 O   0  0  0  0  0  0  0  0  0  0  0  0
    7.9133   12.4456   25.8795 C   0  0  0  0  0  0  0  0  0  0  0  0
    8.7291   11.7067   25.0005 C   0  0  0  0  0  0  0  0  0  0  0  0
  1  2  1  0
  2  3  1  0
  3  4  1  0
  4  5  1  0
  5  6  2  0
  6  7  1  0
  7  8  2  0
  8  9  1  0
  9 10  2  0
  4 11  2  0
 11 12  1  0
 12 13  1  0
 13 14  1  0
 14 15  1  0
 15 16  2  0
 15 17  1  0
 17 18  2  0
 18 19  1  0
 19 20  1  0
 19 21  1  0
 21 22  2  0
 22 23  1  0
 23 24  2  0
 24 25  1  0
 25 26  2  0
 25 27  1  0
 24 28  1  0
 28 29  2  0
 12  2  2  0
 29 17  1  0
 10  5  1  0
 29 21  1  0
M  CHG  2  25   1  27  -1
M  END
>  <energy_score>  (596) 
-1.261573

>  <inchikey>  (596) 
None

>  <smiles>  (596) 
None

>  <ref_pdb>  (596) 
A2290a

>  <alias>  (596) 
None

>  <HIPPO Pose ID>  (596) 
499069

>  <name>  (596) 
P499069

>  <HIPPO Compound ID>  (596) 
299478

>  <ref_mols>  (596) 
A3403a,A2290a

>  <distance_score>  (596) 
0.905217

>  <inspiration_score>  (596) 
None

$$$$
P499070
     RDKit          3D

 29 32  0  0  0  0  0  0  0  0999 V2000
    9.6237    4.9701   22.7716 O   0  0  0  0  0  0  0  0  0  0  0  0
    9.6096    6.1995   22.7026 C   0  0  0  0  0  0  0  0  0  0  0  0
    8.7163    6.9807   22.0063 N   0  0  0  0  0  0  0  0  0  0  0  0
    8.8754    8.2846   22.4178 C   0  0  0  0  0  0  0  0  0  0  0  0
    9.6342    8.1628   23.6416 C   0  0  2  0  0  0  0  0  0  0  0  0
   10.4482    9.3584   23.6611 C   0  0  0  0  0  0  0  0  0  0  0  0
    9.7900   10.5734   24.0149 N   0  0  0  0  0  0  0  0  0  0  0  0
   10.4212   11.6161   23.5113 N   0  0  0  0  0  0  0  0  0  0  0  0
   10.1043   12.6128   24.3333 C   0  0  0  0  0  0  0  0  0  0  0  0
   10.8949   13.8130   24.1849 C   0  0  0  0  0  0  0  0  0  0  0  0
   11.1305   14.5554   25.0511 O   0  0  0  0  0  0  0  0  0  0  0  0
   11.2432   13.8820   22.6932 N   0  0  0  0  0  0  0  0  0  0  0  0
   11.8626   14.9058   21.9408 C   0  0  0  0  0  0  0  0  0  0  0  0
   10.8517   15.3198   20.9361 C   0  0  0  0  0  0  0  0  0  0  0  0
    9.8219   16.1518   21.2795 N   0  0  0  0  0  0  0  0  0  0  0  0
    9.3298   16.5615   20.1417 C   0  0  0  0  0  0  0  0  0  0  0  0
    9.8235   15.9157   19.0584 O   0  0  0  0  0  0  0  0  0  0  0  0
   10.8085   15.1122   19.5771 C   0  0  0  0  0  0  0  0  0  0  0  0
   11.6992   14.4125   18.6587 C   0  0  0  0  0  0  0  0  0  0  0  0
   11.0903   13.4389   17.9656 F   0  0  0  0  0  0  0  0  0  0  0  0
   12.2871   15.2271   17.7665 F   0  0  0  0  0  0  0  0  0  0  0  0
   12.7235   13.8120   19.3273 F   0  0  0  0  0  0  0  0  0  0  0  0
    8.9746   12.2779   25.1097 C   0  0  0  0  0  0  0  0  0  0  0  0
    8.1100   12.9678   25.9773 C   0  0  0  0  0  0  0  0  0  0  0  0
    7.0525   12.2772   26.5750 C   0  0  0  0  0  0  0  0  0  0  0  0
    6.8597   10.9220   26.3265 C   0  0  0  0  0  0  0  0  0  0  0  0
    7.7132   10.2143   25.4736 C   0  0  0  0  0  0  0  0  0  0  0  0
    8.7661   10.9123   24.8617 C   0  0  0  0  0  0  0  0  0  0  0  0
   10.4194    7.0206   23.4294 O   0  0  0  0  0  0  0  0  0  0  0  0
  1  2  2  0
  2  3  1  0
  3  4  1  0
  4  5  1  0
  5  6  1  6
  6  7  1  0
  7  8  1  0
  8  9  2  0
  9 10  1  0
 10 11  2  0
 10 12  1  0
 12 13  1  0
 13 14  1  0
 14 15  1  0
 15 16  2  0
 16 17  1  0
 17 18  1  0
 18 19  1  0
 19 20  1  0
 19 21  1  0
 19 22  1  0
  9 23  1  0
 23 24  2  0
 24 25  1  0
 25 26  2  0
 26 27  1  0
 27 28  2  0
  5 29  1  0
 29  2  1  0
 28  7  1  0
 18 14  2  0
 28 23  1  0
M  END
>  <energy_score>  (597) 
-4.927153

>  <inchikey>  (597) 
None

>  <smiles>  (597) 
None

>  <ref_pdb>  (597) 
A2290a

>  <alias>  (597) 
None

>  <HIPPO Pose ID>  (597) 
499070

>  <name>  (597) 
P499070

>  <HIPPO Compound ID>  (597) 
299485

>  <ref_mols>  (597) 
A3403a,A2290a

>  <distance_score>  (597) 
0.976807

>  <inspiration_score>  (597) 
None

$$$$
P499072
     RDKit          3D

 29 33  0  0  0  0  0  0  0  0999 V2000
   11.8789   14.3340   18.7097 C   0  0  0  0  0  0  0  0  0  0  0  0
   11.1014   14.8800   19.8060 C   0  0  0  0  0  0  0  0  0  0  0  0
   10.0043   15.5903   19.4248 O   0  0  0  0  0  0  0  0  0  0  0  0
    9.5154   16.0732   20.5903 C   0  0  0  0  0  0  0  0  0  0  0  0
    8.3760   17.0982   20.6699 C   0  0  0  0  0  0  0  0  0  0  0  0
    8.3479   18.1414   19.5660 C   0  0  0  0  0  0  0  0  0  0  0  0
    8.6315   18.5176   20.9761 C   0  0  0  0  0  0  0  0  0  0  0  0
   10.1223   15.6136   21.6528 N   0  0  0  0  0  0  0  0  0  0  0  0
   11.2240   14.9553   21.1736 C   0  0  0  0  0  0  0  0  0  0  0  0
   12.2488   14.4628   22.1448 C   0  0  0  0  0  0  0  0  0  0  0  0
   11.4528   13.8298   23.1472 N   0  0  0  0  0  0  0  0  0  0  0  0
   11.2274   14.1985   24.6349 C   0  0  0  0  0  0  0  0  0  0  0  0
   11.7177   15.0312   25.2919 O   0  0  0  0  0  0  0  0  0  0  0  0
   10.1592   13.3302   25.0674 C   0  0  0  0  0  0  0  0  0  0  0  0
   10.0893   12.1964   24.3808 N   0  0  0  0  0  0  0  0  0  0  0  0
    8.8626   11.8053   24.5807 N   0  0  0  0  0  0  0  0  0  0  0  0
    8.4686   10.6936   23.7958 C   0  0  0  0  0  0  0  0  0  0  0  0
    9.3157    9.5840   24.2857 C   0  0  1  0  0  0  0  0  0  0  0  0
    8.6214    8.3397   24.0008 C   0  0  0  0  0  0  0  0  0  0  0  0
    9.0359    8.0446   22.6907 N   0  0  0  0  0  0  0  0  0  0  0  0
   10.1266    8.8127   22.4290 C   0  0  0  0  0  0  0  0  0  0  0  0
   10.6061    8.9946   21.3385 O   0  0  0  0  0  0  0  0  0  0  0  0
   10.5135    9.4653   23.5526 O   0  0  0  0  0  0  0  0  0  0  0  0
    8.2354   12.3488   25.6386 C   0  0  0  0  0  0  0  0  0  0  0  0
    7.0530   12.0044   26.2972 C   0  0  0  0  0  0  0  0  0  0  0  0
    6.6327   12.8779   27.2878 C   0  0  0  0  0  0  0  0  0  0  0  0
    7.3578   14.0388   27.5646 C   0  0  0  0  0  0  0  0  0  0  0  0
    8.5504   14.3544   26.8885 C   0  0  0  0  0  0  0  0  0  0  0  0
    9.0302   13.4581   25.9286 C   0  0  0  0  0  0  0  0  0  0  0  0
  1  2  1  0
  2  3  1  0
  3  4  1  0
  4  5  1  0
  5  6  1  0
  6  7  1  0
  4  8  2  0
  8  9  1  0
  9 10  1  0
 10 11  1  0
 11 12  1  0
 12 13  2  0
 12 14  1  0
 14 15  2  0
 15 16  1  0
 16 17  1  0
 18 17  1  6
 18 19  1  0
 19 20  1  0
 20 21  1  0
 21 22  2  0
 21 23  1  0
 16 24  1  0
 24 25  2  0
 25 26  1  0
 26 27  2  0
 27 28  1  0
 28 29  2  0
  9  2  2  0
 29 14  1  0
  7  5  1  0
 23 18  1  0
 29 24  1  0
M  END
>  <energy_score>  (598) 
-4.225485

>  <inchikey>  (598) 
None

>  <smiles>  (598) 
None

>  <ref_pdb>  (598) 
A2290a

>  <alias>  (598) 
None

>  <HIPPO Pose ID>  (598) 
499072

>  <name>  (598) 
P499072

>  <HIPPO Compound ID>  (598) 
299492

>  <ref_mols>  (598) 
A3403a,A2290a

>  <distance_score>  (598) 
1.897898

>  <inspiration_score>  (598) 
None

$$$$
P499073
     RDKit          3D

 17 18  0  0  0  0  0  0  0  0999 V2000
    9.1758   15.2113   26.2581 O   0  0  0  0  0  0  0  0  0  0  0  0
    9.2135   14.2139   25.5655 C   0  0  0  0  0  0  0  0  0  0  0  0
    8.0834   13.2712   25.2145 C   0  0  0  0  0  0  0  0  0  0  0  0
    8.8018   12.2068   24.4311 C   0  0  0  0  0  0  0  0  0  0  0  0
    8.0146   11.2921   23.5730 C   0  0  0  0  0  0  0  0  0  0  0  0
    8.6421   10.7163   24.7668 C   0  0  0  0  0  0  0  0  0  0  0  0
   10.0773   12.8144   23.9191 C   0  0  1  0  0  0  0  0  0  0  0  0
    9.9328   13.6590   22.6250 C   0  0  0  0  0  0  0  0  0  0  0  0
    8.9168   13.8419   22.0756 O   0  0  0  0  0  0  0  0  0  0  0  0
   11.3555   14.2277   22.3334 N   0  0  0  0  0  0  0  0  0  0  0  0
   11.7929   15.2074   21.3676 C   0  0  0  0  0  0  0  0  0  0  0  0
   11.0598   15.1460   20.0333 C   0  0  0  0  0  0  0  0  0  0  0  0
   10.2005   16.3183   19.9050 C   0  0  0  0  0  0  0  0  0  0  0  0
    9.5606   17.3345   19.9205 C   0  0  0  0  0  0  0  0  0  0  0  0
    8.7550   18.5639   19.9936 C   0  0  0  0  0  0  0  0  0  0  0  0
    8.9142   19.1845   21.2456 O   0  0  0  0  0  0  0  0  0  0  0  0
   10.3725   13.7654   24.9584 N   0  0  0  0  0  0  0  0  0  0  0  0
  1  2  2  0
  2  3  1  0
  3  4  1  0
  4  5  1  0
  5  6  1  0
  4  7  1  0
  7  8  1  6
  8  9  2  0
  8 10  1  0
 10 11  1  0
 11 12  1  0
 12 13  1  0
 13 14  3  0
 14 15  1  0
 15 16  1  0
  7 17  1  0
 17  2  1  0
  6  4  1  0
M  END
>  <energy_score>  (599) 
-7.431691

>  <inchikey>  (599) 
None

>  <smiles>  (599) 
None

>  <ref_pdb>  (599) 
A3956a

>  <alias>  (599) 
None

>  <HIPPO Pose ID>  (599) 
499073

>  <name>  (599) 
P499073

>  <HIPPO Compound ID>  (599) 
299566

>  <ref_mols>  (599) 
A3956a,A1778a

>  <distance_score>  (599) 
1.589628

>  <inspiration_score>  (599) 
None

$$$$
P499074
     RDKit          3D

 17 18  0  0  0  0  0  0  0  0999 V2000
   11.6380   15.1447   24.4565 C   0  0  0  0  0  0  0  0  0  0  0  0
   12.0647   15.9895   23.2633 C   0  0  0  0  0  0  0  0  0  0  0  0
   11.1726   15.9066   22.1450 C   0  0  0  0  0  0  0  0  0  0  0  0
   10.3793   15.3920   21.4250 C   0  0  0  0  0  0  0  0  0  0  0  0
    9.6847   14.1804   21.0849 C   0  0  0  0  0  0  0  0  0  0  0  0
   10.2547   13.1045   22.0323 C   0  0  0  0  0  0  0  0  0  0  0  0
    9.5558   12.8892   23.2554 N   0  0  0  0  0  0  0  0  0  0  0  0
    8.5469   13.7921   24.0105 C   0  0  0  0  0  0  0  0  0  0  0  0
    8.1929   14.8795   23.7875 O   0  0  0  0  0  0  0  0  0  0  0  0
    8.0565   12.8977   25.1256 C   0  0  1  0  0  0  0  0  0  0  0  0
    7.2953   13.5477   26.1671 N   0  0  0  0  0  0  0  0  0  0  0  0
    6.5582   12.5600   26.7854 C   0  0  0  0  0  0  0  0  0  0  0  0
    6.5161   12.3683   27.9853 O   0  0  0  0  0  0  0  0  0  0  0  0
    6.1258   11.6003   25.7094 C   0  0  2  0  0  0  0  0  0  0  0  0
    6.4563   10.1195   25.7983 C   0  0  0  0  0  0  0  0  0  0  0  0
    7.6069   10.3054   24.8084 C   0  0  0  0  0  0  0  0  0  0  0  0
    7.1722   11.7655   24.6004 C   0  0  2  0  0  0  0  0  0  0  0  0
  1  2  1  0
  2  3  1  0
  3  4  3  0
  4  5  1  0
  5  6  1  0
  6  7  1  0
  7  8  1  0
  8  9  2  0
 10  8  1  6
 10 11  1  0
 11 12  1  0
 12 13  2  0
 12 14  1  0
 14 15  1  1
 15 16  1  0
 17 16  1  1
 17 10  1  0
 17 14  1  0
M  END
>  <energy_score>  (600) 
-0.338177

>  <inchikey>  (600) 
None

>  <smiles>  (600) 
None

>  <ref_pdb>  (600) 
A3956a

>  <alias>  (600) 
None

>  <HIPPO Pose ID>  (600) 
499074

>  <name>  (600) 
P499074

>  <HIPPO Compound ID>  (600) 
299576

>  <ref_mols>  (600) 
A3956a,A1778a

>  <distance_score>  (600) 
1.952909

>  <inspiration_score>  (600) 
None

$$$$
P499075
     RDKit          3D

 18 19  0  0  0  0  0  0  0  0999 V2000
   11.2133   15.1014   18.4843 C   0  0  0  0  0  0  0  0  0  0  0  0
   11.6706   14.9621   19.8562 C   0  0  0  0  0  0  0  0  0  0  0  0
   11.8717   14.9572   21.0365 C   0  0  0  0  0  0  0  0  0  0  0  0
   11.7801   15.1004   22.4814 C   0  0  0  0  0  0  0  0  0  0  0  0
   10.3184   15.2447   22.8931 C   0  0  1  0  0  0  0  0  0  0  0  0
    9.3832   15.8543   21.8343 C   0  0  0  0  0  0  0  0  0  0  0  0
    9.6945   14.0184   23.2803 N   0  0  0  0  0  0  0  0  0  0  0  0
    9.4237   13.4239   24.6952 C   0  0  0  0  0  0  0  0  0  0  0  0
    9.7391   13.8109   25.7510 O   0  0  0  0  0  0  0  0  0  0  0  0
    8.4978   12.1820   24.4191 C   0  0  2  0  0  0  0  0  0  0  0  0
    7.2018   12.8766   24.0236 C   0  0  0  0  0  0  0  0  0  0  0  0
    6.4900   13.0186   25.3631 C   0  0  0  0  0  0  0  0  0  0  0  0
    6.8499   11.7291   26.0166 C   0  0  0  0  0  0  0  0  0  0  0  0
    6.2050   11.1777   26.8903 O   0  0  0  0  0  0  0  0  0  0  0  0
    8.0111   11.2392   25.4019 N   0  0  0  0  0  0  0  0  0  0  0  0
    7.8338    9.8997   24.8608 C   0  0  0  0  0  0  0  0  0  0  0  0
    8.9470    9.5805   23.8949 C   0  0  0  0  0  0  0  0  0  0  0  0
    9.2862   11.1632   23.1254 S   0  0  0  0  0  0  0  0  0  0  0  0
  1  2  1  0
  2  3  3  0
  3  4  1  0
  4  5  1  0
  5  6  1  6
  5  7  1  0
  7  8  1  0
  8  9  2  0
 10  8  1  1
 10 11  1  0
 11 12  1  0
 12 13  1  0
 13 14  2  0
 13 15  1  0
 15 16  1  0
 16 17  1  0
 17 18  1  0
 15 10  1  0
 18 10  1  0
M  END
>  <energy_score>  (601) 
-1.566492

>  <inchikey>  (601) 
None

>  <smiles>  (601) 
None

>  <ref_pdb>  (601) 
A3956a

>  <alias>  (601) 
None

>  <HIPPO Pose ID>  (601) 
499075

>  <name>  (601) 
P499075

>  <HIPPO Compound ID>  (601) 
299592

>  <ref_mols>  (601) 
A3956a,A1778a

>  <distance_score>  (601) 
1.750488

>  <inspiration_score>  (601) 
None

$$$$
P499076
     RDKit          3D

 21 21  0  0  0  0  0  0  0  0999 V2000
    7.2516    9.6734   25.1271 C   0  0  0  0  0  0  0  0  0  0  0  0
    6.2966   10.2604   26.1394 C   0  0  0  0  0  0  0  0  0  0  0  0
    6.2345   11.7143   26.0564 C   0  0  0  0  0  0  0  0  0  0  0  0
    5.9785   12.8738   25.8823 C   0  0  0  0  0  0  0  0  0  0  0  0
    5.3170   14.1368   25.5195 C   0  0  0  0  0  0  0  0  0  0  0  0
    6.1888   15.3889   25.4024 C   0  0  0  0  0  0  0  0  0  0  0  0
    7.2263   15.3559   24.3980 N   0  0  0  0  0  0  0  0  0  0  0  0
    7.1650   14.9600   22.8971 C   0  0  0  0  0  0  0  0  0  0  0  0
    6.2517   14.6743   22.2260 O   0  0  0  0  0  0  0  0  0  0  0  0
    8.6365   14.8848   22.3742 C   0  0  1  0  0  0  0  0  0  0  0  0
    8.9235   15.8660   21.2603 C   0  0  0  0  0  0  0  0  0  0  0  0
   10.4319   16.0627   21.2858 C   0  0  0  0  0  0  0  0  0  0  0  0
   10.8278   15.6925   22.6823 C   0  0  0  0  0  0  0  0  0  0  0  0
   11.9276   15.8319   23.1949 O   0  0  0  0  0  0  0  0  0  0  0  0
    9.7362   15.0971   23.3207 N   0  0  0  0  0  0  0  0  0  0  0  0
   10.0520   14.1501   24.3715 C   0  0  0  0  0  0  0  0  0  0  0  0
   10.2760   12.7650   23.8186 C   0  0  0  0  0  0  0  0  0  0  0  0
    9.0586   11.9488   24.1053 C   0  0  0  0  0  0  0  0  0  0  0  0
    9.2190   10.6990   23.6391 F   0  0  0  0  0  0  0  0  0  0  0  0
    7.9341   12.4504   23.5775 F   0  0  0  0  0  0  0  0  0  0  0  0
    8.8852   11.9040   25.4414 F   0  0  0  0  0  0  0  0  0  0  0  0
  1  2  1  0
  2  3  1  0
  3  4  3  0
  4  5  1  0
  5  6  1  0
  6  7  1  0
  7  8  1  0
  8  9  2  0
 10  8  1  1
 10 11  1  0
 11 12  1  0
 12 13  1  0
 13 14  2  0
 13 15  1  0
 15 16  1  0
 16 17  1  0
 17 18  1  0
 18 19  1  0
 18 20  1  0
 18 21  1  0
 15 10  1  0
M  END
>  <energy_score>  (602) 
-31.433288

>  <inchikey>  (602) 
None

>  <smiles>  (602) 
None

>  <ref_pdb>  (602) 
A3956a

>  <alias>  (602) 
None

>  <HIPPO Pose ID>  (602) 
499076

>  <name>  (602) 
P499076

>  <HIPPO Compound ID>  (602) 
299676

>  <ref_mols>  (602) 
A3956a,A1778a

>  <distance_score>  (602) 
1.97655

>  <inspiration_score>  (602) 
None

$$$$
P499077
     RDKit          3D

 22 24  0  0  0  0  0  0  0  0999 V2000
   12.6743   14.4448   23.8970 C   0  0  0  0  0  0  0  0  0  0  0  0
   11.8982   14.1553   22.6275 C   0  0  2  0  0  0  0  0  0  0  0  0
   11.5191   15.4506   21.9347 C   0  0  0  0  0  0  0  0  0  0  0  0
   11.1853   15.2828   20.5473 N   0  0  0  0  0  0  0  0  0  0  0  0
   11.9419   14.6855   19.5967 C   0  0  0  0  0  0  0  0  0  0  0  0
   11.4720   14.9811   18.4184 N   0  0  0  0  0  0  0  0  0  0  0  0
   10.4327   15.8262   18.7083 C   0  0  0  0  0  0  0  0  0  0  0  0
   10.1803   15.9850   20.0081 N   0  0  0  0  0  0  0  0  0  0  0  0
   10.7703   13.3499   22.9657 N   0  0  0  0  0  0  0  0  0  0  0  0
    9.6387   13.5928   23.9685 C   0  0  0  0  0  0  0  0  0  0  0  0
    9.3998   14.5228   24.6264 O   0  0  0  0  0  0  0  0  0  0  0  0
    8.8884   12.3380   24.0613 C   0  0  0  0  0  0  0  0  0  0  0  0
    9.3272   11.2541   23.3925 N   0  0  0  0  0  0  0  0  0  0  0  0
    8.5983   10.2456   23.8800 N   0  0  0  0  0  0  0  0  0  0  0  0
    8.9699    8.9015   23.5110 C   0  0  0  0  0  0  0  0  0  0  0  0
    7.6450   10.6492   24.7826 C   0  0  0  0  0  0  0  0  0  0  0  0
    6.6835    9.9501   25.5139 C   0  0  0  0  0  0  0  0  0  0  0  0
    5.9005   10.6654   26.4215 C   0  0  0  0  0  0  0  0  0  0  0  0
    6.0466   12.0386   26.5511 C   0  0  0  0  0  0  0  0  0  0  0  0
    5.2823   12.6934   27.4359 F   0  0  0  0  0  0  0  0  0  0  0  0
    6.9875   12.7429   25.8063 C   0  0  0  0  0  0  0  0  0  0  0  0
    7.8025   12.0275   24.9097 C   0  0  0  0  0  0  0  0  0  0  0  0
  2  1  1  1
  2  3  1  0
  3  4  1  0
  4  5  1  0
  5  6  2  0
  6  7  1  0
  7  8  2  0
  2  9  1  0
  9 10  1  0
 10 11  2  0
 10 12  1  0
 12 13  2  0
 13 14  1  0
 14 15  1  0
 14 16  1  0
 16 17  2  0
 17 18  1  0
 18 19  2  0
 19 20  1  0
 19 21  1  0
 21 22  2  0
  8  4  1  0
 22 12  1  0
 22 16  1  0
M  END
>  <energy_score>  (603) 
-12.095388

>  <inchikey>  (603) 
None

>  <smiles>  (603) 
None

>  <ref_pdb>  (603) 
A3176a

>  <alias>  (603) 
None

>  <HIPPO Pose ID>  (603) 
499077

>  <name>  (603) 
P499077

>  <HIPPO Compound ID>  (603) 
299790

>  <ref_mols>  (603) 
A3417a,A3176a

>  <distance_score>  (603) 
0.657831

>  <inspiration_score>  (603) 
None

$$$$
P499079
     RDKit          3D

 22 25  0  0  0  0  0  0  0  0999 V2000
    9.0771    9.1353   23.3039 C   0  0  0  0  0  0  0  0  0  0  0  0
    8.7584   10.3980   23.9309 N   0  0  0  0  0  0  0  0  0  0  0  0
    9.5314   11.4511   23.6504 N   0  0  0  0  0  0  0  0  0  0  0  0
    9.0487   12.4584   24.4035 C   0  0  0  0  0  0  0  0  0  0  0  0
    9.6724   13.7990   24.3770 C   0  0  0  0  0  0  0  0  0  0  0  0
    9.4095   14.6456   25.1520 O   0  0  0  0  0  0  0  0  0  0  0  0
   10.5558   13.8326   23.1649 N   0  0  0  0  0  0  0  0  0  0  0  0
   11.4603   14.9346   22.6226 C   0  0  0  0  0  0  0  0  0  0  0  0
   10.5114   15.4493   21.6284 C   0  0  0  0  0  0  0  0  0  0  0  0
   10.9301   15.4919   20.2469 N   0  0  0  0  0  0  0  0  0  0  0  0
   11.8516   14.7119   19.6264 C   0  0  0  0  0  0  0  0  0  0  0  0
   11.9913   15.1130   18.3903 N   0  0  0  0  0  0  0  0  0  0  0  0
   11.0932   16.1493   18.3113 C   0  0  0  0  0  0  0  0  0  0  0  0
   10.3515   16.3441   19.4005 N   0  0  0  0  0  0  0  0  0  0  0  0
    9.7573   14.2361   21.8921 C   0  0  0  0  0  0  0  0  0  0  0  0
    7.9091   12.0407   25.1339 C   0  0  0  0  0  0  0  0  0  0  0  0
    7.0001   12.6556   26.0147 C   0  0  0  0  0  0  0  0  0  0  0  0
    6.0243   11.8665   26.6160 C   0  0  0  0  0  0  0  0  0  0  0  0
    5.1817   12.4208   27.4982 F   0  0  0  0  0  0  0  0  0  0  0  0
    5.9287   10.5080   26.3536 C   0  0  0  0  0  0  0  0  0  0  0  0
    6.7816    9.8991   25.4315 C   0  0  0  0  0  0  0  0  0  0  0  0
    7.7696   10.6846   24.8373 C   0  0  0  0  0  0  0  0  0  0  0  0
  1  2  1  0
  2  3  1  0
  3  4  2  0
  4  5  1  0
  5  6  2  0
  5  7  1  0
  7  8  1  0
  8  9  1  0
  9 10  1  0
 10 11  1  0
 11 12  2  0
 12 13  1  0
 13 14  2  0
  9 15  1  0
  4 16  1  0
 16 17  2  0
 17 18  1  0
 18 19  1  0
 18 20  2  0
 20 21  1  0
 21 22  2  0
 22  2  1  0
 15  7  1  0
 22 16  1  0
 14 10  1  0
M  END
>  <energy_score>  (604) 
-5.299478

>  <inchikey>  (604) 
None

>  <smiles>  (604) 
None

>  <ref_pdb>  (604) 
A3176a

>  <alias>  (604) 
None

>  <HIPPO Pose ID>  (604) 
499079

>  <name>  (604) 
P499079

>  <HIPPO Compound ID>  (604) 
299793

>  <ref_mols>  (604) 
A3417a,A3176a

>  <distance_score>  (604) 
0.963489

>  <inspiration_score>  (604) 
None

$$$$
P499080
     RDKit          3D

 22 24  0  0  0  0  0  0  0  0999 V2000
    9.2141    9.1111   23.1688 C   0  0  0  0  0  0  0  0  0  0  0  0
    8.8997   10.4106   23.7190 N   0  0  0  0  0  0  0  0  0  0  0  0
    9.6625   11.4608   23.3669 N   0  0  0  0  0  0  0  0  0  0  0  0
    9.1780   12.4901   24.0905 C   0  0  0  0  0  0  0  0  0  0  0  0
    9.8597   13.8022   24.0877 C   0  0  0  0  0  0  0  0  0  0  0  0
    9.5469   14.6545   24.8180 O   0  0  0  0  0  0  0  0  0  0  0  0
   11.0018   13.7381   23.0639 N   0  0  0  0  0  0  0  0  0  0  0  0
   11.9444   14.7421   22.6521 C   0  0  0  0  0  0  0  0  0  0  0  0
   12.1898   14.7793   21.1530 C   0  0  0  0  0  0  0  0  0  0  0  0
   11.1184   15.3253   20.3603 N   0  0  0  0  0  0  0  0  0  0  0  0
   10.9661   15.1891   19.0213 C   0  0  0  0  0  0  0  0  0  0  0  0
   10.0912   16.0664   18.5991 N   0  0  0  0  0  0  0  0  0  0  0  0
    9.7889   16.7784   19.7128 C   0  0  0  0  0  0  0  0  0  0  0  0
    8.8182   18.3824   19.6197 Br  0  0  0  0  0  0  0  0  0  0  0  0
   10.3277   16.2951   20.8350 N   0  0  0  0  0  0  0  0  0  0  0  0
    8.0497   12.0944   24.8587 C   0  0  0  0  0  0  0  0  0  0  0  0
    7.1630   12.7296   25.7499 C   0  0  0  0  0  0  0  0  0  0  0  0
    6.2050   11.9560   26.4016 C   0  0  0  0  0  0  0  0  0  0  0  0
    5.3786   12.5364   27.2824 F   0  0  0  0  0  0  0  0  0  0  0  0
    6.1118   10.5876   26.1907 C   0  0  0  0  0  0  0  0  0  0  0  0
    6.9617    9.9490   25.2857 C   0  0  0  0  0  0  0  0  0  0  0  0
    7.9232   10.7251   24.6310 C   0  0  0  0  0  0  0  0  0  0  0  0
  1  2  1  0
  2  3  1  0
  3  4  2  0
  4  5  1  0
  5  6  2  0
  5  7  1  0
  7  8  1  0
  8  9  1  0
  9 10  1  0
 10 11  1  0
 11 12  2  0
 12 13  1  0
 13 14  1  0
 13 15  2  0
  4 16  1  0
 16 17  2  0
 17 18  1  0
 18 19  1  0
 18 20  2  0
 20 21  1  0
 21 22  2  0
 22  2  1  0
 15 10  1  0
 22 16  1  0
M  END
>  <energy_score>  (605) 
-1.660298

>  <inchikey>  (605) 
None

>  <smiles>  (605) 
None

>  <ref_pdb>  (605) 
A3176a

>  <alias>  (605) 
None

>  <HIPPO Pose ID>  (605) 
499080

>  <name>  (605) 
P499080

>  <HIPPO Compound ID>  (605) 
299794

>  <ref_mols>  (605) 
A3417a,A3176a

>  <distance_score>  (605) 
0.634656

>  <inspiration_score>  (605) 
None

$$$$
P499081
     RDKit          3D

 23 26  0  0  0  0  0  0  0  0999 V2000
    9.1472    9.0790   23.2042 C   0  0  0  0  0  0  0  0  0  0  0  0
    8.7529   10.3095   23.8495 N   0  0  0  0  0  0  0  0  0  0  0  0
    9.4234   11.4354   23.5492 N   0  0  0  0  0  0  0  0  0  0  0  0
    8.9037   12.3478   24.3906 C   0  0  0  0  0  0  0  0  0  0  0  0
    9.3836   13.7188   24.4406 C   0  0  0  0  0  0  0  0  0  0  0  0
    9.2053   14.3959   25.3667 O   0  0  0  0  0  0  0  0  0  0  0  0
   10.0046   14.0374   23.0919 N   0  0  0  0  0  0  0  0  0  0  0  0
   10.4505   15.2590   22.5564 C   0  0  0  0  0  0  0  0  0  0  0  0
   11.2436   15.2001   21.3008 C   0  0  0  0  0  0  0  0  0  0  0  0
   10.5902   15.9578   20.1967 N   0  0  0  0  0  0  0  0  0  0  0  0
   10.7256   15.7883   18.8601 C   0  0  0  0  0  0  0  0  0  0  0  0
   10.0461   16.7334   18.2426 N   0  0  0  0  0  0  0  0  0  0  0  0
    9.5106   17.4561   19.2512 C   0  0  0  0  0  0  0  0  0  0  0  0
    9.7932   16.9988   20.4637 N   0  0  0  0  0  0  0  0  0  0  0  0
   12.7333   15.3453   21.5685 C   0  0  0  0  0  0  0  0  0  0  0  0
   12.1973   14.0581   21.0536 C   0  0  0  0  0  0  0  0  0  0  0  0
    7.8166   11.8438   25.1284 C   0  0  0  0  0  0  0  0  0  0  0  0
    6.8921   12.3845   26.0421 C   0  0  0  0  0  0  0  0  0  0  0  0
    5.9542   11.5341   26.6077 C   0  0  0  0  0  0  0  0  0  0  0  0
    5.0844   12.0096   27.5086 F   0  0  0  0  0  0  0  0  0  0  0  0
    5.9214   10.1894   26.2797 C   0  0  0  0  0  0  0  0  0  0  0  0
    6.8050    9.6599   25.3346 C   0  0  0  0  0  0  0  0  0  0  0  0
    7.7533   10.5054   24.7712 C   0  0  0  0  0  0  0  0  0  0  0  0
  1  2  1  0
  2  3  1  0
  3  4  2  0
  4  5  1  0
  5  6  2  0
  5  7  1  0
  7  8  1  0
  8  9  1  0
  9 10  1  0
 10 11  1  0
 11 12  2  0
 12 13  1  0
 13 14  2  0
  9 15  1  0
 15 16  1  0
  4 17  1  0
 17 18  2  0
 18 19  1  0
 19 20  1  0
 19 21  2  0
 21 22  1  0
 22 23  2  0
 23  2  1  0
 16  9  1  0
 23 17  1  0
 14 10  1  0
M  END
>  <energy_score>  (606) 
-32.156322

>  <inchikey>  (606) 
None

>  <smiles>  (606) 
None

>  <ref_pdb>  (606) 
A3176a

>  <alias>  (606) 
None

>  <HIPPO Pose ID>  (606) 
499081

>  <name>  (606) 
P499081

>  <HIPPO Compound ID>  (606) 
299797

>  <ref_mols>  (606) 
A3417a,A3176a

>  <distance_score>  (606) 
1.018025

>  <inspiration_score>  (606) 
None

$$$$
P499084
     RDKit          3D

 23 25  0  0  0  0  0  0  0  0999 V2000
   12.6314   14.7459   23.2244 C   0  0  0  0  0  0  0  0  0  0  0  0
   11.3662   14.9928   22.4163 C   0  0  2  0  0  0  0  0  0  0  0  0
   10.4453   13.9550   22.7730 N   0  0  0  0  0  0  0  0  0  0  0  0
    9.4321   13.8736   23.9205 C   0  0  0  0  0  0  0  0  0  0  0  0
    9.1268   14.6674   24.7159 O   0  0  0  0  0  0  0  0  0  0  0  0
    8.8958   12.5054   23.9802 C   0  0  0  0  0  0  0  0  0  0  0  0
    9.4378   11.5058   23.2572 N   0  0  0  0  0  0  0  0  0  0  0  0
    8.8059   10.4025   23.6919 N   0  0  0  0  0  0  0  0  0  0  0  0
    9.2220    9.1179   23.1774 C   0  0  0  0  0  0  0  0  0  0  0  0
    7.8304   10.6602   24.6221 C   0  0  0  0  0  0  0  0  0  0  0  0
    6.9362    9.8329   25.3036 C   0  0  0  0  0  0  0  0  0  0  0  0
    6.0709   10.4212   26.2285 C   0  0  0  0  0  0  0  0  0  0  0  0
    6.0893   11.7920   26.4394 C   0  0  0  0  0  0  0  0  0  0  0  0
    5.2512   12.3226   27.3401 F   0  0  0  0  0  0  0  0  0  0  0  0
    6.9733   12.6193   25.7537 C   0  0  0  0  0  0  0  0  0  0  0  0
    7.8600   12.0356   24.8277 C   0  0  0  0  0  0  0  0  0  0  0  0
   11.6381   15.2694   20.9251 C   0  0  1  0  0  0  0  0  0  0  0  0
   12.2415   14.1472   20.1185 C   0  0  0  0  0  0  0  0  0  0  0  0
   10.5363   15.8919   20.2050 N   0  0  0  0  0  0  0  0  0  0  0  0
   10.5420   16.3201   18.9079 C   0  0  0  0  0  0  0  0  0  0  0  0
    9.6753   17.2970   18.7672 N   0  0  0  0  0  0  0  0  0  0  0  0
    9.1073   17.3738   20.0000 C   0  0  0  0  0  0  0  0  0  0  0  0
    9.5230   16.4548   20.8714 N   0  0  0  0  0  0  0  0  0  0  0  0
  2  1  1  1
  2  3  1  0
  3  4  1  0
  4  5  2  0
  4  6  1  0
  6  7  2  0
  7  8  1  0
  8  9  1  0
  8 10  1  0
 10 11  2  0
 11 12  1  0
 12 13  2  0
 13 14  1  0
 13 15  1  0
 15 16  2  0
  2 17  1  0
 17 18  1  6
 17 19  1  0
 19 20  1  0
 20 21  2  0
 21 22  1  0
 22 23  2  0
 16  6  1  0
 23 19  1  0
 16 10  1  0
M  END
>  <energy_score>  (607) 
-28.044021

>  <inchikey>  (607) 
None

>  <smiles>  (607) 
None

>  <ref_pdb>  (607) 
A3176a

>  <alias>  (607) 
None

>  <HIPPO Pose ID>  (607) 
499084

>  <name>  (607) 
P499084

>  <HIPPO Compound ID>  (607) 
299800

>  <ref_mols>  (607) 
A3417a,A3176a

>  <distance_score>  (607) 
0.896814

>  <inspiration_score>  (607) 
None

$$$$
P499086
     RDKit          3D

 23 25  0  0  0  0  0  0  0  0999 V2000
   12.4413   14.5479   24.9609 C   0  0  0  0  0  0  0  0  0  0  0  0
   12.6853   14.4671   23.4576 C   0  0  0  0  0  0  0  0  0  0  0  0
   11.4614   14.7944   22.6074 C   0  0  1  0  0  0  0  0  0  0  0  0
   11.8021   14.8492   21.1123 C   0  0  0  0  0  0  0  0  0  0  0  0
   10.7923   15.5121   20.3141 N   0  0  0  0  0  0  0  0  0  0  0  0
   10.8243   15.7507   18.9773 C   0  0  0  0  0  0  0  0  0  0  0  0
    9.9801   16.7193   18.6943 N   0  0  0  0  0  0  0  0  0  0  0  0
    9.4235   17.0142   19.8963 C   0  0  0  0  0  0  0  0  0  0  0  0
    9.8354   16.2457   20.9007 N   0  0  0  0  0  0  0  0  0  0  0  0
   10.4690   13.8132   22.9353 N   0  0  0  0  0  0  0  0  0  0  0  0
    9.3448   13.8441   23.9728 C   0  0  0  0  0  0  0  0  0  0  0  0
    8.9916   14.7002   24.6779 O   0  0  0  0  0  0  0  0  0  0  0  0
    8.7806   12.4902   24.0342 C   0  0  0  0  0  0  0  0  0  0  0  0
    9.3374   11.4874   23.3251 N   0  0  0  0  0  0  0  0  0  0  0  0
    8.6979   10.3859   23.7457 N   0  0  0  0  0  0  0  0  0  0  0  0
    9.1107    9.1055   23.2162 C   0  0  0  0  0  0  0  0  0  0  0  0
    7.7283   10.6471   24.6821 C   0  0  0  0  0  0  0  0  0  0  0  0
    6.8409    9.8221   25.3718 C   0  0  0  0  0  0  0  0  0  0  0  0
    5.9869   10.4101   26.3072 C   0  0  0  0  0  0  0  0  0  0  0  0
    6.0025   11.7814   26.5139 C   0  0  0  0  0  0  0  0  0  0  0  0
    5.1733   12.3121   27.4229 F   0  0  0  0  0  0  0  0  0  0  0  0
    6.8741   12.6098   25.8151 C   0  0  0  0  0  0  0  0  0  0  0  0
    7.7514   12.0243   24.8829 C   0  0  0  0  0  0  0  0  0  0  0  0
  1  2  1  0
  3  2  1  1
  3  4  1  0
  4  5  1  0
  5  6  1  0
  6  7  2  0
  7  8  1  0
  8  9  2  0
  3 10  1  0
 10 11  1  0
 11 12  2  0
 11 13  1  0
 13 14  2  0
 14 15  1  0
 15 16  1  0
 15 17  1  0
 17 18  2  0
 18 19  1  0
 19 20  2  0
 20 21  1  0
 20 22  1  0
 22 23  2  0
  9  5  1  0
 23 13  1  0
 23 17  1  0
M  END
>  <energy_score>  (608) 
-27.110731

>  <inchikey>  (608) 
None

>  <smiles>  (608) 
None

>  <ref_pdb>  (608) 
A3176a

>  <alias>  (608) 
None

>  <HIPPO Pose ID>  (608) 
499086

>  <name>  (608) 
P499086

>  <HIPPO Compound ID>  (608) 
299802

>  <ref_mols>  (608) 
A3417a,A3176a

>  <distance_score>  (608) 
0.736833

>  <inspiration_score>  (608) 
None

$$$$
P499088
     RDKit          3D

 23 25  0  0  0  0  0  0  0  0999 V2000
    8.8323   18.2227   20.0942 C   0  0  0  0  0  0  0  0  0  0  0  0
    9.6307   16.9922   20.0453 C   0  0  0  0  0  0  0  0  0  0  0  0
   10.0669   16.5147   18.8576 N   0  0  0  0  0  0  0  0  0  0  0  0
   10.9257   15.5896   19.2046 C   0  0  0  0  0  0  0  0  0  0  0  0
   11.8238   14.8920   18.2978 C   0  0  0  0  0  0  0  0  0  0  0  0
   10.9668   15.4869   20.5629 N   0  0  0  0  0  0  0  0  0  0  0  0
   12.0371   14.8933   21.3324 C   0  0  0  0  0  0  0  0  0  0  0  0
   11.8028   14.7767   22.8240 C   0  0  0  0  0  0  0  0  0  0  0  0
   10.7929   13.8110   23.1397 N   0  0  0  0  0  0  0  0  0  0  0  0
    9.7384   13.8007   24.2487 C   0  0  0  0  0  0  0  0  0  0  0  0
    9.4671   14.6103   25.0402 O   0  0  0  0  0  0  0  0  0  0  0  0
    9.0839   12.4798   24.2167 C   0  0  0  0  0  0  0  0  0  0  0  0
    9.5959   11.4808   23.4686 N   0  0  0  0  0  0  0  0  0  0  0  0
    8.8441   10.4107   23.7751 N   0  0  0  0  0  0  0  0  0  0  0  0
    9.1853    9.1354   23.1849 C   0  0  0  0  0  0  0  0  0  0  0  0
    7.8574   10.6833   24.6902 C   0  0  0  0  0  0  0  0  0  0  0  0
    6.9022    9.8769   25.3125 C   0  0  0  0  0  0  0  0  0  0  0  0
    6.0395   10.4750   26.2331 C   0  0  0  0  0  0  0  0  0  0  0  0
    6.1077   11.8379   26.4834 C   0  0  0  0  0  0  0  0  0  0  0  0
    5.2647   12.3782   27.3740 F   0  0  0  0  0  0  0  0  0  0  0  0
    7.0566   12.6441   25.8615 C   0  0  0  0  0  0  0  0  0  0  0  0
    7.9600   12.0459   24.9625 C   0  0  0  0  0  0  0  0  0  0  0  0
   10.0715   16.3170   21.1127 N   0  0  0  0  0  0  0  0  0  0  0  0
  1  2  1  0
  2  3  1  0
  3  4  2  0
  4  5  1  0
  4  6  1  0
  6  7  1  0
  7  8  1  0
  8  9  1  0
  9 10  1  0
 10 11  2  0
 10 12  1  0
 12 13  2  0
 13 14  1  0
 14 15  1  0
 14 16  1  0
 16 17  2  0
 17 18  1  0
 18 19  2  0
 19 20  1  0
 19 21  1  0
 21 22  2  0
  6 23  1  0
 23  2  2  0
 22 12  1  0
 22 16  1  0
M  END
>  <energy_score>  (609) 
-5.27545

>  <inchikey>  (609) 
None

>  <smiles>  (609) 
None

>  <ref_pdb>  (609) 
A3176a

>  <alias>  (609) 
None

>  <HIPPO Pose ID>  (609) 
499088

>  <name>  (609) 
P499088

>  <HIPPO Compound ID>  (609) 
299804

>  <ref_mols>  (609) 
A3417a,A3176a

>  <distance_score>  (609) 
0.802731

>  <inspiration_score>  (609) 
None

$$$$
P499091
     RDKit          3D

 24 27  0  0  0  0  0  0  0  0999 V2000
    9.9651   17.2549   17.8139 C   0  0  0  0  0  0  0  0  0  0  0  0
   10.2320   16.1224   18.6967 C   0  0  0  0  0  0  0  0  0  0  0  0
   11.4234   15.4451   18.7460 N   0  0  0  0  0  0  0  0  0  0  0  0
   11.3802   14.8978   19.9335 C   0  0  0  0  0  0  0  0  0  0  0  0
   10.2119   15.2310   20.5347 N   0  0  0  0  0  0  0  0  0  0  0  0
    9.4051   15.8580   19.7032 N   0  0  0  0  0  0  0  0  0  0  0  0
   10.1791   15.7123   21.8817 C   0  0  0  0  0  0  0  0  0  0  0  0
   11.1786   15.0420   22.7885 C   0  0  1  0  0  0  0  0  0  0  0  0
   10.5315   13.8745   23.2840 N   0  0  0  0  0  0  0  0  0  0  0  0
    9.5935   13.6900   24.4719 C   0  0  0  0  0  0  0  0  0  0  0  0
    9.2543   14.4439   25.2886 O   0  0  0  0  0  0  0  0  0  0  0  0
    9.0421   12.3410   24.3953 C   0  0  0  0  0  0  0  0  0  0  0  0
    9.5830   11.4039   23.5945 N   0  0  0  0  0  0  0  0  0  0  0  0
    8.8378   10.3076   23.8302 N   0  0  0  0  0  0  0  0  0  0  0  0
    9.1910    9.0730   23.1669 C   0  0  0  0  0  0  0  0  0  0  0  0
    7.8272   10.5257   24.7356 C   0  0  0  0  0  0  0  0  0  0  0  0
    6.8612    9.6922   25.2914 C   0  0  0  0  0  0  0  0  0  0  0  0
    5.9701   10.2378   26.2191 C   0  0  0  0  0  0  0  0  0  0  0  0
    6.0094   11.5867   26.5307 C   0  0  0  0  0  0  0  0  0  0  0  0
    5.1324   12.0804   27.4152 F   0  0  0  0  0  0  0  0  0  0  0  0
    6.9660   12.4241   25.9726 C   0  0  0  0  0  0  0  0  0  0  0  0
    7.9067   11.8668   25.0850 C   0  0  0  0  0  0  0  0  0  0  0  0
   12.5309   14.8510   22.1472 C   0  0  0  0  0  0  0  0  0  0  0  0
   12.4776   14.3303   20.7119 C   0  0  0  0  0  0  0  0  0  0  0  0
  1  2  1  0
  2  3  1  0
  3  4  2  0
  4  5  1  0
  5  6  1  0
  5  7  1  0
  7  8  1  0
  8  9  1  6
  9 10  1  0
 10 11  2  0
 10 12  1  0
 12 13  2  0
 13 14  1  0
 14 15  1  0
 14 16  1  0
 16 17  2  0
 17 18  1  0
 18 19  2  0
 19 20  1  0
 19 21  1  0
 21 22  2  0
  8 23  1  0
 23 24  1  0
  6  2  2  0
 22 12  1  0
 24  4  1  0
 22 16  1  0
M  END
>  <energy_score>  (610) 
-36.729536

>  <inchikey>  (610) 
None

>  <smiles>  (610) 
None

>  <ref_pdb>  (610) 
A3176a

>  <alias>  (610) 
None

>  <HIPPO Pose ID>  (610) 
499091

>  <name>  (610) 
P499091

>  <HIPPO Compound ID>  (610) 
299809

>  <ref_mols>  (610) 
A3417a,A3176a

>  <distance_score>  (610) 
1.058755

>  <inspiration_score>  (610) 
None

$$$$
P499095
     RDKit          3D

 25 28  0  0  0  0  0  0  0  0999 V2000
    9.0083   17.3618   17.2774 C   0  0  0  0  0  0  0  0  0  0  0  0
   10.3902   17.2153   17.8381 C   0  0  0  0  0  0  0  0  0  0  0  0
   10.4732   16.0663   18.7448 C   0  0  0  0  0  0  0  0  0  0  0  0
   11.5861   15.2856   18.8649 N   0  0  0  0  0  0  0  0  0  0  0  0
   11.4305   14.7935   20.0658 C   0  0  0  0  0  0  0  0  0  0  0  0
   10.2449   15.1996   20.5824 N   0  0  0  0  0  0  0  0  0  0  0  0
    9.5522   15.8771   19.6878 N   0  0  0  0  0  0  0  0  0  0  0  0
   10.1327   15.6813   21.9269 C   0  0  0  0  0  0  0  0  0  0  0  0
   11.1117   15.0459   22.8903 C   0  0  1  0  0  0  0  0  0  0  0  0
   10.4623   13.8845   23.3888 N   0  0  0  0  0  0  0  0  0  0  0  0
    9.4615   13.7209   24.5245 C   0  0  0  0  0  0  0  0  0  0  0  0
    9.0594   14.4947   25.2915 O   0  0  0  0  0  0  0  0  0  0  0  0
    8.9481   12.3582   24.4608 C   0  0  0  0  0  0  0  0  0  0  0  0
    9.4970   11.4349   23.6474 N   0  0  0  0  0  0  0  0  0  0  0  0
    8.7757   10.3261   23.8883 N   0  0  0  0  0  0  0  0  0  0  0  0
    9.1535    9.1007   23.2235 C   0  0  0  0  0  0  0  0  0  0  0  0
    7.7620   10.5262   24.7928 C   0  0  0  0  0  0  0  0  0  0  0  0
    6.8021    9.6816   25.3392 C   0  0  0  0  0  0  0  0  0  0  0  0
    5.9097   10.2102   26.2757 C   0  0  0  0  0  0  0  0  0  0  0  0
    5.9365   11.5558   26.6006 C   0  0  0  0  0  0  0  0  0  0  0  0
    5.0562   12.0326   27.4907 F   0  0  0  0  0  0  0  0  0  0  0  0
    6.8820   12.4065   26.0468 C   0  0  0  0  0  0  0  0  0  0  0  0
    7.8259   11.8647   25.1537 C   0  0  0  0  0  0  0  0  0  0  0  0
   12.4910   14.8488   22.3161 C   0  0  0  0  0  0  0  0  0  0  0  0
   12.4673   14.2404   20.9239 C   0  0  0  0  0  0  0  0  0  0  0  0
  1  2  1  0
  2  3  1  0
  3  4  1  0
  4  5  2  0
  5  6  1  0
  6  7  1  0
  6  8  1  0
  8  9  1  0
  9 10  1  6
 10 11  1  0
 11 12  2  0
 11 13  1  0
 13 14  2  0
 14 15  1  0
 15 16  1  0
 15 17  1  0
 17 18  2  0
 18 19  1  0
 19 20  2  0
 20 21  1  0
 20 22  1  0
 22 23  2  0
  9 24  1  0
 24 25  1  0
  7  3  2  0
 23 13  1  0
 25  5  1  0
 23 17  1  0
M  END
>  <energy_score>  (611) 
-7.873916

>  <inchikey>  (611) 
None

>  <smiles>  (611) 
None

>  <ref_pdb>  (611) 
A3176a

>  <alias>  (611) 
None

>  <HIPPO Pose ID>  (611) 
499095

>  <name>  (611) 
P499095

>  <HIPPO Compound ID>  (611) 
299814

>  <ref_mols>  (611) 
A3417a,A3176a

>  <distance_score>  (611) 
1.028206

>  <inspiration_score>  (611) 
None

$$$$
P499098
     RDKit          3D

 25 27  0  0  0  0  0  0  0  0999 V2000
   13.6413   13.4522   25.5976 C   0  0  0  0  0  0  0  0  0  0  0  0
   12.9654   13.7522   24.3731 O   0  0  0  0  0  0  0  0  0  0  0  0
   12.1946   14.8827   24.3496 C   0  0  0  0  0  0  0  0  0  0  0  0
   12.1162   15.6895   25.2697 O   0  0  0  0  0  0  0  0  0  0  0  0
   11.3650   14.9561   23.0714 C   0  0  1  0  0  0  0  0  0  0  0  0
   12.2334   14.8031   21.8574 C   0  0  0  0  0  0  0  0  0  0  0  0
   11.5781   15.0091   20.5976 N   0  0  0  0  0  0  0  0  0  0  0  0
   12.0401   14.5223   19.4268 C   0  0  0  0  0  0  0  0  0  0  0  0
   11.3263   14.9859   18.4460 N   0  0  0  0  0  0  0  0  0  0  0  0
   10.4474   15.8239   19.0738 C   0  0  0  0  0  0  0  0  0  0  0  0
   10.5439   15.8378   20.4097 N   0  0  0  0  0  0  0  0  0  0  0  0
   10.3994   13.9235   23.2816 N   0  0  0  0  0  0  0  0  0  0  0  0
    9.1623   13.8916   24.1662 C   0  0  0  0  0  0  0  0  0  0  0  0
    8.6775   14.7245   24.8132 O   0  0  0  0  0  0  0  0  0  0  0  0
    8.6768   12.5111   24.1655 C   0  0  0  0  0  0  0  0  0  0  0  0
    9.3016   11.5558   23.4461 N   0  0  0  0  0  0  0  0  0  0  0  0
    8.6770   10.4196   23.7965 N   0  0  0  0  0  0  0  0  0  0  0  0
    9.1361    9.1723   23.2260 C   0  0  0  0  0  0  0  0  0  0  0  0
    7.6832   10.6151   24.7240 C   0  0  0  0  0  0  0  0  0  0  0  0
    6.8130    9.7411   25.3690 C   0  0  0  0  0  0  0  0  0  0  0  0
    5.9289   10.2682   26.3136 C   0  0  0  0  0  0  0  0  0  0  0  0
    5.8904   11.6305   26.5664 C   0  0  0  0  0  0  0  0  0  0  0  0
    5.0269   12.1000   27.4768 F   0  0  0  0  0  0  0  0  0  0  0  0
    6.7392   12.5092   25.9070 C   0  0  0  0  0  0  0  0  0  0  0  0
    7.6507   11.9820   24.9733 C   0  0  0  0  0  0  0  0  0  0  0  0
  1  2  1  0
  2  3  1  0
  3  4  2  0
  3  5  1  0
  5  6  1  6
  6  7  1  0
  7  8  1  0
  8  9  2  0
  9 10  1  0
 10 11  2  0
  5 12  1  0
 12 13  1  0
 13 14  2  0
 13 15  1  0
 15 16  2  0
 16 17  1  0
 17 18  1  0
 17 19  1  0
 19 20  2  0
 20 21  1  0
 21 22  2  0
 22 23  1  0
 22 24  1  0
 24 25  2  0
 11  7  1  0
 25 15  1  0
 25 19  1  0
M  END
>  <energy_score>  (612) 
-9.111225

>  <inchikey>  (612) 
None

>  <smiles>  (612) 
None

>  <ref_pdb>  (612) 
A3176a

>  <alias>  (612) 
None

>  <HIPPO Pose ID>  (612) 
499098

>  <name>  (612) 
P499098

>  <HIPPO Compound ID>  (612) 
299817

>  <ref_mols>  (612) 
A3417a,A3176a

>  <distance_score>  (612) 
0.826384

>  <inspiration_score>  (612) 
None

$$$$
P499099
     RDKit          3D

 25 27  0  0  0  0  0  0  0  0999 V2000
    8.9898   18.2700   20.6147 C   0  0  0  0  0  0  0  0  0  0  0  0
    8.7355   18.2071   19.2202 O   0  0  0  0  0  0  0  0  0  0  0  0
    9.4910   17.4252   18.3828 C   0  0  0  0  0  0  0  0  0  0  0  0
    9.3901   17.6733   17.1831 O   0  0  0  0  0  0  0  0  0  0  0  0
   10.3340   16.3282   18.9538 C   0  0  0  0  0  0  0  0  0  0  0  0
   11.3199   15.6958   18.2236 N   0  0  0  0  0  0  0  0  0  0  0  0
   11.8980   14.8839   19.0527 C   0  0  0  0  0  0  0  0  0  0  0  0
   11.3710   15.0615   20.2792 N   0  0  0  0  0  0  0  0  0  0  0  0
   12.1181   14.7760   21.4781 C   0  0  0  0  0  0  0  0  0  0  0  0
   11.4091   15.0308   22.7805 C   0  0  0  0  0  0  0  0  0  0  0  0
   10.5656   13.9530   23.1908 N   0  0  0  0  0  0  0  0  0  0  0  0
    9.5164   13.8796   24.2983 C   0  0  0  0  0  0  0  0  0  0  0  0
    9.2194   14.6591   25.1090 O   0  0  0  0  0  0  0  0  0  0  0  0
    8.9413   12.5250   24.2636 C   0  0  0  0  0  0  0  0  0  0  0  0
    9.4960   11.5572   23.5039 N   0  0  0  0  0  0  0  0  0  0  0  0
    8.7939   10.4515   23.8080 N   0  0  0  0  0  0  0  0  0  0  0  0
    9.1886    9.1935   23.2132 C   0  0  0  0  0  0  0  0  0  0  0  0
    7.7979   10.6763   24.7260 C   0  0  0  0  0  0  0  0  0  0  0  0
    6.8714    9.8302   25.3357 C   0  0  0  0  0  0  0  0  0  0  0  0
    5.9910   10.3842   26.2674 C   0  0  0  0  0  0  0  0  0  0  0  0
    6.0124   11.7438   26.5401 C   0  0  0  0  0  0  0  0  0  0  0  0
    5.1514   12.2412   27.4383 F   0  0  0  0  0  0  0  0  0  0  0  0
    6.9293   12.5910   25.9274 C   0  0  0  0  0  0  0  0  0  0  0  0
    7.8480   12.0367   25.0163 C   0  0  0  0  0  0  0  0  0  0  0  0
   10.3045   15.8754   20.2357 N   0  0  0  0  0  0  0  0  0  0  0  0
  1  2  1  0
  2  3  1  0
  3  4  2  0
  3  5  1  0
  5  6  1  0
  6  7  2  0
  7  8  1  0
  8  9  1  0
  9 10  1  0
 10 11  1  0
 11 12  1  0
 12 13  2  0
 12 14  1  0
 14 15  2  0
 15 16  1  0
 16 17  1  0
 16 18  1  0
 18 19  2  0
 19 20  1  0
 20 21  2  0
 21 22  1  0
 21 23  1  0
 23 24  2  0
  8 25  1  0
 25  5  2  0
 24 14  1  0
 24 18  1  0
M  END
>  <energy_score>  (613) 
-16.331815

>  <inchikey>  (613) 
None

>  <smiles>  (613) 
None

>  <ref_pdb>  (613) 
A3176a

>  <alias>  (613) 
None

>  <HIPPO Pose ID>  (613) 
499099

>  <name>  (613) 
P499099

>  <HIPPO Compound ID>  (613) 
299818

>  <ref_mols>  (613) 
A3417a,A3176a

>  <distance_score>  (613) 
0.734377

>  <inspiration_score>  (613) 
None

$$$$
P499100
     RDKit          3D

 26 29  0  0  0  0  0  0  0  0999 V2000
    9.1502    8.9972   23.1389 C   0  0  0  0  0  0  0  0  0  0  0  0
    8.9132   10.3030   23.7086 N   0  0  0  0  0  0  0  0  0  0  0  0
    9.7409   11.3006   23.3691 N   0  0  0  0  0  0  0  0  0  0  0  0
    9.3425   12.3465   24.1156 C   0  0  0  0  0  0  0  0  0  0  0  0
   10.1444   13.5842   24.1519 C   0  0  0  0  0  0  0  0  0  0  0  0
    9.9628   14.4082   24.9577 O   0  0  0  0  0  0  0  0  0  0  0  0
   11.1669   13.5191   23.0055 N   0  0  0  0  0  0  0  0  0  0  0  0
   12.1166   14.4901   22.5486 C   0  0  0  0  0  0  0  0  0  0  0  0
   12.2078   14.5853   21.0228 C   0  0  0  0  0  0  0  0  0  0  0  0
   11.0180   15.0344   20.3304 N   0  0  0  0  0  0  0  0  0  0  0  0
   11.1478   15.5446   19.0394 N   0  0  0  0  0  0  0  0  0  0  0  0
   10.2587   16.4873   18.9878 C   0  0  0  0  0  0  0  0  0  0  0  0
    9.8738   17.4057   17.9058 C   0  0  0  0  0  0  0  0  0  0  0  0
    8.9691   18.3665   18.1647 C   0  0  0  0  0  0  0  0  0  0  0  0
    8.4956   18.6223   19.4869 C   0  0  0  0  0  0  0  0  0  0  0  0
    8.7737   17.7329   20.4382 C   0  0  0  0  0  0  0  0  0  0  0  0
    9.5812   16.6816   20.1418 N   0  0  0  0  0  0  0  0  0  0  0  0
    9.9802   15.7038   20.9740 C   0  0  0  0  0  0  0  0  0  0  0  0
    9.4990   15.4943   22.0714 O   0  0  0  0  0  0  0  0  0  0  0  0
    8.1719   12.0310   24.8563 C   0  0  0  0  0  0  0  0  0  0  0  0
    7.3170   12.7231   25.7352 C   0  0  0  0  0  0  0  0  0  0  0  0
    6.3061   12.0122   26.3775 C   0  0  0  0  0  0  0  0  0  0  0  0
    5.5110   12.6438   27.2522 F   0  0  0  0  0  0  0  0  0  0  0  0
    6.1326   10.6506   26.1712 C   0  0  0  0  0  0  0  0  0  0  0  0
    6.9470    9.9581   25.2729 C   0  0  0  0  0  0  0  0  0  0  0  0
    7.9561   10.6733   24.6206 C   0  0  0  0  0  0  0  0  0  0  0  0
  1  2  1  0
  2  3  1  0
  3  4  2  0
  4  5  1  0
  5  6  2  0
  5  7  1  0
  7  8  1  0
  8  9  1  0
  9 10  1  0
 10 11  1  0
 11 12  2  0
 12 13  1  0
 13 14  2  0
 14 15  1  0
 15 16  2  0
 16 17  1  0
 17 18  1  0
 18 19  2  0
  4 20  1  0
 20 21  2  0
 21 22  1  0
 22 23  1  0
 22 24  2  0
 24 25  1  0
 25 26  2  0
 26  2  1  0
 18 10  1  0
 26 20  1  0
 17 12  1  0
M  END
>  <energy_score>  (614) 
-3.239157

>  <inchikey>  (614) 
None

>  <smiles>  (614) 
None

>  <ref_pdb>  (614) 
A3176a

>  <alias>  (614) 
None

>  <HIPPO Pose ID>  (614) 
499100

>  <name>  (614) 
P499100

>  <HIPPO Compound ID>  (614) 
299823

>  <ref_mols>  (614) 
A3417a,A3176a

>  <distance_score>  (614) 
1.081492

>  <inspiration_score>  (614) 
None

$$$$
P499102
     RDKit          3D

 26 29  0  0  0  0  0  0  0  0999 V2000
    8.5754   18.8096   19.0667 C   0  0  0  0  0  0  0  0  0  0  0  0
    9.7829   18.5428   18.3795 O   0  0  0  0  0  0  0  0  0  0  0  0
    9.8799   17.2438   17.7656 C   0  0  0  0  0  0  0  0  0  0  0  0
   10.2120   16.1395   18.6958 C   0  0  0  0  0  0  0  0  0  0  0  0
   11.4255   15.4902   18.7371 N   0  0  0  0  0  0  0  0  0  0  0  0
   11.3954   14.9172   19.9130 C   0  0  0  0  0  0  0  0  0  0  0  0
   10.2217   15.2154   20.5196 N   0  0  0  0  0  0  0  0  0  0  0  0
    9.3838   15.7876   19.6813 N   0  0  0  0  0  0  0  0  0  0  0  0
   10.1930   15.7257   21.8576 C   0  0  0  0  0  0  0  0  0  0  0  0
   11.1903   15.0568   22.7683 C   0  0  1  0  0  0  0  0  0  0  0  0
   10.5433   13.8878   23.2660 N   0  0  0  0  0  0  0  0  0  0  0  0
    9.6002   13.7052   24.4512 C   0  0  0  0  0  0  0  0  0  0  0  0
    9.2554   14.4614   25.2636 O   0  0  0  0  0  0  0  0  0  0  0  0
    9.0503   12.3539   24.3798 C   0  0  0  0  0  0  0  0  0  0  0  0
    9.5927   11.4132   23.5839 N   0  0  0  0  0  0  0  0  0  0  0  0
    8.8476   10.3170   23.8247 N   0  0  0  0  0  0  0  0  0  0  0  0
    9.2002    9.0789   23.1672 C   0  0  0  0  0  0  0  0  0  0  0  0
    7.8371   10.5373   24.7292 C   0  0  0  0  0  0  0  0  0  0  0  0
    6.8720    9.7040   25.2882 C   0  0  0  0  0  0  0  0  0  0  0  0
    5.9804   10.2517   26.2140 C   0  0  0  0  0  0  0  0  0  0  0  0
    6.0194   11.6016   26.5216 C   0  0  0  0  0  0  0  0  0  0  0  0
    5.1426   12.0978   27.4048 F   0  0  0  0  0  0  0  0  0  0  0  0
    6.9753   12.4383   25.9605 C   0  0  0  0  0  0  0  0  0  0  0  0
    7.9159   11.8800   25.0734 C   0  0  0  0  0  0  0  0  0  0  0  0
   12.5435   14.8642   22.1269 C   0  0  0  0  0  0  0  0  0  0  0  0
   12.4957   14.3513   20.6871 C   0  0  0  0  0  0  0  0  0  0  0  0
  1  2  1  0
  2  3  1  0
  3  4  1  0
  4  5  1  0
  5  6  2  0
  6  7  1  0
  7  8  1  0
  7  9  1  0
  9 10  1  0
 10 11  1  6
 11 12  1  0
 12 13  2  0
 12 14  1  0
 14 15  2  0
 15 16  1  0
 16 17  1  0
 16 18  1  0
 18 19  2  0
 19 20  1  0
 20 21  2  0
 21 22  1  0
 21 23  1  0
 23 24  2  0
 10 25  1  0
 25 26  1  0
  8  4  2  0
 24 14  1  0
 26  6  1  0
 24 18  1  0
M  END
>  <energy_score>  (615) 
-1.538697

>  <inchikey>  (615) 
None

>  <smiles>  (615) 
None

>  <ref_pdb>  (615) 
A3176a

>  <alias>  (615) 
None

>  <HIPPO Pose ID>  (615) 
499102

>  <name>  (615) 
P499102

>  <HIPPO Compound ID>  (615) 
299825

>  <ref_mols>  (615) 
A3417a,A3176a

>  <distance_score>  (615) 
0.867794

>  <inspiration_score>  (615) 
None

$$$$
P499103
     RDKit          3D

 26 29  0  0  0  0  0  0  0  0999 V2000
    9.1967    9.1664   23.1933 C   0  0  0  0  0  0  0  0  0  0  0  0
    8.8542   10.4441   23.7777 N   0  0  0  0  0  0  0  0  0  0  0  0
    9.6154   11.5120   23.4811 N   0  0  0  0  0  0  0  0  0  0  0  0
    9.1047   12.5102   24.2327 C   0  0  0  0  0  0  0  0  0  0  0  0
    9.7798   13.8229   24.2983 C   0  0  0  0  0  0  0  0  0  0  0  0
    9.4438   14.6585   25.0361 O   0  0  0  0  0  0  0  0  0  0  0  0
   10.9542   13.7784   23.3164 N   0  0  0  0  0  0  0  0  0  0  0  0
   11.9111   14.7856   22.9619 C   0  0  0  0  0  0  0  0  0  0  0  0
   12.3291   14.7218   21.5087 C   0  0  0  0  0  0  0  0  0  0  0  0
   11.3480   15.1333   20.5462 N   0  0  0  0  0  0  0  0  0  0  0  0
   11.4143   14.8783   19.2209 C   0  0  0  0  0  0  0  0  0  0  0  0
   10.5680   15.6458   18.5975 N   0  0  0  0  0  0  0  0  0  0  0  0
   10.0696   16.4471   19.5812 C   0  0  0  0  0  0  0  0  0  0  0  0
    9.3420   17.6697   19.2413 C   0  0  0  0  0  0  0  0  0  0  0  0
    9.1034   18.0201   17.9362 N   0  0  0  0  0  0  0  0  0  0  0  0
    8.4642   19.1793   17.9726 N   0  0  0  0  0  0  0  0  0  0  0  0
    8.3849   19.4736   19.2739 N   0  0  0  0  0  0  0  0  0  0  0  0
    8.9146   18.5869   20.1199 N   0  0  0  0  0  0  0  0  0  0  0  0
   10.4548   16.0862   20.8180 N   0  0  0  0  0  0  0  0  0  0  0  0
    7.9673   12.0789   24.9621 C   0  0  0  0  0  0  0  0  0  0  0  0
    7.0609   12.6759   25.8590 C   0  0  0  0  0  0  0  0  0  0  0  0
    6.1103   11.8690   26.4782 C   0  0  0  0  0  0  0  0  0  0  0  0
    5.2661   12.4091   27.3676 F   0  0  0  0  0  0  0  0  0  0  0  0
    6.0437   10.5059   26.2284 C   0  0  0  0  0  0  0  0  0  0  0  0
    6.9087    9.9082   25.3099 C   0  0  0  0  0  0  0  0  0  0  0  0
    7.8643   10.7164   24.6890 C   0  0  0  0  0  0  0  0  0  0  0  0
  1  2  1  0
  2  3  1  0
  3  4  2  0
  4  5  1  0
  5  6  2  0
  5  7  1  0
  7  8  1  0
  8  9  1  0
  9 10  1  0
 10 11  1  0
 11 12  2  0
 12 13  1  0
 13 14  1  0
 14 15  1  0
 15 16  2  0
 16 17  1  0
 17 18  1  0
 13 19  2  0
  4 20  1  0
 20 21  2  0
 21 22  1  0
 22 23  1  0
 22 24  2  0
 24 25  1  0
 25 26  2  0
 26  2  1  0
 19 10  1  0
 26 20  1  0
 18 14  2  0
M  END
>  <energy_score>  (616) 
-34.098421

>  <inchikey>  (616) 
None

>  <smiles>  (616) 
None

>  <ref_pdb>  (616) 
A3176a

>  <alias>  (616) 
None

>  <HIPPO Pose ID>  (616) 
499103

>  <name>  (616) 
P499103

>  <HIPPO Compound ID>  (616) 
299835

>  <ref_mols>  (616) 
A3417a,A3176a

>  <distance_score>  (616) 
0.732723

>  <inspiration_score>  (616) 
None

$$$$
P499106
     RDKit          3D

 30 33  0  0  0  0  0  0  0  0999 V2000
   13.5436   13.5183   25.7078 C   0  0  0  0  0  0  0  0  0  0  0  0
   13.0347   13.9198   24.3365 C   0  0  0  0  0  0  0  0  0  0  0  0
   11.6259   14.4767   24.2948 C   0  0  2  0  0  0  0  0  0  0  0  0
   10.6766   13.4485   24.4640 N   0  0  0  0  0  0  0  0  0  0  0  0
    9.4621   13.3700   25.3582 C   0  0  0  0  0  0  0  0  0  0  0  0
    9.0743   14.1047   26.1670 O   0  0  0  0  0  0  0  0  0  0  0  0
    8.7515   12.1794   24.9413 C   0  0  0  0  0  0  0  0  0  0  0  0
    9.2716   11.3469   24.0191 N   0  0  0  0  0  0  0  0  0  0  0  0
    8.4826   10.2700   24.0875 N   0  0  0  0  0  0  0  0  0  0  0  0
    8.8789    9.1004   23.3384 C   0  0  0  0  0  0  0  0  0  0  0  0
    7.4526   10.4354   24.9822 C   0  0  0  0  0  0  0  0  0  0  0  0
    6.4771    9.5887   25.4722 C   0  0  0  0  0  0  0  0  0  0  0  0
    5.6191   10.0630   26.4691 C   0  0  0  0  0  0  0  0  0  0  0  0
    5.6520   11.3850   26.8717 C   0  0  0  0  0  0  0  0  0  0  0  0
    4.7866   11.8132   27.7998 F   0  0  0  0  0  0  0  0  0  0  0  0
    6.6022   12.2515   26.3678 C   0  0  0  0  0  0  0  0  0  0  0  0
    7.5393   11.7340   25.4578 C   0  0  0  0  0  0  0  0  0  0  0  0
   11.2238   15.2178   22.9824 C   0  0  2  0  0  0  0  0  0  0  0  0
    9.7348   15.1480   22.5510 C   0  0  0  0  0  0  0  0  0  0  0  0
    9.3073   14.8953   21.2537 C   0  0  0  0  0  0  0  0  0  0  0  0
    7.9470   14.7198   21.0002 C   0  0  0  0  0  0  0  0  0  0  0  0
    6.9531   14.8247   21.9773 C   0  0  0  0  0  0  0  0  0  0  0  0
    5.4967   14.6621   21.6724 C   0  0  0  0  0  0  0  0  0  0  0  0
    7.3498   15.1794   23.2441 C   0  0  0  0  0  0  0  0  0  0  0  0
    8.7087   15.3364   23.5013 C   0  0  0  0  0  0  0  0  0  0  0  0
   12.0714   14.8419   21.8974 N   0  0  0  0  0  0  0  0  0  0  0  0
   12.7477   15.6803   21.1092 C   0  0  0  0  0  0  0  0  0  0  0  0
   12.8662   15.1225   19.9342 N   0  0  0  0  0  0  0  0  0  0  0  0
   12.5251   13.8547   20.1958 C   0  0  0  0  0  0  0  0  0  0  0  0
   12.1121   13.6117   21.4349 N   0  0  0  0  0  0  0  0  0  0  0  0
  1  2  1  0
  3  2  1  6
  3  4  1  0
  4  5  1  0
  5  6  2  0
  5  7  1  0
  7  8  2  0
  8  9  1  0
  9 10  1  0
  9 11  1  0
 11 12  2  0
 12 13  1  0
 13 14  2  0
 14 15  1  0
 14 16  1  0
 16 17  2  0
  3 18  1  0
 18 19  1  0
 19 20  2  0
 20 21  1  0
 21 22  2  0
 22 23  1  0
 22 24  1  0
 24 25  2  0
 18 26  1  6
 26 27  1  0
 27 28  2  0
 28 29  1  0
 29 30  2  0
 17  7  1  0
 25 19  1  0
 30 26  1  0
 17 11  1  0
M  END
>  <energy_score>  (617) 
-5.203058

>  <inchikey>  (617) 
None

>  <smiles>  (617) 
None

>  <ref_pdb>  (617) 
A3176a

>  <alias>  (617) 
None

>  <HIPPO Pose ID>  (617) 
499106

>  <name>  (617) 
P499106

>  <HIPPO Compound ID>  (617) 
299845

>  <ref_mols>  (617) 
A3417a,A3176a

>  <distance_score>  (617) 
1.629659

>  <inspiration_score>  (617) 
None

$$$$
P499107
     RDKit          3D

 16 17  0  0  0  0  0  0  0  0999 V2000
   12.3376   15.3257   21.8436 C   0  0  0  0  0  0  0  0  0  0  0  0
   12.0212   13.9040   21.3532 C   0  0  1  0  0  0  0  0  0  0  0  0
   10.4964   13.8227   21.5069 C   0  0  0  0  0  0  0  0  0  0  0  0
    9.7098   13.3753   22.6048 N   0  0  0  0  0  0  0  0  0  0  0  0
   10.0392   12.3874   23.7309 C   0  0  0  0  0  0  0  0  0  0  0  0
   11.0341   11.8381   23.9862 O   0  0  0  0  0  0  0  0  0  0  0  0
    8.6123   12.2086   24.5377 C   0  0  0  0  0  0  0  0  0  0  0  0
    7.3202   13.3625   23.8933 Cl  0  0  0  0  0  0  0  0  0  0  0  0
    8.6597   12.2618   26.0755 C   0  0  0  0  0  0  0  0  0  0  0  0
    7.5951   11.1514   26.0831 C   0  0  0  0  0  0  0  0  0  0  0  0
    8.2189   10.6993   24.7554 C   0  0  0  0  0  0  0  0  0  0  0  0
   12.4992   13.8675   19.8650 C   0  0  0  0  0  0  0  0  0  0  0  0
   13.3799   12.6046   19.7064 C   0  0  0  0  0  0  0  0  0  0  0  0
   13.2224   11.8919   21.0350 C   0  0  0  0  0  0  0  0  0  0  0  0
   13.5198   10.7282   21.2255 O   0  0  0  0  0  0  0  0  0  0  0  0
   12.7041   12.7877   21.9700 N   0  0  0  0  0  0  0  0  0  0  0  0
  2  1  1  1
  2  3  1  0
  3  4  1  0
  4  5  1  0
  5  6  2  0
  5  7  1  0
  7  8  1  0
  7  9  1  0
  9 10  1  0
 10 11  1  0
  2 12  1  0
 12 13  1  0
 13 14  1  0
 14 15  2  0
 14 16  1  0
 16  2  1  0
 11  7  1  0
M  END
>  <energy_score>  (618) 
-9.548039

>  <inchikey>  (618) 
None

>  <smiles>  (618) 
None

>  <ref_pdb>  (618) 
A1776a

>  <alias>  (618) 
None

>  <HIPPO Pose ID>  (618) 
499107

>  <name>  (618) 
P499107

>  <HIPPO Compound ID>  (618) 
300681

>  <ref_mols>  (618) 
A1776a,A0528a

>  <distance_score>  (618) 
1.882565

>  <inspiration_score>  (618) 
None

$$$$
P499108
     RDKit          3D

 17 17  0  0  0  0  0  0  0  0999 V2000
    4.6507   13.8895   32.0747 C   0  0  0  0  0  0  0  0  0  0  0  0
    4.4666   13.4550   30.6286 C   0  0  0  0  0  0  0  0  0  0  0  0
    5.8120   13.3335   29.9084 C   0  0  0  0  0  0  0  0  0  0  0  0
    5.6715   12.9850   28.4226 C   0  0  2  0  0  0  0  0  0  0  0  0
    5.0146   11.3336   28.2040 Cl  0  0  0  0  0  0  0  0  0  0  0  0
    7.0292   13.0534   27.6878 C   0  0  0  0  0  0  0  0  0  0  0  0
    8.0445   13.2270   28.2406 O   0  0  0  0  0  0  0  0  0  0  0  0
    6.7217   12.9002   26.1724 N   0  0  0  0  0  0  0  0  0  0  0  0
    7.6108   12.8345   25.0383 C   0  0  0  0  0  0  0  0  0  0  0  0
    8.2810   11.4473   24.9724 C   0  0  1  0  0  0  0  0  0  0  0  0
    8.8284   11.0870   23.6151 C   0  0  0  0  0  0  0  0  0  0  0  0
   10.3014   11.4521   23.5679 C   0  0  0  0  0  0  0  0  0  0  0  0
   11.1413   10.3466   22.9258 C   0  0  0  0  0  0  0  0  0  0  0  0
   10.5389   12.8007   22.9017 C   0  0  0  0  0  0  0  0  0  0  0  0
   10.5899   11.6278   25.0229 C   0  0  0  0  0  0  0  0  0  0  0  0
   11.6642   11.9527   25.4795 O   0  0  0  0  0  0  0  0  0  0  0  0
    9.4520   11.4286   25.7719 N   0  0  0  0  0  0  0  0  0  0  0  0
  1  2  1  0
  2  3  1  0
  3  4  1  0
  4  5  1  1
  4  6  1  0
  6  7  2  0
  6  8  1  0
  8  9  1  0
 10  9  1  6
 10 11  1  0
 11 12  1  0
 12 13  1  0
 12 14  1  0
 12 15  1  0
 15 16  2  0
 15 17  1  0
 17 10  1  0
M  END
>  <energy_score>  (619) 
-11.696063

>  <inchikey>  (619) 
None

>  <smiles>  (619) 
None

>  <ref_pdb>  (619) 
A1776a

>  <alias>  (619) 
None

>  <HIPPO Pose ID>  (619) 
499108

>  <name>  (619) 
P499108

>  <HIPPO Compound ID>  (619) 
300701

>  <ref_mols>  (619) 
A1776a,A0528a

>  <distance_score>  (619) 
1.84603

>  <inspiration_score>  (619) 
None

$$$$
P499109
     RDKit          3D

 17 17  0  0  0  0  0  0  0  0999 V2000
    2.0071   13.9842   29.8221 C   0  0  0  0  0  0  0  0  0  0  0  0
    3.0032   14.3012   28.9856 C   0  0  0  0  0  0  0  0  0  0  0  0
    4.4061   13.7613   29.1043 C   0  0  0  0  0  0  0  0  0  0  0  0
    4.8519   12.9621   27.8708 C   0  0  2  0  0  0  0  0  0  0  0  0
    3.9970   11.3830   27.8159 Cl  0  0  0  0  0  0  0  0  0  0  0  0
    6.3639   12.6632   27.9086 C   0  0  0  0  0  0  0  0  0  0  0  0
    7.0352   12.9229   28.8297 O   0  0  0  0  0  0  0  0  0  0  0  0
    6.7242   11.9724   26.5623 N   0  0  0  0  0  0  0  0  0  0  0  0
    7.9568   11.3788   26.1182 C   0  0  0  0  0  0  0  0  0  0  0  0
    7.9707   10.9515   24.6557 C   0  0  2  0  0  0  0  0  0  0  0  0
    9.1585   10.1021   24.2280 C   0  0  0  0  0  0  0  0  0  0  0  0
   10.2105   11.1264   23.7837 C   0  0  0  0  0  0  0  0  0  0  0  0
   11.1455   10.5291   22.7455 C   0  0  0  0  0  0  0  0  0  0  0  0
   10.9854   11.6665   24.9583 C   0  0  0  0  0  0  0  0  0  0  0  0
    9.3593   12.3033   23.3528 C   0  0  0  0  0  0  0  0  0  0  0  0
    9.7480   13.3267   22.8285 O   0  0  0  0  0  0  0  0  0  0  0  0
    8.0623   12.0893   23.7776 N   0  0  0  0  0  0  0  0  0  0  0  0
  1  2  2  0
  2  3  1  0
  3  4  1  0
  4  5  1  1
  4  6  1  0
  6  7  2  0
  6  8  1  0
  8  9  1  0
 10  9  1  1
 10 11  1  0
 11 12  1  0
 12 13  1  0
 12 14  1  0
 12 15  1  0
 15 16  2  0
 15 17  1  0
 17 10  1  0
M  END
>  <energy_score>  (620) 
-12.496969

>  <inchikey>  (620) 
None

>  <smiles>  (620) 
None

>  <ref_pdb>  (620) 
A1776a

>  <alias>  (620) 
None

>  <HIPPO Pose ID>  (620) 
499109

>  <name>  (620) 
P499109

>  <HIPPO Compound ID>  (620) 
300703

>  <ref_mols>  (620) 
A1776a,A0528a

>  <distance_score>  (620) 
1.860804

>  <inspiration_score>  (620) 
None

$$$$
P499110
     RDKit          3D

 17 18  0  0  0  0  0  0  0  0999 V2000
    7.7253    9.8085   25.2766 C   0  0  0  0  0  0  0  0  0  0  0  0
    7.4750   11.1857   25.8019 C   0  0  0  0  0  0  0  0  0  0  0  0
    6.2964   11.2829   26.7415 C   0  0  0  0  0  0  0  0  0  0  0  0
    8.6436   12.0733   26.1260 C   0  0  0  0  0  0  0  0  0  0  0  0
    7.8548   12.3176   24.8577 C   0  0  2  0  0  0  0  0  0  0  0  0
    6.8565   13.7910   24.8571 Cl  0  0  0  0  0  0  0  0  0  0  0  0
    8.6611   12.0705   23.5969 C   0  0  0  0  0  0  0  0  0  0  0  0
    8.9437   10.9969   23.2754 O   0  0  0  0  0  0  0  0  0  0  0  0
    9.0489   13.4064   23.0033 N   0  0  0  0  0  0  0  0  0  0  0  0
    9.9493   13.7253   21.9357 C   0  0  0  0  0  0  0  0  0  0  0  0
   11.4461   13.5099   22.2532 C   0  0  2  0  0  0  0  0  0  0  0  0
   11.9882   14.9302   21.9593 C   0  0  0  0  0  0  0  0  0  0  0  0
   12.4296   12.5378   21.6175 C   0  0  0  0  0  0  0  0  0  0  0  0
   12.0053   11.1573   22.0872 C   0  0  0  0  0  0  0  0  0  0  0  0
   11.7442   11.5060   23.5035 C   0  0  0  0  0  0  0  0  0  0  0  0
   11.6527   10.7480   24.4466 O   0  0  0  0  0  0  0  0  0  0  0  0
   11.5099   12.8708   23.5616 N   0  0  0  0  0  0  0  0  0  0  0  0
  1  2  1  0
  2  3  1  0
  2  4  1  0
  4  5  1  0
  5  6  1  1
  5  7  1  0
  7  8  2  0
  7  9  1  0
  9 10  1  0
 11 10  1  0
 11 12  1  1
 11 13  1  0
 13 14  1  0
 14 15  1  0
 15 16  2  0
 15 17  1  0
  5  2  1  0
 17 11  1  0
M  END
>  <energy_score>  (621) 
-15.563504

>  <inchikey>  (621) 
None

>  <smiles>  (621) 
None

>  <ref_pdb>  (621) 
A1776a

>  <alias>  (621) 
None

>  <HIPPO Pose ID>  (621) 
499110

>  <name>  (621) 
P499110

>  <HIPPO Compound ID>  (621) 
300715

>  <ref_mols>  (621) 
A1776a,A0528a

>  <distance_score>  (621) 
1.845144

>  <inspiration_score>  (621) 
None

$$$$
P499111
     RDKit          3D

 17 17  0  0  0  0  0  0  0  0999 V2000
    3.5567   12.9739   27.3812 C   0  0  0  0  0  0  0  0  0  0  0  0
    4.4442   12.0733   28.2483 C   0  0  0  0  0  0  0  0  0  0  0  0
    4.5616   10.6602   27.6670 C   0  0  0  0  0  0  0  0  0  0  0  0
    5.8105   12.6468   28.6796 C   0  0  2  0  0  0  0  0  0  0  0  0
    5.6540   14.2571   29.4616 Cl  0  0  0  0  0  0  0  0  0  0  0  0
    7.0917   12.6830   27.7871 C   0  0  0  0  0  0  0  0  0  0  0  0
    8.1331   12.6983   28.3206 O   0  0  0  0  0  0  0  0  0  0  0  0
    6.7370   12.6332   26.2805 N   0  0  0  0  0  0  0  0  0  0  0  0
    7.5910   12.4952   25.1150 C   0  0  0  0  0  0  0  0  0  0  0  0
    8.3387   11.1478   25.2094 C   0  0  1  0  0  0  0  0  0  0  0  0
    8.9157   10.5018   23.9751 C   0  0  0  0  0  0  0  0  0  0  0  0
   10.1945   11.2634   23.6602 C   0  0  0  0  0  0  0  0  0  0  0  0
   11.1902   10.3860   22.9096 C   0  0  0  0  0  0  0  0  0  0  0  0
    9.9577   12.6124   22.9786 C   0  0  0  0  0  0  0  0  0  0  0  0
   10.6170   11.5769   25.0618 C   0  0  0  0  0  0  0  0  0  0  0  0
   11.7035   11.9965   25.3910 O   0  0  0  0  0  0  0  0  0  0  0  0
    9.5441   11.3980   25.9155 N   0  0  0  0  0  0  0  0  0  0  0  0
  1  2  1  0
  2  3  1  0
  2  4  1  0
  4  5  1  6
  4  6  1  0
  6  7  2  0
  6  8  1  0
  8  9  1  0
 10  9  1  6
 10 11  1  0
 11 12  1  0
 12 13  1  0
 12 14  1  0
 12 15  1  0
 15 16  2  0
 15 17  1  0
 17 10  1  0
M  END
>  <energy_score>  (622) 
-10.417022

>  <inchikey>  (622) 
None

>  <smiles>  (622) 
None

>  <ref_pdb>  (622) 
A1776a

>  <alias>  (622) 
None

>  <HIPPO Pose ID>  (622) 
499111

>  <name>  (622) 
P499111

>  <HIPPO Compound ID>  (622) 
300718

>  <ref_mols>  (622) 
A1776a,A0528a

>  <distance_score>  (622) 
1.993591

>  <inspiration_score>  (622) 
None

$$$$
P499112
     RDKit          3D

 17 17  0  0  0  0  0  0  0  0999 V2000
    7.5584   15.1381   22.8326 C   0  0  0  0  0  0  0  0  0  0  0  0
    8.5446   14.4722   22.2175 C   0  0  0  0  0  0  0  0  0  0  0  0
    9.9527   14.4396   22.7348 C   0  0  0  0  0  0  0  0  0  0  0  0
   11.0291   13.9819   21.7543 C   0  0  1  0  0  0  0  0  0  0  0  0
   12.1506   15.3225   21.3928 Cl  0  0  0  0  0  0  0  0  0  0  0  0
   11.8651   12.7584   22.2144 C   0  0  0  0  0  0  0  0  0  0  0  0
   13.0271   12.7637   22.2424 O   0  0  0  0  0  0  0  0  0  0  0  0
   10.8677   11.6216   22.4874 N   0  0  0  0  0  0  0  0  0  0  0  0
   11.0897   10.2423   22.7569 C   0  0  0  0  0  0  0  0  0  0  0  0
   10.6150    9.8518   24.1334 C   0  0  2  0  0  0  0  0  0  0  0  0
    9.1919    9.3273   24.0798 C   0  0  0  0  0  0  0  0  0  0  0  0
    8.3605   10.5337   24.4464 C   0  0  0  0  0  0  0  0  0  0  0  0
    7.1549   10.1482   24.9120 F   0  0  0  0  0  0  0  0  0  0  0  0
    8.1863   11.3292   23.3583 F   0  0  0  0  0  0  0  0  0  0  0  0
    9.2325   11.2725   25.4144 C   0  0  0  0  0  0  0  0  0  0  0  0
    8.8762   12.0674   26.2653 O   0  0  0  0  0  0  0  0  0  0  0  0
   10.5391   10.9486   25.0823 N   0  0  0  0  0  0  0  0  0  0  0  0
  1  2  2  0
  2  3  1  0
  3  4  1  0
  4  5  1  1
  4  6  1  0
  6  7  2  0
  6  8  1  0
  8  9  1  0
 10  9  1  6
 10 11  1  0
 11 12  1  0
 12 13  1  0
 12 14  1  0
 12 15  1  0
 15 16  2  0
 15 17  1  0
 17 10  1  0
M  END
>  <energy_score>  (623) 
-9.037996

>  <inchikey>  (623) 
None

>  <smiles>  (623) 
None

>  <ref_pdb>  (623) 
A1776a

>  <alias>  (623) 
None

>  <HIPPO Pose ID>  (623) 
499112

>  <name>  (623) 
P499112

>  <HIPPO Compound ID>  (623) 
300721

>  <ref_mols>  (623) 
A1776a,A0528a

>  <distance_score>  (623) 
1.943178

>  <inspiration_score>  (623) 
None

$$$$
P499114
     RDKit          3D

 17 17  0  0  0  0  0  0  0  0999 V2000
    7.4541   14.9129   23.3447 C   0  0  0  0  0  0  0  0  0  0  0  0
    8.4002   14.2956   22.3221 C   0  0  0  0  0  0  0  0  0  0  0  0
    9.8564   14.4435   22.7578 C   0  0  0  0  0  0  0  0  0  0  0  0
   10.9278   13.9772   21.7766 C   0  0  1  0  0  0  0  0  0  0  0  0
   12.0613   15.3202   21.4304 Cl  0  0  0  0  0  0  0  0  0  0  0  0
   11.7952   12.7598   22.2127 C   0  0  0  0  0  0  0  0  0  0  0  0
   12.9571   12.7813   22.2090 O   0  0  0  0  0  0  0  0  0  0  0  0
   10.8229   11.6106   22.5099 N   0  0  0  0  0  0  0  0  0  0  0  0
   11.0710   10.2348   22.7700 C   0  0  0  0  0  0  0  0  0  0  0  0
   10.6103    9.8286   24.1448 C   0  0  2  0  0  0  0  0  0  0  0  0
    9.1958    9.2822   24.0934 C   0  0  0  0  0  0  0  0  0  0  0  0
    8.3474   10.4682   24.4820 C   0  0  0  0  0  0  0  0  0  0  0  0
    7.1524   10.0621   24.9574 F   0  0  0  0  0  0  0  0  0  0  0  0
    8.1470   11.2643   23.4019 F   0  0  0  0  0  0  0  0  0  0  0  0
    9.2154   11.2274   25.4372 C   0  0  0  0  0  0  0  0  0  0  0  0
    8.8526   12.0321   26.2761 O   0  0  0  0  0  0  0  0  0  0  0  0
   10.5237   10.9199   25.0991 N   0  0  0  0  0  0  0  0  0  0  0  0
  1  2  1  0
  2  3  1  0
  3  4  1  0
  4  5  1  1
  4  6  1  0
  6  7  2  0
  6  8  1  0
  8  9  1  0
 10  9  1  6
 10 11  1  0
 11 12  1  0
 12 13  1  0
 12 14  1  0
 12 15  1  0
 15 16  2  0
 15 17  1  0
 17 10  1  0
M  END
>  <energy_score>  (624) 
-10.871187

>  <inchikey>  (624) 
None

>  <smiles>  (624) 
None

>  <ref_pdb>  (624) 
A1776a

>  <alias>  (624) 
None

>  <HIPPO Pose ID>  (624) 
499114

>  <name>  (624) 
P499114

>  <HIPPO Compound ID>  (624) 
300732

>  <ref_mols>  (624) 
A1776a,A0528a

>  <distance_score>  (624) 
1.882194

>  <inspiration_score>  (624) 
None

$$$$
P499116
     RDKit          3D

 18 19  0  0  0  0  0  0  0  0999 V2000
   13.8820   10.4762   20.6581 O   0  0  0  0  0  0  0  0  0  0  0  0
   12.9999   10.7810   21.4438 C   0  0  0  0  0  0  0  0  0  0  0  0
   12.7691   12.1191   21.7587 N   0  0  0  0  0  0  0  0  0  0  0  0
   11.7789   12.2127   22.7668 C   0  0  1  0  0  0  0  0  0  0  0  0
   10.7270   13.3253   22.6335 C   0  0  0  0  0  0  0  0  0  0  0  0
    9.8571   13.1016   23.7558 N   0  0  0  0  0  0  0  0  0  0  0  0
    8.3625   12.8099   23.8081 C   0  0  0  0  0  0  0  0  0  0  0  0
    7.5716   12.7781   22.9592 O   0  0  0  0  0  0  0  0  0  0  0  0
    7.9997   12.4239   25.2342 C   0  0  2  0  0  0  0  0  0  0  0  0
    7.1084   13.5639   26.2139 Cl  0  0  0  0  0  0  0  0  0  0  0  0
    9.0324   11.7026   26.0731 C   0  0  0  0  0  0  0  0  0  0  0  0
    7.8406   10.9473   25.6216 C   0  0  2  0  0  0  0  0  0  0  0  0
    7.8705    9.9263   24.5581 C   0  0  0  0  0  0  0  0  0  0  0  0
    9.2832    8.9256   24.4131 Cl  0  0  0  0  0  0  0  0  0  0  0  0
   11.1526   10.8430   22.9288 C   0  0  0  0  0  0  0  0  0  0  0  0
   11.9686    9.8760   22.1320 C   0  0  0  0  0  0  0  0  0  0  0  0
   12.3923    8.8882   22.9554 F   0  0  0  0  0  0  0  0  0  0  0  0
   11.1629    9.2330   21.2589 F   0  0  0  0  0  0  0  0  0  0  0  0
  1  2  2  0
  2  3  1  0
  3  4  1  0
  4  5  1  6
  5  6  1  0
  6  7  1  0
  7  8  2  0
  7  9  1  0
  9 10  1  1
  9 11  1  0
 11 12  1  0
 12 13  1  6
 13 14  1  0
  4 15  1  0
 15 16  1  0
 16 17  1  0
 16 18  1  0
 16  2  1  0
 12  9  1  0
M  END
>  <energy_score>  (625) 
-4.099886

>  <inchikey>  (625) 
None

>  <smiles>  (625) 
None

>  <ref_pdb>  (625) 
A1776a

>  <alias>  (625) 
None

>  <HIPPO Pose ID>  (625) 
499116

>  <name>  (625) 
P499116

>  <HIPPO Compound ID>  (625) 
300769

>  <ref_mols>  (625) 
A1776a,A0528a

>  <distance_score>  (625) 
1.706002

>  <inspiration_score>  (625) 
None

$$$$
P499118
     RDKit          3D

 18 19  0  0  0  0  0  0  0  0999 V2000
   13.2181   11.7330   21.5839 C   0  0  0  0  0  0  0  0  0  0  0  0
   12.3539   10.5052   21.8177 C   0  0  0  0  0  0  0  0  0  0  0  0
   11.1439   10.6564   22.7691 C   0  0  1  0  0  0  0  0  0  0  0  0
   10.5992   12.0968   22.7745 C   0  0  0  0  0  0  0  0  0  0  0  0
    9.4642   12.4169   23.5969 N   0  0  0  0  0  0  0  0  0  0  0  0
    8.3423   11.5222   24.1397 C   0  0  0  0  0  0  0  0  0  0  0  0
    8.1136   10.4000   23.9464 O   0  0  0  0  0  0  0  0  0  0  0  0
    7.5350   12.2558   25.1195 C   0  0  1  0  0  0  0  0  0  0  0  0
    7.2370   13.9567   24.7773 Cl  0  0  0  0  0  0  0  0  0  0  0  0
    6.6683   11.6459   26.2129 C   0  0  0  0  0  0  0  0  0  0  0  0
    8.1021   11.8074   26.4136 C   0  0  0  0  0  0  0  0  0  0  0  0
    8.7254   12.7427   27.1740 F   0  0  0  0  0  0  0  0  0  0  0  0
    8.9260   10.7061   26.4088 F   0  0  0  0  0  0  0  0  0  0  0  0
   10.2343    9.4627   22.4401 C   0  0  0  0  0  0  0  0  0  0  0  0
   10.3987    8.4322   23.5264 C   0  0  0  0  0  0  0  0  0  0  0  0
   11.5907    8.9750   24.1917 C   0  0  0  0  0  0  0  0  0  0  0  0
   12.5099    8.3421   24.6625 O   0  0  0  0  0  0  0  0  0  0  0  0
   11.5758   10.3440   24.0999 N   0  0  0  0  0  0  0  0  0  0  0  0
  1  2  1  0
  3  2  1  6
  3  4  1  0
  4  5  1  0
  5  6  1  0
  6  7  2  0
  6  8  1  0
  8  9  1  6
  8 10  1  0
 10 11  1  0
 11 12  1  0
 11 13  1  0
  3 14  1  0
 14 15  1  0
 15 16  1  0
 16 17  2  0
 16 18  1  0
 18  3  1  0
 11  8  1  0
M  END
>  <energy_score>  (626) 
-6.243274

>  <inchikey>  (626) 
None

>  <smiles>  (626) 
None

>  <ref_pdb>  (626) 
A1776a

>  <alias>  (626) 
None

>  <HIPPO Pose ID>  (626) 
499118

>  <name>  (626) 
P499118

>  <HIPPO Compound ID>  (626) 
300778

>  <ref_mols>  (626) 
A1776a,A0528a

>  <distance_score>  (626) 
1.788825

>  <inspiration_score>  (626) 
None

$$$$
P499119
     RDKit          3D

 18 19  0  0  0  0  0  0  0  0999 V2000
    9.3187   11.0259   26.2674 O   0  0  0  0  0  0  0  0  0  0  0  0
    9.6578   10.5095   25.2240 C   0  0  0  0  0  0  0  0  0  0  0  0
    8.7248    9.8322   24.2873 C   0  0  0  0  0  0  0  0  0  0  0  0
    9.6707    9.4934   23.1829 C   0  0  0  0  0  0  0  0  0  0  0  0
   10.8001   10.5210   23.2301 C   0  0  2  0  0  0  0  0  0  0  0  0
   10.6920   12.0135   22.8243 C   0  0  0  0  0  0  0  0  0  0  0  0
    9.7138   12.7835   23.5579 N   0  0  0  0  0  0  0  0  0  0  0  0
    8.2536   13.0984   23.2362 C   0  0  0  0  0  0  0  0  0  0  0  0
    7.6211   12.8552   22.2935 O   0  0  0  0  0  0  0  0  0  0  0  0
    7.5398   13.7778   24.3647 C   0  0  0  0  0  0  0  0  0  0  0  0
    6.6747   15.2250   23.7831 Cl  0  0  0  0  0  0  0  0  0  0  0  0
    6.7937   12.8966   25.3631 C   0  0  0  0  0  0  0  0  0  0  0  0
    7.9586   13.6771   25.8170 C   0  0  0  0  0  0  0  0  0  0  0  0
   11.8743    9.8586   22.3684 C   0  0  0  0  0  0  0  0  0  0  0  0
   12.8088   10.7218   21.9346 F   0  0  0  0  0  0  0  0  0  0  0  0
   11.3589    9.2941   21.2621 F   0  0  0  0  0  0  0  0  0  0  0  0
   12.4104    8.8269   23.0507 F   0  0  0  0  0  0  0  0  0  0  0  0
   10.9283   10.5821   24.6787 N   0  0  0  0  0  0  0  0  0  0  0  0
  1  2  2  0
  2  3  1  0
  3  4  1  0
  4  5  1  0
  5  6  1  6
  6  7  1  0
  7  8  1  0
  8  9  2  0
  8 10  1  0
 10 11  1  0
 10 12  1  0
 12 13  1  0
  5 14  1  0
 14 15  1  0
 14 16  1  0
 14 17  1  0
  5 18  1  0
 18  2  1  0
 13 10  1  0
M  END
>  <energy_score>  (627) 
-8.478422

>  <inchikey>  (627) 
None

>  <smiles>  (627) 
None

>  <ref_pdb>  (627) 
A1776a

>  <alias>  (627) 
None

>  <HIPPO Pose ID>  (627) 
499119

>  <name>  (627) 
P499119

>  <HIPPO Compound ID>  (627) 
300779

>  <ref_mols>  (627) 
A1776a,A0528a

>  <distance_score>  (627) 
1.851459

>  <inspiration_score>  (627) 
None

$$$$
P499120
     RDKit          3D

 18 19  0  0  0  0  0  0  0  0999 V2000
   12.0999   15.3864   21.8809 C   0  0  0  0  0  0  0  0  0  0  0  0
   11.7239   13.9953   21.4013 C   0  0  0  0  0  0  0  0  0  0  0  0
   11.9142   14.1489   19.8518 C   0  0  0  0  0  0  0  0  0  0  0  0
   12.5965   12.7622   21.8705 C   0  0  0  0  0  0  0  0  0  0  0  0
   11.6587   11.7559   22.4487 C   0  0  0  0  0  0  0  0  0  0  0  0
   11.8970   10.5989   22.7398 O   0  0  0  0  0  0  0  0  0  0  0  0
   10.4387   12.3380   22.5701 N   0  0  0  0  0  0  0  0  0  0  0  0
   10.2871   13.6031   21.9092 C   0  0  1  0  0  0  0  0  0  0  0  0
    9.3863   14.5682   22.7454 C   0  0  0  0  0  0  0  0  0  0  0  0
    8.7145   14.0422   23.9207 N   0  0  0  0  0  0  0  0  0  0  0  0
    9.2294   13.1050   25.0350 C   0  0  0  0  0  0  0  0  0  0  0  0
   10.2933   12.6715   25.2247 O   0  0  0  0  0  0  0  0  0  0  0  0
    8.1558   12.6223   25.9322 C   0  0  1  0  0  0  0  0  0  0  0  0
    8.3493   12.8620   27.6641 Cl  0  0  0  0  0  0  0  0  0  0  0  0
    6.7034   12.4518   25.6119 C   0  0  0  0  0  0  0  0  0  0  0  0
    7.6472   11.3609   25.3047 C   0  0  0  0  0  0  0  0  0  0  0  0
    7.7232   10.1723   25.9659 F   0  0  0  0  0  0  0  0  0  0  0  0
    7.9681   11.0832   23.9910 F   0  0  0  0  0  0  0  0  0  0  0  0
  1  2  1  0
  2  3  1  0
  2  4  1  0
  4  5  1  0
  5  6  2  0
  5  7  1  0
  7  8  1  0
  8  9  1  1
  9 10  1  0
 10 11  1  0
 11 12  2  0
 11 13  1  0
 13 14  1  1
 13 15  1  0
 15 16  1  0
 16 17  1  0
 16 18  1  0
  8  2  1  0
 16 13  1  0
M  END
>  <energy_score>  (628) 
-2.928398

>  <inchikey>  (628) 
None

>  <smiles>  (628) 
None

>  <ref_pdb>  (628) 
A1776a

>  <alias>  (628) 
None

>  <HIPPO Pose ID>  (628) 
499120

>  <name>  (628) 
P499120

>  <HIPPO Compound ID>  (628) 
300782

>  <ref_mols>  (628) 
A1776a,A0528a

>  <distance_score>  (628) 
1.83291

>  <inspiration_score>  (628) 
None

$$$$
P499122
     RDKit          3D

 19 20  0  0  0  0  0  0  0  0999 V2000
   10.1536   10.3987   24.7697 C   0  0  0  0  0  0  0  0  0  0  0  0
    8.6690   10.6127   24.5772 C   0  0  0  0  0  0  0  0  0  0  0  0
    8.0740    9.2534   24.4177 C   0  0  0  0  0  0  0  0  0  0  0  0
    8.0991   11.3152   25.7596 C   0  0  2  0  0  0  0  0  0  0  0  0
    6.7187   11.6215   25.7093 O   0  0  0  0  0  0  0  0  0  0  0  0
    7.5802   12.7636   25.7118 C   0  0  1  0  0  0  0  0  0  0  0  0
    7.8452   13.5753   27.2462 Cl  0  0  0  0  0  0  0  0  0  0  0  0
    7.6860   13.5150   24.3853 C   0  0  0  0  0  0  0  0  0  0  0  0
    6.7453   13.9172   23.8335 O   0  0  0  0  0  0  0  0  0  0  0  0
    9.1600   13.5064   23.9607 N   0  0  0  0  0  0  0  0  0  0  0  0
    9.7859   13.9095   22.7119 C   0  0  0  0  0  0  0  0  0  0  0  0
   11.0516   13.0658   22.5908 C   0  0  2  0  0  0  0  0  0  0  0  0
   12.1255   13.3746   21.5670 C   0  0  0  0  0  0  0  0  0  0  0  0
   13.0030   12.1239   21.7932 C   0  0  0  0  0  0  0  0  0  0  0  0
   13.8609   11.8052   20.8110 F   0  0  0  0  0  0  0  0  0  0  0  0
   13.7694   12.5116   22.8617 F   0  0  0  0  0  0  0  0  0  0  0  0
   11.9976   11.0171   22.0570 C   0  0  0  0  0  0  0  0  0  0  0  0
   12.0707    9.8145   21.8626 O   0  0  0  0  0  0  0  0  0  0  0  0
   10.8437   11.6601   22.4513 N   0  0  0  0  0  0  0  0  0  0  0  0
  1  2  1  0
  2  3  1  0
  4  2  1  6
  4  5  1  0
  5  6  1  0
  6  7  1  1
  6  8  1  0
  8  9  2  0
  8 10  1  0
 10 11  1  0
 12 11  1  6
 12 13  1  0
 13 14  1  0
 14 15  1  0
 14 16  1  0
 14 17  1  0
 17 18  2  0
 17 19  1  0
  6  4  1  0
 19 12  1  0
M  END
>  <energy_score>  (629) 
-13.037898

>  <inchikey>  (629) 
None

>  <smiles>  (629) 
None

>  <ref_pdb>  (629) 
A1776a

>  <alias>  (629) 
None

>  <HIPPO Pose ID>  (629) 
499122

>  <name>  (629) 
P499122

>  <HIPPO Compound ID>  (629) 
300803

>  <ref_mols>  (629) 
A1776a,A0528a

>  <distance_score>  (629) 
1.899138

>  <inspiration_score>  (629) 
None

$$$$
P499124
     RDKit          3D

 19 20  0  0  0  0  0  0  0  0999 V2000
   13.4853   11.6417   21.0435 C   0  0  0  0  0  0  0  0  0  0  0  0
   12.7828   12.4943   21.8179 C   0  0  0  0  0  0  0  0  0  0  0  0
   12.0863   13.6398   21.1339 C   0  0  0  0  0  0  0  0  0  0  0  0
   11.8953   14.9896   21.7402 C   0  0  1  0  0  0  0  0  0  0  0  0
   12.2830   16.1139   20.3908 Cl  0  0  0  0  0  0  0  0  0  0  0  0
   10.4393   15.0840   22.3309 C   0  0  0  0  0  0  0  0  0  0  0  0
    9.7994   16.0216   22.1036 O   0  0  0  0  0  0  0  0  0  0  0  0
   10.0828   13.7970   23.0912 N   0  0  0  0  0  0  0  0  0  0  0  0
    8.8955   13.4393   23.8091 C   0  0  0  0  0  0  0  0  0  0  0  0
    9.0660   12.2974   24.8315 C   0  0  1  0  0  0  0  0  0  0  0  0
    8.4537   12.7191   26.1806 C   0  0  0  0  0  0  0  0  0  0  0  0
    6.9967   12.3141   26.3209 C   0  0  0  0  0  0  0  0  0  0  0  0
    6.8462   10.8015   26.2730 C   0  0  0  0  0  0  0  0  0  0  0  0
    7.8883   10.1362   25.3922 C   0  0  0  0  0  0  0  0  0  0  0  0
    8.4080   11.0265   24.2889 C   0  0  2  0  0  0  0  0  0  0  0  0
    9.4898   10.2850   23.5240 C   0  0  0  0  0  0  0  0  0  0  0  0
   10.6918   10.6759   24.2825 C   0  0  0  0  0  0  0  0  0  0  0  0
   11.7381   10.0732   24.2490 O   0  0  0  0  0  0  0  0  0  0  0  0
   10.4376   11.8459   24.9686 N   0  0  0  0  0  0  0  0  0  0  0  0
  1  2  2  0
  2  3  1  0
  3  4  1  0
  4  5  1  6
  4  6  1  0
  6  7  2  0
  6  8  1  0
  8  9  1  0
 10  9  1  6
 10 11  1  0
 11 12  1  0
 12 13  1  0
 13 14  1  0
 15 14  1  1
 15 16  1  0
 16 17  1  0
 17 18  2  0
 17 19  1  0
 15 10  1  0
 19 10  1  0
M  END
>  <energy_score>  (630) 
-14.317896

>  <inchikey>  (630) 
None

>  <smiles>  (630) 
None

>  <ref_pdb>  (630) 
A1776a

>  <alias>  (630) 
None

>  <HIPPO Pose ID>  (630) 
499124

>  <name>  (630) 
P499124

>  <HIPPO Compound ID>  (630) 
300811

>  <ref_mols>  (630) 
A1776a,A0528a

>  <distance_score>  (630) 
1.653724

>  <inspiration_score>  (630) 
None

$$$$
P499126
     RDKit          3D

 20 21  0  0  0  0  0  0  0  0999 V2000
   10.2544    8.3233   22.5974 O   0  0  0  0  0  0  0  0  0  0  0  0
   10.6409    9.4142   22.9620 C   0  0  0  0  0  0  0  0  0  0  0  0
   11.3515    9.7028   24.2255 C   0  0  0  0  0  0  0  0  0  0  0  0
   11.4651   11.2273   24.2765 C   0  0  0  0  0  0  0  0  0  0  0  0
   11.2285   11.6792   22.8387 C   0  0  1  0  0  0  0  0  0  0  0  0
   10.6371   13.0882   22.7239 C   0  0  0  0  0  0  0  0  0  0  0  0
    9.5067   13.2950   23.5869 N   0  0  0  0  0  0  0  0  0  0  0  0
    8.0239   13.1531   23.3177 C   0  0  0  0  0  0  0  0  0  0  0  0
    7.4584   12.9200   22.3355 O   0  0  0  0  0  0  0  0  0  0  0  0
    7.1906   13.3400   24.5532 C   0  0  2  0  0  0  0  0  0  0  0  0
    5.7017   14.2957   24.1731 Cl  0  0  0  0  0  0  0  0  0  0  0  0
    7.6432   13.4832   25.9867 C   0  0  0  0  0  0  0  0  0  0  0  0
    7.0798   12.1716   25.5611 C   0  0  2  0  0  0  0  0  0  0  0  0
    7.9892   11.0215   25.7880 C   0  0  0  0  0  0  0  0  0  0  0  0
    8.0083    9.8419   24.5198 Cl  0  0  0  0  0  0  0  0  0  0  0  0
   12.5587   11.7294   22.0586 C   0  0  0  0  0  0  0  0  0  0  0  0
   13.5040   12.2412   22.8797 F   0  0  0  0  0  0  0  0  0  0  0  0
   12.6172   12.6136   21.0550 F   0  0  0  0  0  0  0  0  0  0  0  0
   12.9261   10.5220   21.5829 F   0  0  0  0  0  0  0  0  0  0  0  0
   10.3055   10.6276   22.4119 N   0  0  0  0  0  0  0  0  0  0  0  0
  1  2  2  0
  2  3  1  0
  3  4  1  0
  4  5  1  0
  5  6  1  1
  6  7  1  0
  7  8  1  0
  8  9  2  0
  8 10  1  0
 10 11  1  6
 10 12  1  0
 12 13  1  0
 13 14  1  6
 14 15  1  0
  5 16  1  0
 16 17  1  0
 16 18  1  0
 16 19  1  0
  5 20  1  0
 20  2  1  0
 13 10  1  0
M  END
>  <energy_score>  (631) 
-4.919368

>  <inchikey>  (631) 
None

>  <smiles>  (631) 
None

>  <ref_pdb>  (631) 
A1776a

>  <alias>  (631) 
None

>  <HIPPO Pose ID>  (631) 
499126

>  <name>  (631) 
P499126

>  <HIPPO Compound ID>  (631) 
300883

>  <ref_mols>  (631) 
A1776a,A0528a

>  <distance_score>  (631) 
1.998306

>  <inspiration_score>  (631) 
None

$$$$
P499129
     RDKit          3D

 22 24  0  0  0  0  0  0  0  0999 V2000
   14.0230   11.2034   20.6448 C   0  0  0  0  0  0  0  0  0  0  0  0
   12.8653   11.3122   21.5044 N   0  0  0  0  0  0  0  0  0  0  0  0
   12.1292   10.2036   21.8894 C   0  0  0  0  0  0  0  0  0  0  0  0
   12.1575    9.0922   21.3983 O   0  0  0  0  0  0  0  0  0  0  0  0
   11.2218   10.5945   22.9967 C   0  0  0  0  0  0  0  0  0  0  0  0
   11.7992   11.9094   23.4832 C   0  0  0  0  0  0  0  0  0  0  0  0
   12.5632   12.4833   22.2892 C   0  0  2  0  0  0  0  0  0  0  0  0
   11.9690   13.7745   21.6040 C   0  0  1  0  0  0  0  0  0  0  0  0
   12.1330   14.1394   19.8425 Cl  0  0  0  0  0  0  0  0  0  0  0  0
   10.7749   14.5580   22.1741 C   0  0  0  0  0  0  0  0  0  0  0  0
   10.8997   15.7087   22.2443 O   0  0  0  0  0  0  0  0  0  0  0  0
    9.6377   13.6556   22.6467 N   0  0  0  0  0  0  0  0  0  0  0  0
    8.4482   13.9648   23.3945 C   0  0  0  0  0  0  0  0  0  0  0  0
    8.0280   12.9529   24.4790 C   0  0  2  0  0  0  0  0  0  0  0  0
    6.7395   13.5006   25.0969 C   0  0  0  0  0  0  0  0  0  0  0  0
    6.6058   12.8024   26.4303 C   0  0  0  0  0  0  0  0  0  0  0  0
    8.0213   12.9370   26.9482 C   0  0  0  0  0  0  0  0  0  0  0  0
    8.9061   12.6701   25.7104 C   0  0  1  0  0  0  0  0  0  0  0  0
    9.2705   11.1923   25.6437 C   0  0  0  0  0  0  0  0  0  0  0  0
    8.5480   10.6422   24.4846 C   0  0  0  0  0  0  0  0  0  0  0  0
    8.5443    9.4711   24.1536 O   0  0  0  0  0  0  0  0  0  0  0  0
    7.8493   11.6529   23.8858 N   0  0  0  0  0  0  0  0  0  0  0  0
  1  2  1  0
  2  3  1  0
  3  4  2  0
  3  5  1  0
  5  6  1  0
  7  6  1  1
  7  8  1  0
  8  9  1  6
  8 10  1  0
 10 11  2  0
 10 12  1  0
 12 13  1  0
 14 13  1  6
 14 15  1  0
 15 16  1  0
 16 17  1  0
 18 17  1  1
 18 19  1  0
 19 20  1  0
 20 21  2  0
 20 22  1  0
  7  2  1  0
 18 14  1  0
 22 14  1  0
M  END
>  <energy_score>  (632) 
-14.469255

>  <inchikey>  (632) 
None

>  <smiles>  (632) 
None

>  <ref_pdb>  (632) 
A1776a

>  <alias>  (632) 
None

>  <HIPPO Pose ID>  (632) 
499129

>  <name>  (632) 
P499129

>  <HIPPO Compound ID>  (632) 
300973

>  <ref_mols>  (632) 
A1776a,A0528a

>  <distance_score>  (632) 
1.734999

>  <inspiration_score>  (632) 
None

$$$$
P499130
     RDKit          3D

 23 25  0  0  0  0  0  0  0  0999 V2000
   14.1543   11.2302   20.6093 C   0  0  0  0  0  0  0  0  0  0  0  0
   13.1517   11.6511   21.5276 O   0  0  0  0  0  0  0  0  0  0  0  0
   12.2417   10.6974   21.8718 C   0  0  0  0  0  0  0  0  0  0  0  0
   12.2334    9.5322   21.4906 O   0  0  0  0  0  0  0  0  0  0  0  0
   11.1818   11.2163   22.7713 C   0  0  1  0  0  0  0  0  0  0  0  0
   10.7123   12.9614   22.5760 Cl  0  0  0  0  0  0  0  0  0  0  0  0
   10.0262   10.2970   23.1200 C   0  0  0  0  0  0  0  0  0  0  0  0
   11.0418   10.6147   24.1593 C   0  0  2  0  0  0  0  0  0  0  0  0
   10.9717   11.6182   25.2406 C   0  0  0  0  0  0  0  0  0  0  0  0
   11.9711   12.0663   25.6102 O   0  0  0  0  0  0  0  0  0  0  0  0
    9.5443   11.9171   25.6598 N   0  0  0  0  0  0  0  0  0  0  0  0
    9.0222   12.9075   26.5654 C   0  0  0  0  0  0  0  0  0  0  0  0
    7.8168   12.5998   27.4653 C   0  0  1  0  0  0  0  0  0  0  0  0
    7.6579   13.6671   28.4295 N   0  0  0  0  0  0  0  0  0  0  0  0
    6.3576   13.9861   28.7047 C   0  0  0  0  0  0  0  0  0  0  0  0
    6.0177   14.8551   29.4889 O   0  0  0  0  0  0  0  0  0  0  0  0
    5.4751   13.1072   27.8707 C   0  0  0  0  0  0  0  0  0  0  0  0
    6.4393   12.5229   26.8066 C   0  0  0  0  0  0  0  0  0  0  0  0
    6.3735   13.3146   25.5043 C   0  0  0  0  0  0  0  0  0  0  0  0
    7.1668   12.7006   24.3664 C   0  0  0  0  0  0  0  0  0  0  0  0
    7.4725   11.2987   24.4762 O   0  0  0  0  0  0  0  0  0  0  0  0
    6.9048   10.4462   25.4686 C   0  0  0  0  0  0  0  0  0  0  0  0
    6.0305   11.0854   26.5210 C   0  0  0  0  0  0  0  0  0  0  0  0
  1  2  1  0
  2  3  1  0
  3  4  2  0
  3  5  1  0
  5  6  1  1
  5  7  1  0
  7  8  1  0
  8  9  1  1
  9 10  2  0
  9 11  1  0
 11 12  1  0
 13 12  1  6
 13 14  1  0
 14 15  1  0
 15 16  2  0
 15 17  1  0
 17 18  1  0
 18 19  1  0
 19 20  1  0
 20 21  1  0
 21 22  1  0
 22 23  1  0
  8  5  1  0
 18 13  1  0
 23 18  1  0
M  END
>  <energy_score>  (633) 
-4.841618

>  <inchikey>  (633) 
None

>  <smiles>  (633) 
None

>  <ref_pdb>  (633) 
A1776a

>  <alias>  (633) 
None

>  <HIPPO Pose ID>  (633) 
499130

>  <name>  (633) 
P499130

>  <HIPPO Compound ID>  (633) 
301002

>  <ref_mols>  (633) 
A1776a,A0528a

>  <distance_score>  (633) 
1.898483

>  <inspiration_score>  (633) 
None

$$$$
P499134
     RDKit          3D

 23 24  0  0  0  0  0  0  0  0999 V2000
    3.4482   12.0861   29.9599 C   0  0  0  0  0  0  0  0  0  0  0  0
    3.1952   10.8547   29.0762 C   0  0  1  0  0  0  0  0  0  0  0  0
    4.3526    9.8302   29.0317 C   0  0  2  0  0  0  0  0  0  0  0  0
    4.5503    9.3171   30.2786 F   0  0  0  0  0  0  0  0  0  0  0  0
    5.6197   10.5503   28.5220 C   0  0  0  0  0  0  0  0  0  0  0  0
    6.0720   11.4228   29.1635 O   0  0  0  0  0  0  0  0  0  0  0  0
    6.0314   10.0109   27.1091 N   0  0  0  0  0  0  0  0  0  0  0  0
    6.9774   10.4802   26.2054 C   0  0  0  0  0  0  0  0  0  0  0  0
    7.5640    9.7574   25.1691 C   0  0  0  0  0  0  0  0  0  0  0  0
    8.5213   10.3066   24.3136 C   0  0  0  0  0  0  0  0  0  0  0  0
    8.7212   11.6655   24.3843 C   0  0  0  0  0  0  0  0  0  0  0  0
    8.1661   12.4033   25.4285 C   0  0  0  0  0  0  0  0  0  0  0  0
    7.3241   11.8005   26.3459 C   0  0  0  0  0  0  0  0  0  0  0  0
    8.3781   13.8765   25.5584 C   0  0  0  0  0  0  0  0  0  0  0  0
    7.4071   14.5412   24.6190 C   0  0  0  0  0  0  0  0  0  0  0  0
    7.5841   14.0845   23.1809 C   0  0  0  0  0  0  0  0  0  0  0  0
    8.9286   13.4695   22.7720 C   0  0  0  0  0  0  0  0  0  0  0  0
    9.5691   13.9009   21.8213 O   0  0  0  0  0  0  0  0  0  0  0  0
    9.3752   12.3147   23.3501 N   0  0  0  0  0  0  0  0  0  0  0  0
    1.9100   10.2106   29.5424 C   0  0  0  0  0  0  0  0  0  0  0  0
    1.9012    9.9373   30.8588 F   0  0  0  0  0  0  0  0  0  0  0  0
    1.6673    9.0707   28.8634 F   0  0  0  0  0  0  0  0  0  0  0  0
    0.8709   11.0432   29.2881 F   0  0  0  0  0  0  0  0  0  0  0  0
  2  1  1  1
  2  3  1  0
  3  4  1  1
  3  5  1  0
  5  6  2  0
  5  7  1  0
  7  8  1  0
  8  9  2  0
  9 10  1  0
 10 11  2  0
 11 12  1  0
 12 13  2  0
 12 14  1  0
 14 15  1  0
 15 16  1  0
 16 17  1  0
 17 18  2  0
 17 19  1  0
  2 20  1  0
 20 21  1  0
 20 22  1  0
 20 23  1  0
 13  8  1  0
 19 11  1  0
M  END
>  <energy_score>  (634) 
-8.881699

>  <inchikey>  (634) 
None

>  <smiles>  (634) 
None

>  <ref_pdb>  (634) 
A0310a

>  <alias>  (634) 
None

>  <HIPPO Pose ID>  (634) 
499134

>  <name>  (634) 
P499134

>  <HIPPO Compound ID>  (634) 
301714

>  <ref_mols>  (634) 
A1445a,A0310a

>  <distance_score>  (634) 
1.690461

>  <inspiration_score>  (634) 
None

$$$$
P499136
     RDKit          3D

 23 25  0  0  0  0  0  0  0  0999 V2000
    3.7570   11.5258   30.3091 C   0  0  0  0  0  0  0  0  0  0  0  0
    3.2913   10.2651   29.6058 C   0  0  2  0  0  0  0  0  0  0  0  0
    1.8007   10.1156   29.6778 C   0  0  0  0  0  0  0  0  0  0  0  0
    1.3612   10.2246   30.9512 F   0  0  0  0  0  0  0  0  0  0  0  0
    1.4014    8.9143   29.2016 F   0  0  0  0  0  0  0  0  0  0  0  0
    1.1878   11.0675   28.9361 F   0  0  0  0  0  0  0  0  0  0  0  0
    4.2463    9.0824   29.6505 C   0  0  0  0  0  0  0  0  0  0  0  0
    3.9809    9.7298   28.3199 C   0  0  2  0  0  0  0  0  0  0  0  0
    4.9227   10.6526   27.6226 C   0  0  0  0  0  0  0  0  0  0  0  0
    4.7506   11.7918   27.7974 O   0  0  0  0  0  0  0  0  0  0  0  0
    6.0096    9.9180   26.8073 N   0  0  0  0  0  0  0  0  0  0  0  0
    7.0168   10.4178   25.9907 C   0  0  0  0  0  0  0  0  0  0  0  0
    7.7602    9.6905   25.0601 C   0  0  0  0  0  0  0  0  0  0  0  0
    8.7089   10.2905   24.2288 C   0  0  0  0  0  0  0  0  0  0  0  0
    8.8244   11.6627   24.2864 C   0  0  0  0  0  0  0  0  0  0  0  0
    8.1929   12.3774   25.3000 C   0  0  0  0  0  0  0  0  0  0  0  0
    7.2866   11.7544   26.1327 C   0  0  0  0  0  0  0  0  0  0  0  0
    8.3774   13.8490   25.4745 C   0  0  0  0  0  0  0  0  0  0  0  0
    7.4200   14.5196   24.5296 C   0  0  0  0  0  0  0  0  0  0  0  0
    7.6394   14.0853   23.0906 C   0  0  0  0  0  0  0  0  0  0  0  0
    9.0013   13.4923   22.6952 C   0  0  0  0  0  0  0  0  0  0  0  0
    9.6346   13.9360   21.7443 O   0  0  0  0  0  0  0  0  0  0  0  0
    9.4747   12.3455   23.2710 N   0  0  0  0  0  0  0  0  0  0  0  0
  2  1  1  1
  2  3  1  0
  3  4  1  0
  3  5  1  0
  3  6  1  0
  2  7  1  0
  7  8  1  0
  8  9  1  1
  9 10  2  0
  9 11  1  0
 11 12  1  0
 12 13  2  0
 13 14  1  0
 14 15  2  0
 15 16  1  0
 16 17  2  0
 16 18  1  0
 18 19  1  0
 19 20  1  0
 20 21  1  0
 21 22  2  0
 21 23  1  0
  8  2  1  0
 17 12  1  0
 23 15  1  0
M  END
>  <energy_score>  (635) 
-32.609788

>  <inchikey>  (635) 
None

>  <smiles>  (635) 
None

>  <ref_pdb>  (635) 
A0310a

>  <alias>  (635) 
None

>  <HIPPO Pose ID>  (635) 
499136

>  <name>  (635) 
P499136

>  <HIPPO Compound ID>  (635) 
301715

>  <ref_mols>  (635) 
A1445a,A0310a

>  <distance_score>  (635) 
1.641199

>  <inspiration_score>  (635) 
None

$$$$
P499139
     RDKit          3D

 23 25  0  0  0  0  0  0  0  0999 V2000
   10.4549    9.8009   22.2920 O   0  0  0  0  0  0  0  0  0  0  0  0
   10.0082   10.6802   23.0278 C   0  0  0  0  0  0  0  0  0  0  0  0
   10.4021   12.1195   22.8967 C   0  0  0  0  0  0  0  0  0  0  0  0
   10.2624   12.9809   24.1230 C   0  0  0  0  0  0  0  0  0  0  0  0
    8.8151   13.3308   24.4215 C   0  0  0  0  0  0  0  0  0  0  0  0
    8.0152   12.2306   25.0475 C   0  0  0  0  0  0  0  0  0  0  0  0
    6.9577   12.6119   25.9255 C   0  0  0  0  0  0  0  0  0  0  0  0
    6.1185   11.6620   26.5011 C   0  0  0  0  0  0  0  0  0  0  0  0
    5.0225   11.9327   27.3055 N   0  0  0  0  0  0  0  0  0  0  0  0
    4.5261   13.2643   27.9106 C   0  0  0  0  0  0  0  0  0  0  0  0
    5.0047   14.3301   27.8907 O   0  0  0  0  0  0  0  0  0  0  0  0
    3.1432   12.9398   28.5990 C   0  0  2  0  0  0  0  0  0  0  0  0
    2.6348   13.9439   29.6676 C   0  0  0  0  0  0  0  0  0  0  0  0
    3.1492   12.9867   30.7513 C   0  0  0  0  0  0  0  0  0  0  0  0
    3.1030   11.8399   29.7208 C   0  0  1  0  0  0  0  0  0  0  0  0
    1.8725   10.9590   29.7549 C   0  0  0  0  0  0  0  0  0  0  0  0
    1.7046   10.4211   30.9802 F   0  0  0  0  0  0  0  0  0  0  0  0
    2.0054    9.9472   28.8655 F   0  0  0  0  0  0  0  0  0  0  0  0
    0.7601   11.6456   29.4267 F   0  0  0  0  0  0  0  0  0  0  0  0
    6.3291   10.3308   26.2191 C   0  0  0  0  0  0  0  0  0  0  0  0
    7.3517    9.9672   25.3651 C   0  0  0  0  0  0  0  0  0  0  0  0
    8.1972   10.8796   24.7664 C   0  0  0  0  0  0  0  0  0  0  0  0
    9.0924   10.2575   23.9055 N   0  0  0  0  0  0  0  0  0  0  0  0
  1  2  2  0
  2  3  1  0
  3  4  1  0
  4  5  1  0
  5  6  1  0
  6  7  2  0
  7  8  1  0
  8  9  1  0
  9 10  1  0
 10 11  2  0
 12 10  1  1
 12 13  1  0
 13 14  1  0
 14 15  1  0
 15 16  1  1
 16 17  1  0
 16 18  1  0
 16 19  1  0
  8 20  2  0
 20 21  1  0
 21 22  2  0
 22 23  1  0
 23  2  1  0
 22  6  1  0
 15 12  1  0
M  END
>  <energy_score>  (636) 
-30.783535

>  <inchikey>  (636) 
None

>  <smiles>  (636) 
None

>  <ref_pdb>  (636) 
A0310a

>  <alias>  (636) 
None

>  <HIPPO Pose ID>  (636) 
499139

>  <name>  (636) 
P499139

>  <HIPPO Compound ID>  (636) 
301716

>  <ref_mols>  (636) 
A1445a,A0310a

>  <distance_score>  (636) 
1.796811

>  <inspiration_score>  (636) 
None

$$$$
P499142
     RDKit          3D

 23 25  0  0  0  0  0  0  0  0999 V2000
   10.4803    9.7803   22.1811 O   0  0  0  0  0  0  0  0  0  0  0  0
   10.0694   10.6674   22.9278 C   0  0  0  0  0  0  0  0  0  0  0  0
   10.5313   12.0935   22.8302 C   0  0  0  0  0  0  0  0  0  0  0  0
   10.2388   13.0191   23.9807 C   0  0  0  0  0  0  0  0  0  0  0  0
    8.7567   13.3251   24.0837 C   0  0  0  0  0  0  0  0  0  0  0  0
    8.0071   12.2602   24.8151 C   0  0  0  0  0  0  0  0  0  0  0  0
    6.9641   12.6684   25.6854 C   0  0  0  0  0  0  0  0  0  0  0  0
    6.2791   11.7323   26.4462 C   0  0  0  0  0  0  0  0  0  0  0  0
    5.2712   12.0539   27.3327 N   0  0  0  0  0  0  0  0  0  0  0  0
    4.6683   11.2473   28.4949 C   0  0  0  0  0  0  0  0  0  0  0  0
    4.9773   10.2150   28.9385 O   0  0  0  0  0  0  0  0  0  0  0  0
    3.4372   11.9169   29.0234 C   0  0  2  0  0  0  0  0  0  0  0  0
    2.6404   12.5806   28.0113 O   0  0  0  0  0  0  0  0  0  0  0  0
    3.3317   12.5284   30.3937 C   0  0  0  0  0  0  0  0  0  0  0  0
    2.7415   11.1623   30.1352 C   0  0  1  0  0  0  0  0  0  0  0  0
    1.3238   10.8186   30.0136 C   0  0  0  0  0  0  0  0  0  0  0  0
    0.7890   10.6164   31.2333 F   0  0  0  0  0  0  0  0  0  0  0  0
    1.1655    9.6908   29.2852 F   0  0  0  0  0  0  0  0  0  0  0  0
    0.6290   11.8046   29.4011 F   0  0  0  0  0  0  0  0  0  0  0  0
    6.5662   10.3923   26.2909 C   0  0  0  0  0  0  0  0  0  0  0  0
    7.5179    9.9967   25.3801 C   0  0  0  0  0  0  0  0  0  0  0  0
    8.2604   10.8985   24.6539 C   0  0  0  0  0  0  0  0  0  0  0  0
    9.1503   10.2602   23.8054 N   0  0  0  0  0  0  0  0  0  0  0  0
  1  2  2  0
  2  3  1  0
  3  4  1  0
  4  5  1  0
  5  6  1  0
  6  7  2  0
  7  8  1  0
  8  9  1  0
  9 10  1  0
 10 11  2  0
 10 12  1  0
 12 13  1  6
 12 14  1  0
 14 15  1  0
 15 16  1  6
 16 17  1  0
 16 18  1  0
 16 19  1  0
  8 20  2  0
 20 21  1  0
 21 22  2  0
 22 23  1  0
 23  2  1  0
 22  6  1  0
 15 12  1  0
M  END
>  <energy_score>  (637) 
-30.41912

>  <inchikey>  (637) 
None

>  <smiles>  (637) 
None

>  <ref_pdb>  (637) 
A0310a

>  <alias>  (637) 
None

>  <HIPPO Pose ID>  (637) 
499142

>  <name>  (637) 
P499142

>  <HIPPO Compound ID>  (637) 
301717

>  <ref_mols>  (637) 
A1445a,A0310a

>  <distance_score>  (637) 
1.530893

>  <inspiration_score>  (637) 
None

$$$$
P499143
     RDKit          3D

 23 24  0  0  0  0  0  0  0  0999 V2000
    3.3318   12.1812   30.0022 C   0  0  0  0  0  0  0  0  0  0  0  0
    2.9592   10.9848   29.1103 C   0  0  1  0  0  0  0  0  0  0  0  0
    2.5809   11.5303   27.8187 O   0  0  0  0  0  0  0  0  0  0  0  0
    4.0910    9.9395   28.8854 C   0  0  0  0  0  0  0  0  0  0  0  0
    5.3958   10.6201   28.4747 C   0  0  0  0  0  0  0  0  0  0  0  0
    5.8394   11.4691   29.1499 O   0  0  0  0  0  0  0  0  0  0  0  0
    5.8688   10.0800   27.0863 N   0  0  0  0  0  0  0  0  0  0  0  0
    6.8815   10.5226   26.2445 C   0  0  0  0  0  0  0  0  0  0  0  0
    7.4654    9.7892   25.2139 C   0  0  0  0  0  0  0  0  0  0  0  0
    8.4611   10.3059   24.3828 C   0  0  0  0  0  0  0  0  0  0  0  0
    8.6993   11.6571   24.4645 C   0  0  0  0  0  0  0  0  0  0  0  0
    8.1492   12.4063   25.5053 C   0  0  0  0  0  0  0  0  0  0  0  0
    7.2768   11.8253   26.4101 C   0  0  0  0  0  0  0  0  0  0  0  0
    8.3900   13.8761   25.6298 C   0  0  0  0  0  0  0  0  0  0  0  0
    7.4376   14.5577   24.6826 C   0  0  0  0  0  0  0  0  0  0  0  0
    7.5896   14.0702   23.2512 C   0  0  0  0  0  0  0  0  0  0  0  0
    8.9253   13.4403   22.8369 C   0  0  0  0  0  0  0  0  0  0  0  0
    9.5527   13.8462   21.8661 O   0  0  0  0  0  0  0  0  0  0  0  0
    9.3728   12.2943   23.4341 N   0  0  0  0  0  0  0  0  0  0  0  0
    1.7307   10.3027   29.7444 C   0  0  0  0  0  0  0  0  0  0  0  0
    1.9303    9.9926   31.0408 F   0  0  0  0  0  0  0  0  0  0  0  0
    1.3925    9.1733   29.0880 F   0  0  0  0  0  0  0  0  0  0  0  0
    0.6666   11.1413   29.6794 F   0  0  0  0  0  0  0  0  0  0  0  0
  2  1  1  1
  2  3  1  0
  2  4  1  0
  4  5  1  0
  5  6  2  0
  5  7  1  0
  7  8  1  0
  8  9  2  0
  9 10  1  0
 10 11  2  0
 11 12  1  0
 12 13  2  0
 12 14  1  0
 14 15  1  0
 15 16  1  0
 16 17  1  0
 17 18  2  0
 17 19  1  0
  2 20  1  0
 20 21  1  0
 20 22  1  0
 20 23  1  0
 13  8  1  0
 19 11  1  0
M  END
>  <energy_score>  (638) 
-9.967422

>  <inchikey>  (638) 
None

>  <smiles>  (638) 
None

>  <ref_pdb>  (638) 
A0310a

>  <alias>  (638) 
None

>  <HIPPO Pose ID>  (638) 
499143

>  <name>  (638) 
P499143

>  <HIPPO Compound ID>  (638) 
301721

>  <ref_mols>  (638) 
A1445a,A0310a

>  <distance_score>  (638) 
1.681828

>  <inspiration_score>  (638) 
None

$$$$
P499144
     RDKit          3D

 23 25  0  0  0  0  0  0  0  0999 V2000
    3.8414    8.3450   28.1243 C   0  0  0  0  0  0  0  0  0  0  0  0
    4.2111    9.6739   28.7363 C   0  0  2  0  0  0  0  0  0  0  0  0
    5.2837   10.5580   28.0704 C   0  0  0  0  0  0  0  0  0  0  0  0
    5.3686   11.6311   28.5243 O   0  0  0  0  0  0  0  0  0  0  0  0
    6.0027    9.9228   26.8508 N   0  0  0  0  0  0  0  0  0  0  0  0
    7.0047   10.4282   26.0300 C   0  0  0  0  0  0  0  0  0  0  0  0
    7.7103    9.7030   25.0678 C   0  0  0  0  0  0  0  0  0  0  0  0
    8.6647   10.2901   24.2346 C   0  0  0  0  0  0  0  0  0  0  0  0
    8.8016   11.6590   24.2990 C   0  0  0  0  0  0  0  0  0  0  0  0
    8.1848   12.3788   25.3199 C   0  0  0  0  0  0  0  0  0  0  0  0
    7.2898   11.7612   26.1711 C   0  0  0  0  0  0  0  0  0  0  0  0
    8.3695   13.8520   25.4836 C   0  0  0  0  0  0  0  0  0  0  0  0
    7.4116   14.5170   24.5338 C   0  0  0  0  0  0  0  0  0  0  0  0
    7.6384   14.0829   23.0961 C   0  0  0  0  0  0  0  0  0  0  0  0
    9.0048   13.4924   22.7149 C   0  0  0  0  0  0  0  0  0  0  0  0
    9.6671   13.9607   21.7971 O   0  0  0  0  0  0  0  0  0  0  0  0
    9.4576   12.3338   23.2819 N   0  0  0  0  0  0  0  0  0  0  0  0
    4.1434    9.7297   30.2658 C   0  0  0  0  0  0  0  0  0  0  0  0
    3.1315   10.5197   29.4872 C   0  0  2  0  0  0  0  0  0  0  0  0
    1.6824   10.2633   29.5799 C   0  0  0  0  0  0  0  0  0  0  0  0
    1.2184   10.6494   30.7896 F   0  0  0  0  0  0  0  0  0  0  0  0
    1.3597    8.9653   29.4109 F   0  0  0  0  0  0  0  0  0  0  0  0
    1.0257   10.9742   28.6339 F   0  0  0  0  0  0  0  0  0  0  0  0
  2  1  1  1
  2  3  1  0
  3  4  2  0
  3  5  1  0
  5  6  1  0
  6  7  2  0
  7  8  1  0
  8  9  2  0
  9 10  1  0
 10 11  2  0
 10 12  1  0
 12 13  1  0
 13 14  1  0
 14 15  1  0
 15 16  2  0
 15 17  1  0
  2 18  1  0
 18 19  1  0
 19 20  1  1
 20 21  1  0
 20 22  1  0
 20 23  1  0
 19  2  1  0
 11  6  1  0
 17  9  1  0
M  END
>  <energy_score>  (639) 
-132.457351

>  <inchikey>  (639) 
None

>  <smiles>  (639) 
None

>  <ref_pdb>  (639) 
A0310a

>  <alias>  (639) 
None

>  <HIPPO Pose ID>  (639) 
499144

>  <name>  (639) 
P499144

>  <HIPPO Compound ID>  (639) 
301722

>  <ref_mols>  (639) 
A1445a,A0310a

>  <distance_score>  (639) 
1.710978

>  <inspiration_score>  (639) 
None

$$$$
P499148
     RDKit          3D

 24 26  0  0  0  0  0  0  0  0999 V2000
   10.5740   10.0993   22.1754 O   0  0  0  0  0  0  0  0  0  0  0  0
   10.1019   10.9681   22.9030 C   0  0  0  0  0  0  0  0  0  0  0  0
   10.4556   12.4167   22.8105 C   0  0  0  0  0  0  0  0  0  0  0  0
   10.0392   13.2977   23.9645 C   0  0  0  0  0  0  0  0  0  0  0  0
    8.5257   13.4676   24.0593 C   0  0  0  0  0  0  0  0  0  0  0  0
    7.8815   12.3306   24.7958 C   0  0  0  0  0  0  0  0  0  0  0  0
    6.7668   12.5942   25.6426 C   0  0  0  0  0  0  0  0  0  0  0  0
    6.2636   11.5798   26.4385 C   0  0  0  0  0  0  0  0  0  0  0  0
    5.1014   11.5250   27.1708 N   0  0  0  0  0  0  0  0  0  0  0  0
    4.7779   10.7778   28.4988 C   0  0  0  0  0  0  0  0  0  0  0  0
    5.4726   10.1609   29.2097 O   0  0  0  0  0  0  0  0  0  0  0  0
    3.2758   10.8662   28.7373 C   0  0  1  0  0  0  0  0  0  0  0  0
    2.7813    9.4720   28.2667 C   0  0  0  0  0  0  0  0  0  0  0  0
    2.8857    8.5575   29.4977 C   0  0  0  0  0  0  0  0  0  0  0  0
    3.1095    9.4750   30.7048 C   0  0  0  0  0  0  0  0  0  0  0  0
    2.8391   10.8846   30.1937 C   0  0  2  0  0  0  0  0  0  0  0  0
    1.3482   11.1555   30.2914 C   0  0  0  0  0  0  0  0  0  0  0  0
    0.9729   11.2655   31.5803 F   0  0  0  0  0  0  0  0  0  0  0  0
    0.6063   10.1730   29.7350 F   0  0  0  0  0  0  0  0  0  0  0  0
    1.0291   12.3023   29.6572 F   0  0  0  0  0  0  0  0  0  0  0  0
    6.7909   10.3073   26.3310 C   0  0  0  0  0  0  0  0  0  0  0  0
    7.7342   10.0161   25.3899 C   0  0  0  0  0  0  0  0  0  0  0  0
    8.3078   11.0090   24.6415 C   0  0  0  0  0  0  0  0  0  0  0  0
    9.2331   10.4752   23.7732 N   0  0  0  0  0  0  0  0  0  0  0  0
  1  2  2  0
  2  3  1  0
  3  4  1  0
  4  5  1  0
  5  6  1  0
  6  7  2  0
  7  8  1  0
  8  9  1  0
  9 10  1  0
 10 11  2  0
 12 10  1  1
 12 13  1  0
 13 14  1  0
 14 15  1  0
 15 16  1  0
 16 17  1  6
 17 18  1  0
 17 19  1  0
 17 20  1  0
  8 21  2  0
 21 22  1  0
 22 23  2  0
 23 24  1  0
 24  2  1  0
 23  6  1  0
 16 12  1  0
M  END
>  <energy_score>  (640) 
-2.843914

>  <inchikey>  (640) 
None

>  <smiles>  (640) 
None

>  <ref_pdb>  (640) 
A0310a

>  <alias>  (640) 
None

>  <HIPPO Pose ID>  (640) 
499148

>  <name>  (640) 
P499148

>  <HIPPO Compound ID>  (640) 
301729

>  <ref_mols>  (640) 
A1445a,A0310a

>  <distance_score>  (640) 
1.785767

>  <inspiration_score>  (640) 
None

$$$$
P499152
     RDKit          3D

 24 26  0  0  0  0  0  0  0  0999 V2000
   10.4179    9.7683   22.2513 O   0  0  0  0  0  0  0  0  0  0  0  0
    9.9759   10.6530   22.9848 C   0  0  0  0  0  0  0  0  0  0  0  0
   10.4379   12.0768   22.8847 C   0  0  0  0  0  0  0  0  0  0  0  0
   10.2744   12.9611   24.0906 C   0  0  0  0  0  0  0  0  0  0  0  0
    8.8221   13.3136   24.3485 C   0  0  0  0  0  0  0  0  0  0  0  0
    8.0657   12.2367   25.0585 C   0  0  0  0  0  0  0  0  0  0  0  0
    7.1722   12.6242   26.0960 C   0  0  0  0  0  0  0  0  0  0  0  0
    6.4367   11.6776   26.8071 C   0  0  0  0  0  0  0  0  0  0  0  0
    5.6786   12.0109   27.9212 N   0  0  0  0  0  0  0  0  0  0  0  0
    4.9483   11.1008   28.9591 C   0  0  0  0  0  0  0  0  0  0  0  0
    4.9412    9.9359   29.0734 O   0  0  0  0  0  0  0  0  0  0  0  0
    4.0790   12.0121   29.8285 C   0  0  1  0  0  0  0  0  0  0  0  0
    4.5493   13.3793   29.8007 O   0  0  0  0  0  0  0  0  0  0  0  0
    3.4197   14.2483   29.6358 C   0  0  0  0  0  0  0  0  0  0  0  0
    2.1927   13.3879   29.8141 C   0  0  0  0  0  0  0  0  0  0  0  0
    2.6610   12.0461   29.2974 C   0  0  2  0  0  0  0  0  0  0  0  0
    1.7832   10.9045   29.7431 C   0  0  0  0  0  0  0  0  0  0  0  0
    1.7495   10.7847   31.0844 F   0  0  0  0  0  0  0  0  0  0  0  0
    2.1528    9.7228   29.2194 F   0  0  0  0  0  0  0  0  0  0  0  0
    0.5184   11.1352   29.3177 F   0  0  0  0  0  0  0  0  0  0  0  0
    6.4921   10.3626   26.4071 C   0  0  0  0  0  0  0  0  0  0  0  0
    7.3446    9.9947   25.3830 C   0  0  0  0  0  0  0  0  0  0  0  0
    8.1708   10.8883   24.7320 C   0  0  0  0  0  0  0  0  0  0  0  0
    9.0029   10.2591   23.8144 N   0  0  0  0  0  0  0  0  0  0  0  0
  1  2  2  0
  2  3  1  0
  3  4  1  0
  4  5  1  0
  5  6  1  0
  6  7  2  0
  7  8  1  0
  8  9  1  0
  9 10  1  0
 10 11  2  0
 12 10  1  6
 12 13  1  0
 13 14  1  0
 14 15  1  0
 15 16  1  0
 16 17  1  1
 17 18  1  0
 17 19  1  0
 17 20  1  0
  8 21  2  0
 21 22  1  0
 22 23  2  0
 23 24  1  0
 24  2  1  0
 23  6  1  0
 16 12  1  0
M  END
>  <energy_score>  (641) 
-12.965667

>  <inchikey>  (641) 
None

>  <smiles>  (641) 
None

>  <ref_pdb>  (641) 
A0310a

>  <alias>  (641) 
None

>  <HIPPO Pose ID>  (641) 
499152

>  <name>  (641) 
P499152

>  <HIPPO Compound ID>  (641) 
301730

>  <ref_mols>  (641) 
A1445a,A0310a

>  <distance_score>  (641) 
1.70329

>  <inspiration_score>  (641) 
None

$$$$
P499155
     RDKit          3D

 24 25  0  0  0  0  0  0  0  0999 V2000
    2.3005   13.0305   30.3087 C   0  0  0  0  0  0  0  0  0  0  0  0
    3.2357   12.2142   29.4227 C   0  0  0  0  0  0  0  0  0  0  0  0
    3.2661   10.6874   29.7247 C   0  0  2  0  0  0  0  0  0  0  0  0
    4.1316    9.8509   28.7259 C   0  0  0  0  0  0  0  0  0  0  0  0
    5.4673   10.5185   28.4180 C   0  0  0  0  0  0  0  0  0  0  0  0
    5.9411   11.2900   29.1591 O   0  0  0  0  0  0  0  0  0  0  0  0
    5.9304   10.0651   26.9992 N   0  0  0  0  0  0  0  0  0  0  0  0
    6.9702   10.5210   26.2044 C   0  0  0  0  0  0  0  0  0  0  0  0
    7.5757    9.8284   25.1630 C   0  0  0  0  0  0  0  0  0  0  0  0
    8.5156   10.4304   24.3206 C   0  0  0  0  0  0  0  0  0  0  0  0
    8.6974   11.8008   24.4191 C   0  0  0  0  0  0  0  0  0  0  0  0
    8.1334   12.4885   25.4961 C   0  0  0  0  0  0  0  0  0  0  0  0
    7.3130   11.8367   26.4011 C   0  0  0  0  0  0  0  0  0  0  0  0
    8.2876   13.9676   25.6604 C   0  0  0  0  0  0  0  0  0  0  0  0
    7.2754   14.6255   24.7523 C   0  0  0  0  0  0  0  0  0  0  0  0
    7.3846   14.1343   23.3190 C   0  0  0  0  0  0  0  0  0  0  0  0
    8.7844   13.7087   22.8668 C   0  0  0  0  0  0  0  0  0  0  0  0
    9.3626   14.3708   22.0049 O   0  0  0  0  0  0  0  0  0  0  0  0
    9.3210   12.5298   23.3873 N   0  0  0  0  0  0  0  0  0  0  0  0
   10.6064   12.0574   22.9060 C   0  0  0  0  0  0  0  0  0  0  0  0
    1.8407   10.1500   29.7331 C   0  0  0  0  0  0  0  0  0  0  0  0
    1.1659   10.5532   30.8292 F   0  0  0  0  0  0  0  0  0  0  0  0
    1.8200    8.8020   29.7230 F   0  0  0  0  0  0  0  0  0  0  0  0
    1.1625   10.5740   28.6403 F   0  0  0  0  0  0  0  0  0  0  0  0
  1  2  1  0
  3  2  1  6
  3  4  1  0
  4  5  1  0
  5  6  2  0
  5  7  1  0
  7  8  1  0
  8  9  2  0
  9 10  1  0
 10 11  2  0
 11 12  1  0
 12 13  2  0
 12 14  1  0
 14 15  1  0
 15 16  1  0
 16 17  1  0
 17 18  2  0
 17 19  1  0
 19 20  1  0
  3 21  1  0
 21 22  1  0
 21 23  1  0
 21 24  1  0
 13  8  1  0
 19 11  1  0
M  END
>  <energy_score>  (642) 
-28.428771

>  <inchikey>  (642) 
None

>  <smiles>  (642) 
None

>  <ref_pdb>  (642) 
A0310a

>  <alias>  (642) 
None

>  <HIPPO Pose ID>  (642) 
499155

>  <name>  (642) 
P499155

>  <HIPPO Compound ID>  (642) 
301731

>  <ref_mols>  (642) 
A1445a,A0310a

>  <distance_score>  (642) 
1.5728

>  <inspiration_score>  (642) 
None

$$$$
P499161
     RDKit          3D

 24 25  0  0  0  0  0  0  0  0999 V2000
   12.4425   14.6751   24.9761 C   0  0  0  0  0  0  0  0  0  0  0  0
   12.5050   15.1153   23.5183 C   0  0  0  0  0  0  0  0  0  0  0  0
   12.6132   13.9725   22.5238 C   0  0  1  0  0  0  0  0  0  0  0  0
   11.7036   12.7947   22.8048 C   0  0  0  0  0  0  0  0  0  0  0  0
   10.2638   13.1279   23.0894 C   0  0  0  0  0  0  0  0  0  0  0  0
    9.7728   14.1679   22.9037 O   0  0  0  0  0  0  0  0  0  0  0  0
    9.6866   11.8474   23.7466 N   0  0  0  0  0  0  0  0  0  0  0  0
    8.4777   11.6286   24.3645 C   0  0  0  0  0  0  0  0  0  0  0  0
    8.1981   10.4021   24.9116 C   0  0  0  0  0  0  0  0  0  0  0  0
    7.1450   10.3236   25.8262 C   0  0  0  0  0  0  0  0  0  0  0  0
    6.3350   11.4104   26.2098 C   0  0  0  0  0  0  0  0  0  0  0  0
    5.3614   11.2381   27.2585 N   0  0  0  0  0  0  0  0  0  0  0  0
    4.3038   12.1525   27.6238 C   0  0  0  0  0  0  0  0  0  0  0  0
    3.4098   11.3545   28.5556 C   0  0  0  0  0  0  0  0  0  0  0  0
    4.3929   10.4830   29.2947 C   0  0  0  0  0  0  0  0  0  0  0  0
    5.5736   10.3922   28.3582 C   0  0  0  0  0  0  0  0  0  0  0  0
    6.5774    9.7580   28.6394 O   0  0  0  0  0  0  0  0  0  0  0  0
    6.5552   12.5958   25.5111 C   0  0  0  0  0  0  0  0  0  0  0  0
    5.7381   13.8261   25.6693 C   0  0  0  0  0  0  0  0  0  0  0  0
    7.6310   12.6956   24.6076 C   0  0  0  0  0  0  0  0  0  0  0  0
   12.5191   14.4818   21.1002 C   0  0  0  0  0  0  0  0  0  0  0  0
   11.3065   14.9684   20.7832 F   0  0  0  0  0  0  0  0  0  0  0  0
   12.8293   13.5277   20.1992 F   0  0  0  0  0  0  0  0  0  0  0  0
   13.4148   15.4810   20.9415 F   0  0  0  0  0  0  0  0  0  0  0  0
  1  2  1  0
  3  2  1  1
  3  4  1  0
  4  5  1  0
  5  6  2  0
  5  7  1  0
  7  8  1  0
  8  9  2  0
  9 10  1  0
 10 11  2  0
 11 12  1  0
 12 13  1  0
 13 14  1  0
 14 15  1  0
 15 16  1  0
 16 17  2  0
 11 18  1  0
 18 19  1  0
 18 20  2  0
  3 21  1  0
 21 22  1  0
 21 23  1  0
 21 24  1  0
 20  8  1  0
 16 12  1  0
M  END
>  <energy_score>  (643) 
-41.658977

>  <inchikey>  (643) 
None

>  <smiles>  (643) 
None

>  <ref_pdb>  (643) 
A0310a

>  <alias>  (643) 
None

>  <HIPPO Pose ID>  (643) 
499161

>  <name>  (643) 
P499161

>  <HIPPO Compound ID>  (643) 
301735

>  <ref_mols>  (643) 
A1445a,A0310a

>  <distance_score>  (643) 
1.87472

>  <inspiration_score>  (643) 
None

$$$$
P499162
     RDKit          3D

 24 26  0  0  0  0  0  0  0  0999 V2000
    4.3604    7.7635   29.9316 N   0  0  0  0  0  0  0  0  0  0  0  0
    4.2146    8.8285   29.5000 C   0  0  0  0  0  0  0  0  0  0  0  0
    4.0717   10.1611   29.0007 C   0  0  1  0  0  0  0  0  0  0  0  0
    5.3326   10.8227   28.5362 C   0  0  0  0  0  0  0  0  0  0  0  0
    5.7168   11.7381   29.1540 O   0  0  0  0  0  0  0  0  0  0  0  0
    5.8649   10.2065   27.2077 N   0  0  0  0  0  0  0  0  0  0  0  0
    6.8767   10.6338   26.3581 C   0  0  0  0  0  0  0  0  0  0  0  0
    7.4119    9.8740   25.3180 C   0  0  0  0  0  0  0  0  0  0  0  0
    8.3998   10.3504   24.4547 C   0  0  0  0  0  0  0  0  0  0  0  0
    8.6669   11.6966   24.5061 C   0  0  0  0  0  0  0  0  0  0  0  0
    8.1539   12.4751   25.5457 C   0  0  0  0  0  0  0  0  0  0  0  0
    7.2990   11.9295   26.4903 C   0  0  0  0  0  0  0  0  0  0  0  0
    8.4097   13.9454   25.6238 C   0  0  0  0  0  0  0  0  0  0  0  0
    7.4272   14.5976   24.6859 C   0  0  0  0  0  0  0  0  0  0  0  0
    7.5579   14.0892   23.2592 C   0  0  0  0  0  0  0  0  0  0  0  0
    8.8822   13.4419   22.8363 C   0  0  0  0  0  0  0  0  0  0  0  0
    9.4964   13.8270   21.8490 O   0  0  0  0  0  0  0  0  0  0  0  0
    9.3263   12.3020   23.4477 N   0  0  0  0  0  0  0  0  0  0  0  0
    2.8847   10.6449   28.1905 C   0  0  0  0  0  0  0  0  0  0  0  0
    2.9375   10.9961   29.6318 C   0  0  1  0  0  0  0  0  0  0  0  0
    1.7583   10.5172   30.3806 C   0  0  0  0  0  0  0  0  0  0  0  0
    1.9506   10.5819   31.7073 F   0  0  0  0  0  0  0  0  0  0  0  0
    1.4336    9.2497   30.0435 F   0  0  0  0  0  0  0  0  0  0  0  0
    0.7024   11.2987   30.0572 F   0  0  0  0  0  0  0  0  0  0  0  0
  1  2  3  0
  3  2  1  1
  3  4  1  0
  4  5  2  0
  4  6  1  0
  6  7  1  0
  7  8  2  0
  8  9  1  0
  9 10  2  0
 10 11  1  0
 11 12  2  0
 11 13  1  0
 13 14  1  0
 14 15  1  0
 15 16  1  0
 16 17  2  0
 16 18  1  0
  3 19  1  0
 19 20  1  0
 20 21  1  1
 21 22  1  0
 21 23  1  0
 21 24  1  0
 20  3  1  0
 12  7  1  0
 18 10  1  0
M  END
>  <energy_score>  (644) 
-23.806685

>  <inchikey>  (644) 
None

>  <smiles>  (644) 
None

>  <ref_pdb>  (644) 
A0310a

>  <alias>  (644) 
None

>  <HIPPO Pose ID>  (644) 
499162

>  <name>  (644) 
P499162

>  <HIPPO Compound ID>  (644) 
301736

>  <ref_mols>  (644) 
A1445a,A0310a

>  <distance_score>  (644) 
1.784688

>  <inspiration_score>  (644) 
None

$$$$
P499163
     RDKit          3D

 24 25  0  0  0  0  0  0  0  0999 V2000
    3.5106   11.7938   30.1820 C   0  0  0  0  0  0  0  0  0  0  0  0
    2.9310   10.7852   29.1613 C   0  0  2  0  0  0  0  0  0  0  0  0
    1.6930   10.1723   29.7924 C   0  0  0  0  0  0  0  0  0  0  0  0
    1.9559    9.5915   30.9766 F   0  0  0  0  0  0  0  0  0  0  0  0
    1.1078    9.2599   28.9917 F   0  0  0  0  0  0  0  0  0  0  0  0
    0.7692   11.1403   30.0035 F   0  0  0  0  0  0  0  0  0  0  0  0
    4.0339    9.8088   28.5272 C   0  0  0  0  0  0  0  0  0  0  0  0
    3.3836    8.6192   27.8007 C   0  0  0  0  0  0  0  0  0  0  0  0
    4.9803    9.2614   29.6015 C   0  0  0  0  0  0  0  0  0  0  0  0
    4.8525   10.7206   27.5379 C   0  0  0  0  0  0  0  0  0  0  0  0
    4.5944   11.8638   27.5400 O   0  0  0  0  0  0  0  0  0  0  0  0
    5.9663    9.9382   26.7759 N   0  0  0  0  0  0  0  0  0  0  0  0
    7.0023   10.3982   25.9719 C   0  0  0  0  0  0  0  0  0  0  0  0
    7.7572    9.6625   25.0598 C   0  0  0  0  0  0  0  0  0  0  0  0
    8.7128   10.2565   24.2292 C   0  0  0  0  0  0  0  0  0  0  0  0
    8.8340   11.6288   24.2781 C   0  0  0  0  0  0  0  0  0  0  0  0
    8.2006   12.3499   25.2851 C   0  0  0  0  0  0  0  0  0  0  0  0
    7.2778   11.7355   26.1049 C   0  0  0  0  0  0  0  0  0  0  0  0
    8.3944   13.8196   25.4642 C   0  0  0  0  0  0  0  0  0  0  0  0
    7.4479   14.4985   24.5151 C   0  0  0  0  0  0  0  0  0  0  0  0
    7.6823   14.0675   23.0778 C   0  0  0  0  0  0  0  0  0  0  0  0
    9.0482   13.4698   22.7009 C   0  0  0  0  0  0  0  0  0  0  0  0
    9.7134   13.9386   21.7851 O   0  0  0  0  0  0  0  0  0  0  0  0
    9.4934   12.3050   23.2638 N   0  0  0  0  0  0  0  0  0  0  0  0
  2  1  1  1
  2  3  1  0
  3  4  1  0
  3  5  1  0
  3  6  1  0
  2  7  1  0
  7  8  1  0
  7  9  1  0
  7 10  1  0
 10 11  2  0
 10 12  1  0
 12 13  1  0
 13 14  2  0
 14 15  1  0
 15 16  2  0
 16 17  1  0
 17 18  2  0
 17 19  1  0
 19 20  1  0
 20 21  1  0
 21 22  1  0
 22 23  2  0
 22 24  1  0
 18 13  1  0
 24 16  1  0
M  END
>  <energy_score>  (645) 
-26.703165

>  <inchikey>  (645) 
None

>  <smiles>  (645) 
None

>  <ref_pdb>  (645) 
A0310a

>  <alias>  (645) 
None

>  <HIPPO Pose ID>  (645) 
499163

>  <name>  (645) 
P499163

>  <HIPPO Compound ID>  (645) 
301737

>  <ref_mols>  (645) 
A1445a,A0310a

>  <distance_score>  (645) 
1.673638

>  <inspiration_score>  (645) 
None

$$$$
P499167
     RDKit          3D

 24 26  0  0  0  0  0  0  0  0999 V2000
   10.4782    9.7760   22.1897 O   0  0  0  0  0  0  0  0  0  0  0  0
   10.0778   10.6630   22.9426 C   0  0  0  0  0  0  0  0  0  0  0  0
   10.5261   12.0908   22.8295 C   0  0  0  0  0  0  0  0  0  0  0  0
   10.3552   12.9771   24.0334 C   0  0  0  0  0  0  0  0  0  0  0  0
    8.9011   13.3428   24.2539 C   0  0  0  0  0  0  0  0  0  0  0  0
    8.1083   12.2686   24.9263 C   0  0  0  0  0  0  0  0  0  0  0  0
    7.0821   12.6837   25.8168 C   0  0  0  0  0  0  0  0  0  0  0  0
    6.2885   11.7507   26.4702 C   0  0  0  0  0  0  0  0  0  0  0  0
    5.2596   12.0980   27.3289 N   0  0  0  0  0  0  0  0  0  0  0  0
    4.2869   11.2170   28.1292 C   0  0  0  0  0  0  0  0  0  0  0  0
    4.2447   10.0603   28.2543 O   0  0  0  0  0  0  0  0  0  0  0  0
    3.2043   12.0114   28.7848 C   0  0  2  0  0  0  0  0  0  0  0  0
    2.1716   12.5924   27.8479 C   0  0  0  0  0  0  0  0  0  0  0  0
    1.4402   11.5670   27.3366 F   0  0  0  0  0  0  0  0  0  0  0  0
    3.3466   12.6821   30.1380 C   0  0  0  0  0  0  0  0  0  0  0  0
    2.7566   11.2983   30.0804 C   0  0  1  0  0  0  0  0  0  0  0  0
    1.3524   10.8714   30.2255 C   0  0  0  0  0  0  0  0  0  0  0  0
    1.0914   10.6073   31.5226 F   0  0  0  0  0  0  0  0  0  0  0  0
    1.1196    9.7461   29.5144 F   0  0  0  0  0  0  0  0  0  0  0  0
    0.4900   11.8211   29.8127 F   0  0  0  0  0  0  0  0  0  0  0  0
    6.4926   10.4086   26.2235 C   0  0  0  0  0  0  0  0  0  0  0  0
    7.4702   10.0094   25.3403 C   0  0  0  0  0  0  0  0  0  0  0  0
    8.2866   10.9060   24.6878 C   0  0  0  0  0  0  0  0  0  0  0  0
    9.1601   10.2619   23.8256 N   0  0  0  0  0  0  0  0  0  0  0  0
  1  2  2  0
  2  3  1  0
  3  4  1  0
  4  5  1  0
  5  6  1  0
  6  7  2  0
  7  8  1  0
  8  9  1  0
  9 10  1  0
 10 11  2  0
 10 12  1  0
 12 13  1  6
 13 14  1  0
 12 15  1  0
 15 16  1  0
 16 17  1  6
 17 18  1  0
 17 19  1  0
 17 20  1  0
  8 21  2  0
 21 22  1  0
 22 23  2  0
 23 24  1  0
 24  2  1  0
 23  6  1  0
 16 12  1  0
M  END
>  <energy_score>  (646) 
-35.445171

>  <inchikey>  (646) 
None

>  <smiles>  (646) 
None

>  <ref_pdb>  (646) 
A0310a

>  <alias>  (646) 
None

>  <HIPPO Pose ID>  (646) 
499167

>  <name>  (646) 
P499167

>  <HIPPO Compound ID>  (646) 
301739

>  <ref_mols>  (646) 
A1445a,A0310a

>  <distance_score>  (646) 
1.580054

>  <inspiration_score>  (646) 
None

$$$$
P499169
     RDKit          3D

 24 25  0  0  0  0  0  0  0  0999 V2000
    3.4722   11.9414   29.8734 C   0  0  0  0  0  0  0  0  0  0  0  0
    3.4317   10.3969   29.8056 C   0  0  2  0  0  0  0  0  0  0  0  0
    3.9437    9.9218   31.0804 O   0  0  0  0  0  0  0  0  0  0  0  0
    4.2482    9.7324   28.6286 C   0  0  2  0  0  0  0  0  0  0  0  0
    4.5192    8.3566   28.8991 O   0  0  0  0  0  0  0  0  0  0  0  0
    5.5321   10.5235   28.2477 C   0  0  0  0  0  0  0  0  0  0  0  0
    5.9033   11.4288   28.8911 O   0  0  0  0  0  0  0  0  0  0  0  0
    6.0741    9.9524   26.8917 N   0  0  0  0  0  0  0  0  0  0  0  0
    7.0738   10.4223   26.0535 C   0  0  0  0  0  0  0  0  0  0  0  0
    7.7131    9.7011   25.0467 C   0  0  0  0  0  0  0  0  0  0  0  0
    8.6616   10.2811   24.2018 C   0  0  0  0  0  0  0  0  0  0  0  0
    8.8250   11.6472   24.2802 C   0  0  0  0  0  0  0  0  0  0  0  0
    8.2529   12.3652   25.3282 C   0  0  0  0  0  0  0  0  0  0  0  0
    7.3974   11.7448   26.2159 C   0  0  0  0  0  0  0  0  0  0  0  0
    8.4442   13.8385   25.4877 C   0  0  0  0  0  0  0  0  0  0  0  0
    7.4547   14.5049   24.5706 C   0  0  0  0  0  0  0  0  0  0  0  0
    7.6346   14.0744   23.1251 C   0  0  0  0  0  0  0  0  0  0  0  0
    8.9897   13.4873   22.7015 C   0  0  0  0  0  0  0  0  0  0  0  0
    9.6235   13.9586   21.7656 O   0  0  0  0  0  0  0  0  0  0  0  0
    9.4573   12.3255   23.2506 N   0  0  0  0  0  0  0  0  0  0  0  0
    1.9339   10.0515   29.6358 C   0  0  0  0  0  0  0  0  0  0  0  0
    1.2450   10.4290   30.7439 F   0  0  0  0  0  0  0  0  0  0  0  0
    1.6971    8.7428   29.4441 F   0  0  0  0  0  0  0  0  0  0  0  0
    1.3950   10.7195   28.5831 F   0  0  0  0  0  0  0  0  0  0  0  0
  2  1  1  1
  2  3  1  0
  2  4  1  0
  4  5  1  1
  4  6  1  0
  6  7  2  0
  6  8  1  0
  8  9  1  0
  9 10  2  0
 10 11  1  0
 11 12  2  0
 12 13  1  0
 13 14  2  0
 13 15  1  0
 15 16  1  0
 16 17  1  0
 17 18  1  0
 18 19  2  0
 18 20  1  0
  2 21  1  0
 21 22  1  0
 21 23  1  0
 21 24  1  0
 14  9  1  0
 20 12  1  0
M  END
>  <energy_score>  (647) 
-144.266225

>  <inchikey>  (647) 
None

>  <smiles>  (647) 
None

>  <ref_pdb>  (647) 
A0310a

>  <alias>  (647) 
None

>  <HIPPO Pose ID>  (647) 
499169

>  <name>  (647) 
P499169

>  <HIPPO Compound ID>  (647) 
301740

>  <ref_mols>  (647) 
A1445a,A0310a

>  <distance_score>  (647) 
1.643174

>  <inspiration_score>  (647) 
None

$$$$
P499172
     RDKit          3D

 24 26  0  0  0  0  0  0  0  0999 V2000
   10.4211    9.8206   22.2590 O   0  0  0  0  0  0  0  0  0  0  0  0
    9.9996   10.6729   23.0347 C   0  0  0  0  0  0  0  0  0  0  0  0
   10.5683   12.0503   23.1465 C   0  0  0  0  0  0  0  0  0  0  0  0
    9.5142   13.1284   23.0486 C   0  0  0  0  0  0  0  0  0  0  0  0
    8.8906   13.4318   24.3932 C   0  0  0  0  0  0  0  0  0  0  0  0
    8.0639   12.3335   24.9997 C   0  0  0  0  0  0  0  0  0  0  0  0
    7.0973   12.7506   25.9530 C   0  0  0  0  0  0  0  0  0  0  0  0
    6.3080   11.8310   26.6372 C   0  0  0  0  0  0  0  0  0  0  0  0
    5.4010   12.2273   27.6029 N   0  0  0  0  0  0  0  0  0  0  0  0
    4.6000   11.3883   28.6418 C   0  0  0  0  0  0  0  0  0  0  0  0
    4.6441   10.2470   28.8886 O   0  0  0  0  0  0  0  0  0  0  0  0
    3.6424   12.3256   29.3408 C   0  0  2  0  0  0  0  0  0  0  0  0
    4.3682   13.3783   30.1624 C   0  0  0  0  0  0  0  0  0  0  0  0
    3.5934   13.6117   31.3436 O   0  0  0  0  0  0  0  0  0  0  0  0
    2.4501   12.7489   31.3032 C   0  0  0  0  0  0  0  0  0  0  0  0
    2.8326   11.6014   30.4042 C   0  0  1  0  0  0  0  0  0  0  0  0
    1.6226   10.8562   29.9114 C   0  0  0  0  0  0  0  0  0  0  0  0
    0.9037   10.4031   30.9607 F   0  0  0  0  0  0  0  0  0  0  0  0
    1.9285    9.7963   29.1409 F   0  0  0  0  0  0  0  0  0  0  0  0
    0.8238   11.6627   29.1786 F   0  0  0  0  0  0  0  0  0  0  0  0
    6.4352   10.4897   26.3547 C   0  0  0  0  0  0  0  0  0  0  0  0
    7.3515   10.0855   25.4080 C   0  0  0  0  0  0  0  0  0  0  0  0
    8.1855   10.9668   24.7413 C   0  0  0  0  0  0  0  0  0  0  0  0
    9.0113   10.2911   23.8502 N   0  0  0  0  0  0  0  0  0  0  0  0
  1  2  2  0
  2  3  1  0
  3  4  1  0
  4  5  1  0
  5  6  1  0
  6  7  2  0
  7  8  1  0
  8  9  1  0
  9 10  1  0
 10 11  2  0
 12 10  1  1
 12 13  1  0
 13 14  1  0
 14 15  1  0
 15 16  1  0
 16 17  1  6
 17 18  1  0
 17 19  1  0
 17 20  1  0
  8 21  2  0
 21 22  1  0
 22 23  2  0
 23 24  1  0
 24  2  1  0
 23  6  1  0
 16 12  1  0
M  END
>  <energy_score>  (648) 
-41.467309

>  <inchikey>  (648) 
None

>  <smiles>  (648) 
None

>  <ref_pdb>  (648) 
A0310a

>  <alias>  (648) 
None

>  <HIPPO Pose ID>  (648) 
499172

>  <name>  (648) 
P499172

>  <HIPPO Compound ID>  (648) 
301741

>  <ref_mols>  (648) 
A1445a,A0310a

>  <distance_score>  (648) 
1.664071

>  <inspiration_score>  (648) 
None

$$$$
P499174
     RDKit          3D

 24 26  0  0  0  0  0  0  0  0999 V2000
    5.9458   11.5154   29.0600 O   0  0  0  0  0  0  0  0  0  0  0  0
    5.5105   10.6380   28.4185 C   0  0  0  0  0  0  0  0  0  0  0  0
    4.2176    9.9570   28.8719 C   0  0  0  0  0  0  0  0  0  0  0  0
    3.0893   10.9817   29.2151 C   0  0  0  0  0  0  0  0  0  0  0  0
    1.7878   10.2819   29.5813 C   0  0  0  0  0  0  0  0  0  0  0  0
    1.8358    9.8031   30.8433 F   0  0  0  0  0  0  0  0  0  0  0  0
    1.5443    9.2476   28.7457 F   0  0  0  0  0  0  0  0  0  0  0  0
    0.7318   11.1223   29.4951 F   0  0  0  0  0  0  0  0  0  0  0  0
    3.3680   12.1180   30.2582 C   0  0  0  0  0  0  0  0  0  0  0  0
    2.7642   13.1405   29.2833 C   0  0  0  0  0  0  0  0  0  0  0  0
    2.8925   12.1111   28.1502 C   0  0  0  0  0  0  0  0  0  0  0  0
    5.9799   10.0591   27.0470 N   0  0  0  0  0  0  0  0  0  0  0  0
    6.9783   10.4883   26.1818 C   0  0  0  0  0  0  0  0  0  0  0  0
    7.5655    9.7521   25.1562 C   0  0  0  0  0  0  0  0  0  0  0  0
    8.5362   10.2847   24.3040 C   0  0  0  0  0  0  0  0  0  0  0  0
    8.7514   11.6420   24.3696 C   0  0  0  0  0  0  0  0  0  0  0  0
    8.2071   12.3887   25.4129 C   0  0  0  0  0  0  0  0  0  0  0  0
    7.3519   11.8004   26.3261 C   0  0  0  0  0  0  0  0  0  0  0  0
    8.4267   13.8611   25.5395 C   0  0  0  0  0  0  0  0  0  0  0  0
    7.4482   14.5238   24.6068 C   0  0  0  0  0  0  0  0  0  0  0  0
    7.6240   14.0667   23.1688 C   0  0  0  0  0  0  0  0  0  0  0  0
    8.9703   13.4505   22.7628 C   0  0  0  0  0  0  0  0  0  0  0  0
    9.6263   13.8999   21.8314 O   0  0  0  0  0  0  0  0  0  0  0  0
    9.4044   12.2846   23.3300 N   0  0  0  0  0  0  0  0  0  0  0  0
  1  2  2  0
  2  3  1  0
  3  4  1  0
  4  5  1  0
  5  6  1  0
  5  7  1  0
  5  8  1  0
  4  9  1  0
  9 10  1  0
 10 11  1  0
  2 12  1  0
 12 13  1  0
 13 14  2  0
 14 15  1  0
 15 16  2  0
 16 17  1  0
 17 18  2  0
 17 19  1  0
 19 20  1  0
 20 21  1  0
 21 22  1  0
 22 23  2  0
 22 24  1  0
 11  4  1  0
 18 13  1  0
 24 16  1  0
M  END
>  <energy_score>  (649) 
-129.89511

>  <inchikey>  (649) 
None

>  <smiles>  (649) 
None

>  <ref_pdb>  (649) 
A0310a

>  <alias>  (649) 
None

>  <HIPPO Pose ID>  (649) 
499174

>  <name>  (649) 
P499174

>  <HIPPO Compound ID>  (649) 
301746

>  <ref_mols>  (649) 
A1445a,A0310a

>  <distance_score>  (649) 
1.693722

>  <inspiration_score>  (649) 
None

$$$$
P499176
     RDKit          3D

 24 26  0  0  0  0  0  0  0  0999 V2000
   10.3887    9.7173   22.2952 O   0  0  0  0  0  0  0  0  0  0  0  0
    9.9547   10.6175   23.0146 C   0  0  0  0  0  0  0  0  0  0  0  0
   10.4415   12.0319   22.8945 C   0  0  0  0  0  0  0  0  0  0  0  0
   10.2500   12.9543   24.0660 C   0  0  0  0  0  0  0  0  0  0  0  0
    8.7924   13.3188   24.2641 C   0  0  0  0  0  0  0  0  0  0  0  0
    8.0204   12.2715   24.9999 C   0  0  0  0  0  0  0  0  0  0  0  0
    7.0945   12.7049   25.9858 C   0  0  0  0  0  0  0  0  0  0  0  0
    6.3443   11.7959   26.7333 C   0  0  0  0  0  0  0  0  0  0  0  0
    5.5498   12.2272   27.7879 N   0  0  0  0  0  0  0  0  0  0  0  0
    4.8023   11.4223   28.8767 C   0  0  0  0  0  0  0  0  0  0  0  0
    4.7998   10.2783   29.1031 O   0  0  0  0  0  0  0  0  0  0  0  0
    4.0343   12.3458   29.7746 C   0  0  1  0  0  0  0  0  0  0  0  0
    4.8463   13.0589   30.8336 C   0  0  0  0  0  0  0  0  0  0  0  0
    5.4997   12.1227   31.6757 O   0  0  0  0  0  0  0  0  0  0  0  0
    2.8856   13.1094   29.1296 C   0  0  0  0  0  0  0  0  0  0  0  0
    2.5793   12.0421   30.1471 C   0  0  1  0  0  0  0  0  0  0  0  0
    1.7712   10.8496   29.7880 C   0  0  0  0  0  0  0  0  0  0  0  0
    1.7064   10.0097   30.8424 F   0  0  0  0  0  0  0  0  0  0  0  0
    2.1976   10.1675   28.7091 F   0  0  0  0  0  0  0  0  0  0  0  0
    0.5091   11.2553   29.5121 F   0  0  0  0  0  0  0  0  0  0  0  0
    6.4339   10.4569   26.4289 C   0  0  0  0  0  0  0  0  0  0  0  0
    7.3081   10.0460   25.4353 C   0  0  0  0  0  0  0  0  0  0  0  0
    8.1365   10.9105   24.7433 C   0  0  0  0  0  0  0  0  0  0  0  0
    8.9772   10.2489   23.8539 N   0  0  0  0  0  0  0  0  0  0  0  0
  1  2  2  0
  2  3  1  0
  3  4  1  0
  4  5  1  0
  5  6  1  0
  6  7  2  0
  7  8  1  0
  8  9  1  0
  9 10  1  0
 10 11  2  0
 10 12  1  0
 12 13  1  1
 13 14  1  0
 12 15  1  0
 15 16  1  0
 16 17  1  6
 17 18  1  0
 17 19  1  0
 17 20  1  0
  8 21  2  0
 21 22  1  0
 22 23  2  0
 23 24  1  0
 24  2  1  0
 23  6  1  0
 16 12  1  0
M  END
>  <energy_score>  (650) 
-31.580438

>  <inchikey>  (650) 
None

>  <smiles>  (650) 
None

>  <ref_pdb>  (650) 
A0310a

>  <alias>  (650) 
None

>  <HIPPO Pose ID>  (650) 
499176

>  <name>  (650) 
P499176

>  <HIPPO Compound ID>  (650) 
301747

>  <ref_mols>  (650) 
A1445a,A0310a

>  <distance_score>  (650) 
1.705397

>  <inspiration_score>  (650) 
None

$$$$
P499179
     RDKit          3D

 24 26  0  0  0  0  0  0  0  0999 V2000
   10.4754    9.7517   22.1861 O   0  0  0  0  0  0  0  0  0  0  0  0
   10.0731   10.6414   22.9351 C   0  0  0  0  0  0  0  0  0  0  0  0
   10.5370   12.0658   22.8270 C   0  0  0  0  0  0  0  0  0  0  0  0
   10.3274   12.9714   24.0096 C   0  0  0  0  0  0  0  0  0  0  0  0
    8.8646   13.3274   24.1782 C   0  0  0  0  0  0  0  0  0  0  0  0
    8.0804   12.2629   24.8735 C   0  0  0  0  0  0  0  0  0  0  0  0
    7.0612   12.6872   25.7630 C   0  0  0  0  0  0  0  0  0  0  0  0
    6.3007   11.7617   26.4653 C   0  0  0  0  0  0  0  0  0  0  0  0
    5.3302   12.1388   27.3760 N   0  0  0  0  0  0  0  0  0  0  0  0
    4.4102   11.2816   28.2764 C   0  0  0  0  0  0  0  0  0  0  0  0
    4.3808   10.1241   28.4473 O   0  0  0  0  0  0  0  0  0  0  0  0
    3.4048   12.1686   29.0057 C   0  0  2  0  0  0  0  0  0  0  0  0
    3.8898   13.3328   29.9077 C   0  0  0  0  0  0  0  0  0  0  0  0
    2.8306   12.8462   30.9204 C   0  0  0  0  0  0  0  0  0  0  0  0
    2.2804   13.3667   31.8641 O   0  0  0  0  0  0  0  0  0  0  0  0
    2.7845   11.4693   30.2702 C   0  0  1  0  0  0  0  0  0  0  0  0
    1.4460   10.8587   30.0486 C   0  0  0  0  0  0  0  0  0  0  0  0
    0.8663   10.5441   31.2224 F   0  0  0  0  0  0  0  0  0  0  0  0
    1.5499    9.7259   29.3177 F   0  0  0  0  0  0  0  0  0  0  0  0
    0.6369   11.7005   29.3700 F   0  0  0  0  0  0  0  0  0  0  0  0
    6.5097   10.4162   26.2505 C   0  0  0  0  0  0  0  0  0  0  0  0
    7.4688   10.0086   25.3497 C   0  0  0  0  0  0  0  0  0  0  0  0
    8.2696   10.8976   24.6661 C   0  0  0  0  0  0  0  0  0  0  0  0
    9.1451   10.2463   23.8108 N   0  0  0  0  0  0  0  0  0  0  0  0
  1  2  2  0
  2  3  1  0
  3  4  1  0
  4  5  1  0
  5  6  1  0
  6  7  2  0
  7  8  1  0
  8  9  1  0
  9 10  1  0
 10 11  2  0
 12 10  1  1
 12 13  1  0
 13 14  1  0
 14 15  2  0
 14 16  1  0
 16 17  1  6
 17 18  1  0
 17 19  1  0
 17 20  1  0
  8 21  2  0
 21 22  1  0
 22 23  2  0
 23 24  1  0
 24  2  1  0
 23  6  1  0
 16 12  1  0
M  END
>  <energy_score>  (651) 
-13.339376

>  <inchikey>  (651) 
None

>  <smiles>  (651) 
None

>  <ref_pdb>  (651) 
A0310a

>  <alias>  (651) 
None

>  <HIPPO Pose ID>  (651) 
499179

>  <name>  (651) 
P499179

>  <HIPPO Compound ID>  (651) 
301748

>  <ref_mols>  (651) 
A1445a,A0310a

>  <distance_score>  (651) 
1.588101

>  <inspiration_score>  (651) 
None

$$$$
P499187
     RDKit          3D

 25 27  0  0  0  0  0  0  0  0999 V2000
   10.4925    9.8027   22.2016 O   0  0  0  0  0  0  0  0  0  0  0  0
   10.0695   10.6489   22.9815 C   0  0  0  0  0  0  0  0  0  0  0  0
   10.6184   12.0329   23.1145 C   0  0  0  0  0  0  0  0  0  0  0  0
    9.5490   13.0981   23.0354 C   0  0  0  0  0  0  0  0  0  0  0  0
    8.9138   13.3671   24.3814 C   0  0  0  0  0  0  0  0  0  0  0  0
    8.0976   12.2559   24.9691 C   0  0  0  0  0  0  0  0  0  0  0  0
    7.1066   12.6501   25.9114 C   0  0  0  0  0  0  0  0  0  0  0  0
    6.3314   11.7056   26.5686 C   0  0  0  0  0  0  0  0  0  0  0  0
    5.3396   12.0275   27.4773 N   0  0  0  0  0  0  0  0  0  0  0  0
    4.4882   11.1280   28.3838 C   0  0  0  0  0  0  0  0  0  0  0  0
    4.5369    9.9808   28.5680 O   0  0  0  0  0  0  0  0  0  0  0  0
    3.3926   11.8677   29.0249 C   0  0  2  0  0  0  0  0  0  0  0  0
    3.4533   12.4509   30.4087 C   0  0  1  0  0  0  0  0  0  0  0  0
    2.6548   13.6487   30.6604 N   0  0  0  0  0  0  0  0  0  0  0  0
    2.8093   14.5806   29.8656 O   0  0  0  0  0  0  0  0  0  0  0  0
    1.9304   13.6274   31.6567 O   0  0  0  0  0  0  0  0  0  0  0  0
    2.7562   11.1337   30.1986 C   0  0  1  0  0  0  0  0  0  0  0  0
    1.3142   10.8736   30.1345 C   0  0  0  0  0  0  0  0  0  0  0  0
    0.8038   10.7630   31.3724 F   0  0  0  0  0  0  0  0  0  0  0  0
    1.0883    9.7138   29.4767 F   0  0  0  0  0  0  0  0  0  0  0  0
    0.6654   11.8491   29.4681 F   0  0  0  0  0  0  0  0  0  0  0  0
    6.5101   10.3713   26.2766 C   0  0  0  0  0  0  0  0  0  0  0  0
    7.4404    9.9911   25.3388 C   0  0  0  0  0  0  0  0  0  0  0  0
    8.2502   10.8953   24.6881 C   0  0  0  0  0  0  0  0  0  0  0  0
    9.0838   10.2466   23.7893 N   0  0  0  0  0  0  0  0  0  0  0  0
  1  2  2  0
  2  3  1  0
  3  4  1  0
  4  5  1  0
  5  6  1  0
  6  7  2  0
  7  8  1  0
  8  9  1  0
  9 10  1  0
 10 11  2  0
 12 10  1  1
 12 13  1  0
 13 14  1  6
 14 15  2  0
 14 16  1  0
 13 17  1  0
 17 18  1  6
 18 19  1  0
 18 20  1  0
 18 21  1  0
  8 22  2  0
 22 23  1  0
 23 24  2  0
 24 25  1  0
 25  2  1  0
 24  6  1  0
 17 12  1  0
M  CHG  2  14   1  16  -1
M  END
>  <energy_score>  (652) 
-63.613108

>  <inchikey>  (652) 
None

>  <smiles>  (652) 
None

>  <ref_pdb>  (652) 
A0310a

>  <alias>  (652) 
None

>  <HIPPO Pose ID>  (652) 
499187

>  <name>  (652) 
P499187

>  <HIPPO Compound ID>  (652) 
301754

>  <ref_mols>  (652) 
A1445a,A0310a

>  <distance_score>  (652) 
1.55093

>  <inspiration_score>  (652) 
None

$$$$
P499189
     RDKit          3D

 25 26  0  0  0  0  0  0  0  0999 V2000
    2.5146   13.9054   30.1182 C   0  0  0  0  0  0  0  0  0  0  0  0
    2.5780   12.7261   30.9888 N   0  0  0  0  0  0  0  0  0  0  0  0
    2.9787   13.1385   32.3376 C   0  0  0  0  0  0  0  0  0  0  0  0
    3.5048   11.7095   30.4651 C   0  0  0  0  0  0  0  0  0  0  0  0
    2.9922   10.9526   29.2126 C   0  0  1  0  0  0  0  0  0  0  0  0
    4.0871   10.0182   28.5991 C   0  0  0  0  0  0  0  0  0  0  0  0
    5.1114   10.9107   27.8974 C   0  0  0  0  0  0  0  0  0  0  0  0
    5.1250   12.0541   28.1509 O   0  0  0  0  0  0  0  0  0  0  0  0
    6.0216   10.0762   26.9424 N   0  0  0  0  0  0  0  0  0  0  0  0
    7.0291   10.4824   26.0711 C   0  0  0  0  0  0  0  0  0  0  0  0
    7.6832    9.7197   25.1068 C   0  0  0  0  0  0  0  0  0  0  0  0
    8.6426   10.2620   24.2417 C   0  0  0  0  0  0  0  0  0  0  0  0
    8.8284   11.6275   24.2746 C   0  0  0  0  0  0  0  0  0  0  0  0
    8.2725   12.3792   25.3011 C   0  0  0  0  0  0  0  0  0  0  0  0
    7.3890   11.8008   26.1873 C   0  0  0  0  0  0  0  0  0  0  0  0
    8.4920   13.8505   25.4379 C   0  0  0  0  0  0  0  0  0  0  0  0
    7.4924   14.5052   24.5253 C   0  0  0  0  0  0  0  0  0  0  0  0
    7.6755   14.0654   23.0828 C   0  0  0  0  0  0  0  0  0  0  0  0
    9.0201   13.4434   22.6685 C   0  0  0  0  0  0  0  0  0  0  0  0
    9.6595   13.8871   21.7223 O   0  0  0  0  0  0  0  0  0  0  0  0
    9.4640   12.2751   23.2278 N   0  0  0  0  0  0  0  0  0  0  0  0
    1.7150   10.2200   29.5623 C   0  0  0  0  0  0  0  0  0  0  0  0
    1.8091    9.5445   30.7242 F   0  0  0  0  0  0  0  0  0  0  0  0
    1.4045    9.3223   28.5962 F   0  0  0  0  0  0  0  0  0  0  0  0
    0.6645   11.0635   29.6409 F   0  0  0  0  0  0  0  0  0  0  0  0
  1  2  1  0
  2  3  1  0
  2  4  1  0
  5  4  1  1
  5  6  1  0
  6  7  1  0
  7  8  2  0
  7  9  1  0
  9 10  1  0
 10 11  2  0
 11 12  1  0
 12 13  2  0
 13 14  1  0
 14 15  2  0
 14 16  1  0
 16 17  1  0
 17 18  1  0
 18 19  1  0
 19 20  2  0
 19 21  1  0
  5 22  1  0
 22 23  1  0
 22 24  1  0
 22 25  1  0
 15 10  1  0
 21 13  1  0
M  END
>  <energy_score>  (653) 
-35.306389

>  <inchikey>  (653) 
None

>  <smiles>  (653) 
None

>  <ref_pdb>  (653) 
A0310a

>  <alias>  (653) 
None

>  <HIPPO Pose ID>  (653) 
499189

>  <name>  (653) 
P499189

>  <HIPPO Compound ID>  (653) 
301756

>  <ref_mols>  (653) 
A1445a,A0310a

>  <distance_score>  (653) 
1.644894

>  <inspiration_score>  (653) 
None

$$$$
P499191
     RDKit          3D

 25 27  0  0  0  0  0  0  0  0999 V2000
    5.1803   10.0868   31.9244 O   0  0  0  0  0  0  0  0  0  0  0  0
    4.5939   10.2203   30.8581 C   0  0  0  0  0  0  0  0  0  0  0  0
    4.7452    9.2434   29.7158 C   0  0  0  0  0  0  0  0  0  0  0  0
    4.0525    9.9621   28.5688 C   0  0  2  0  0  0  0  0  0  0  0  0
    5.0481   10.8696   27.8343 C   0  0  0  0  0  0  0  0  0  0  0  0
    5.0297   12.0149   28.0788 O   0  0  0  0  0  0  0  0  0  0  0  0
    5.9958   10.0501   26.9046 N   0  0  0  0  0  0  0  0  0  0  0  0
    7.0100   10.4731   26.0502 C   0  0  0  0  0  0  0  0  0  0  0  0
    7.6867    9.7142   25.0980 C   0  0  0  0  0  0  0  0  0  0  0  0
    8.6483   10.2646   24.2424 C   0  0  0  0  0  0  0  0  0  0  0  0
    8.8191   11.6317   24.2751 C   0  0  0  0  0  0  0  0  0  0  0  0
    8.2426   12.3802   25.2939 C   0  0  0  0  0  0  0  0  0  0  0  0
    7.3529   11.7953   26.1704 C   0  0  0  0  0  0  0  0  0  0  0  0
    8.4490   13.8532   25.4322 C   0  0  0  0  0  0  0  0  0  0  0  0
    7.4656   14.5016   24.4973 C   0  0  0  0  0  0  0  0  0  0  0  0
    7.6878   14.0712   23.0575 C   0  0  0  0  0  0  0  0  0  0  0  0
    9.0436   13.4526   22.6762 C   0  0  0  0  0  0  0  0  0  0  0  0
    9.7178   13.9084   21.7606 O   0  0  0  0  0  0  0  0  0  0  0  0
    9.4683   12.2789   23.2369 N   0  0  0  0  0  0  0  0  0  0  0  0
    2.9950   10.8792   29.2491 C   0  0  1  0  0  0  0  0  0  0  0  0
    1.6774   10.2168   29.5707 C   0  0  0  0  0  0  0  0  0  0  0  0
    1.7645    9.4110   30.6432 F   0  0  0  0  0  0  0  0  0  0  0  0
    1.2402    9.4843   28.5265 F   0  0  0  0  0  0  0  0  0  0  0  0
    0.7410   11.1537   29.8270 F   0  0  0  0  0  0  0  0  0  0  0  0
    3.6600   11.3654   30.5448 C   0  0  0  0  0  0  0  0  0  0  0  0
  1  2  2  0
  2  3  1  0
  3  4  1  0
  4  5  1  1
  5  6  2  0
  5  7  1  0
  7  8  1  0
  8  9  2  0
  9 10  1  0
 10 11  2  0
 11 12  1  0
 12 13  2  0
 12 14  1  0
 14 15  1  0
 15 16  1  0
 16 17  1  0
 17 18  2  0
 17 19  1  0
  4 20  1  0
 20 21  1  1
 21 22  1  0
 21 23  1  0
 21 24  1  0
 20 25  1  0
 25  2  1  0
 13  8  1  0
 19 11  1  0
M  END
>  <energy_score>  (654) 
-18.413371

>  <inchikey>  (654) 
None

>  <smiles>  (654) 
None

>  <ref_pdb>  (654) 
A0310a

>  <alias>  (654) 
None

>  <HIPPO Pose ID>  (654) 
499191

>  <name>  (654) 
P499191

>  <HIPPO Compound ID>  (654) 
301758

>  <ref_mols>  (654) 
A1445a,A0310a

>  <distance_score>  (654) 
1.684685

>  <inspiration_score>  (654) 
None

$$$$
P499195
     RDKit          3D

 25 27  0  0  0  0  0  0  0  0999 V2000
   10.4952   10.0725   22.3369 O   0  0  0  0  0  0  0  0  0  0  0  0
    9.9922   10.8807   23.1101 C   0  0  0  0  0  0  0  0  0  0  0  0
   10.4618   12.2831   23.2729 C   0  0  0  0  0  0  0  0  0  0  0  0
    9.3129   13.2688   23.2845 C   0  0  0  0  0  0  0  0  0  0  0  0
    8.7180   13.4476   24.6749 C   0  0  0  0  0  0  0  0  0  0  0  0
    7.9849   12.2588   25.2384 C   0  0  0  0  0  0  0  0  0  0  0  0
    7.0738   12.5137   26.3130 C   0  0  0  0  0  0  0  0  0  0  0  0
    6.2858   11.4962   26.8426 C   0  0  0  0  0  0  0  0  0  0  0  0
    5.4093   11.5686   27.9141 N   0  0  0  0  0  0  0  0  0  0  0  0
    5.2143   12.6792   28.9867 C   0  0  0  0  0  0  0  0  0  0  0  0
    5.7085   13.7322   29.0831 O   0  0  0  0  0  0  0  0  0  0  0  0
    4.1607   12.0804   29.9557 C   0  0  1  0  0  0  0  0  0  0  0  0
    4.1614   12.7826   31.3241 C   0  0  0  0  0  0  0  0  0  0  0  0
    3.1991   13.9203   31.4520 C   0  0  0  0  0  0  0  0  0  0  0  0
    2.2971   14.2292   30.5143 C   0  0  0  0  0  0  0  0  0  0  0  0
    2.1441   13.4545   29.2466 C   0  0  0  0  0  0  0  0  0  0  0  0
    2.7806   12.0590   29.2570 C   0  0  2  0  0  0  0  0  0  0  0  0
    1.8384   11.0123   29.8321 C   0  0  0  0  0  0  0  0  0  0  0  0
    1.6168   11.1401   31.1497 F   0  0  0  0  0  0  0  0  0  0  0  0
    2.3366    9.7697   29.6185 F   0  0  0  0  0  0  0  0  0  0  0  0
    0.6484   11.0558   29.1916 F   0  0  0  0  0  0  0  0  0  0  0  0
    6.3658   10.2396   26.2891 C   0  0  0  0  0  0  0  0  0  0  0  0
    7.3048    9.9714   25.3193 C   0  0  0  0  0  0  0  0  0  0  0  0
    8.1358   10.9426   24.7968 C   0  0  0  0  0  0  0  0  0  0  0  0
    8.9968   10.3970   23.8564 N   0  0  0  0  0  0  0  0  0  0  0  0
  1  2  2  0
  2  3  1  0
  3  4  1  0
  4  5  1  0
  5  6  1  0
  6  7  2  0
  7  8  1  0
  8  9  1  0
  9 10  1  0
 10 11  2  0
 12 10  1  6
 12 13  1  0
 13 14  1  0
 14 15  2  0
 15 16  1  0
 16 17  1  0
 17 18  1  1
 18 19  1  0
 18 20  1  0
 18 21  1  0
  8 22  2  0
 22 23  1  0
 23 24  2  0
 24 25  1  0
 25  2  1  0
 24  6  1  0
 17 12  1  0
M  END
>  <energy_score>  (655) 
-42.214464

>  <inchikey>  (655) 
None

>  <smiles>  (655) 
None

>  <ref_pdb>  (655) 
A0310a

>  <alias>  (655) 
None

>  <HIPPO Pose ID>  (655) 
499195

>  <name>  (655) 
P499195

>  <HIPPO Compound ID>  (655) 
301761

>  <ref_mols>  (655) 
A1445a,A0310a

>  <distance_score>  (655) 
1.761177

>  <inspiration_score>  (655) 
None

$$$$
P499197
     RDKit          3D

 25 27  0  0  0  0  0  0  0  0999 V2000
    4.4259   11.4063   31.0771 C   0  0  0  0  0  0  0  0  0  0  0  0
    4.1014    9.9320   30.8506 C   0  0  0  0  0  0  0  0  0  0  0  0
    3.7692    9.2650   32.1920 C   0  0  0  0  0  0  0  0  0  0  0  0
    5.1638    9.1262   30.0412 C   0  0  0  0  0  0  0  0  0  0  0  0
    4.2941    9.2936   28.7500 C   0  0  2  0  0  0  0  0  0  0  0  0
    4.8248   10.4036   27.7952 C   0  0  0  0  0  0  0  0  0  0  0  0
    4.4243   11.5020   27.8836 O   0  0  0  0  0  0  0  0  0  0  0  0
    5.9495    9.8081   26.8936 N   0  0  0  0  0  0  0  0  0  0  0  0
    6.8359   10.4341   26.0249 C   0  0  0  0  0  0  0  0  0  0  0  0
    7.6748    9.7447   25.1408 C   0  0  0  0  0  0  0  0  0  0  0  0
    8.6078   10.3827   24.3293 C   0  0  0  0  0  0  0  0  0  0  0  0
    8.6391   11.7562   24.3684 C   0  0  0  0  0  0  0  0  0  0  0  0
    7.8930   12.4519   25.3221 C   0  0  0  0  0  0  0  0  0  0  0  0
    6.9667   11.7942   26.1159 C   0  0  0  0  0  0  0  0  0  0  0  0
    8.0240   13.9293   25.4919 C   0  0  0  0  0  0  0  0  0  0  0  0
    7.1735   14.5877   24.4421 C   0  0  0  0  0  0  0  0  0  0  0  0
    7.5361   14.1540   23.0325 C   0  0  0  0  0  0  0  0  0  0  0  0
    8.9274   13.5672   22.7673 C   0  0  0  0  0  0  0  0  0  0  0  0
    9.6474   13.9980   21.8735 O   0  0  0  0  0  0  0  0  0  0  0  0
    9.3561   12.4386   23.4001 N   0  0  0  0  0  0  0  0  0  0  0  0
    3.0888    9.5412   29.7251 C   0  0  2  0  0  0  0  0  0  0  0  0
    1.8640   10.3798   29.4794 C   0  0  0  0  0  0  0  0  0  0  0  0
    1.1363   10.4467   30.6205 F   0  0  0  0  0  0  0  0  0  0  0  0
    1.0980    9.7745   28.5418 F   0  0  0  0  0  0  0  0  0  0  0  0
    2.1019   11.6368   29.0743 F   0  0  0  0  0  0  0  0  0  0  0  0
  1  2  1  0
  2  3  1  0
  2  4  1  0
  4  5  1  0
  5  6  1  6
  6  7  2  0
  6  8  1  0
  8  9  1  0
  9 10  2  0
 10 11  1  0
 11 12  2  0
 12 13  1  0
 13 14  2  0
 13 15  1  0
 15 16  1  0
 16 17  1  0
 17 18  1  0
 18 19  2  0
 18 20  1  0
  5 21  1  0
 21 22  1  6
 22 23  1  0
 22 24  1  0
 22 25  1  0
 21  2  1  0
 14  9  1  0
 20 12  1  0
M  END
>  <energy_score>  (656) 
-24.849974

>  <inchikey>  (656) 
None

>  <smiles>  (656) 
None

>  <ref_pdb>  (656) 
A0310a

>  <alias>  (656) 
None

>  <HIPPO Pose ID>  (656) 
499197

>  <name>  (656) 
P499197

>  <HIPPO Compound ID>  (656) 
301763

>  <ref_mols>  (656) 
A1445a,A0310a

>  <distance_score>  (656) 
1.842094

>  <inspiration_score>  (656) 
None

$$$$
P499198
     RDKit          3D

 25 26  0  0  0  0  0  0  0  0999 V2000
    3.3767   11.6397   30.4399 C   0  0  0  0  0  0  0  0  0  0  0  0
    2.8466   10.7316   29.3016 C   0  0  2  0  0  0  0  0  0  0  0  0
    1.5480   10.1271   29.8009 C   0  0  0  0  0  0  0  0  0  0  0  0
    1.7096    9.4702   30.9633 F   0  0  0  0  0  0  0  0  0  0  0  0
    0.9975    9.2823   28.9078 F   0  0  0  0  0  0  0  0  0  0  0  0
    0.6410   11.1116   30.0034 F   0  0  0  0  0  0  0  0  0  0  0  0
    3.9518    9.7515   28.6754 C   0  0  0  0  0  0  0  0  0  0  0  0
    3.3119    8.6378   27.8310 C   0  0  0  0  0  0  0  0  0  0  0  0
    4.8034    9.0920   29.7679 C   0  0  0  0  0  0  0  0  0  0  0  0
    4.8743   10.7046   27.8327 C   0  0  0  0  0  0  0  0  0  0  0  0
    4.7267   11.8532   28.0086 O   0  0  0  0  0  0  0  0  0  0  0  0
    5.9189    9.9435   26.9628 N   0  0  0  0  0  0  0  0  0  0  0  0
    6.8920   10.4248   26.0954 C   0  0  0  0  0  0  0  0  0  0  0  0
    7.6314    9.7193   25.1550 C   0  0  0  0  0  0  0  0  0  0  0  0
    8.5631   10.3405   24.3184 C   0  0  0  0  0  0  0  0  0  0  0  0
    8.6837   11.7179   24.3762 C   0  0  0  0  0  0  0  0  0  0  0  0
    8.0362   12.4152   25.3980 C   0  0  0  0  0  0  0  0  0  0  0  0
    7.1445   11.7671   26.2249 C   0  0  0  0  0  0  0  0  0  0  0  0
    8.1733   13.8914   25.6171 C   0  0  0  0  0  0  0  0  0  0  0  0
    7.2443   14.5790   24.6459 C   0  0  0  0  0  0  0  0  0  0  0  0
    7.5203   14.1266   23.2246 C   0  0  0  0  0  0  0  0  0  0  0  0
    8.9736   13.7091   22.9944 C   0  0  0  0  0  0  0  0  0  0  0  0
    9.7682   14.4962   22.4937 O   0  0  0  0  0  0  0  0  0  0  0  0
    9.3639   12.4325   23.3748 N   0  0  0  0  0  0  0  0  0  0  0  0
   10.6795   11.9693   22.9776 C   0  0  0  0  0  0  0  0  0  0  0  0
  2  1  1  1
  2  3  1  0
  3  4  1  0
  3  5  1  0
  3  6  1  0
  2  7  1  0
  7  8  1  0
  7  9  1  0
  7 10  1  0
 10 11  2  0
 10 12  1  0
 12 13  1  0
 13 14  2  0
 14 15  1  0
 15 16  2  0
 16 17  1  0
 17 18  2  0
 17 19  1  0
 19 20  1  0
 20 21  1  0
 21 22  1  0
 22 23  2  0
 22 24  1  0
 24 25  1  0
 18 13  1  0
 24 16  1  0
M  END
>  <energy_score>  (657) 
-18.278616

>  <inchikey>  (657) 
None

>  <smiles>  (657) 
None

>  <ref_pdb>  (657) 
A0310a

>  <alias>  (657) 
None

>  <HIPPO Pose ID>  (657) 
499198

>  <name>  (657) 
P499198

>  <HIPPO Compound ID>  (657) 
301775

>  <ref_mols>  (657) 
A1445a,A0310a

>  <distance_score>  (657) 
1.62176

>  <inspiration_score>  (657) 
None

$$$$
P499202
     RDKit          3D

 26 29  0  0  0  0  0  0  0  0999 V2000
   10.4654    9.7520   22.1993 O   0  0  0  0  0  0  0  0  0  0  0  0
   10.0641   10.6437   22.9463 C   0  0  0  0  0  0  0  0  0  0  0  0
   10.5292   12.0672   22.8355 C   0  0  0  0  0  0  0  0  0  0  0  0
   10.2888   12.9846   24.0032 C   0  0  0  0  0  0  0  0  0  0  0  0
    8.8191   13.3278   24.1420 C   0  0  0  0  0  0  0  0  0  0  0  0
    8.0373   12.2664   24.8446 C   0  0  0  0  0  0  0  0  0  0  0  0
    6.9908   12.6906   25.7018 C   0  0  0  0  0  0  0  0  0  0  0  0
    6.2417   11.7660   26.4178 C   0  0  0  0  0  0  0  0  0  0  0  0
    5.2297   12.1349   27.2843 N   0  0  0  0  0  0  0  0  0  0  0  0
    4.5109   11.3238   28.4014 C   0  0  0  0  0  0  0  0  0  0  0  0
    4.6125   10.1996   28.7055 O   0  0  0  0  0  0  0  0  0  0  0  0
    3.4832   12.2294   29.0524 C   0  0  1  0  0  0  0  0  0  0  0  0
    2.8390   11.5175   30.2578 C   0  0  2  0  0  0  0  0  0  0  0  0
    1.5168   10.8789   29.9584 C   0  0  0  0  0  0  0  0  0  0  0  0
    0.9331   10.4520   31.0961 F   0  0  0  0  0  0  0  0  0  0  0  0
    1.6478    9.8162   29.1372 F   0  0  0  0  0  0  0  0  0  0  0  0
    0.6761   11.7410   29.3517 F   0  0  0  0  0  0  0  0  0  0  0  0
    2.8363   12.6286   31.2939 C   0  0  2  0  0  0  0  0  0  0  0  0
    2.0323   13.8751   30.9213 C   0  0  0  0  0  0  0  0  0  0  0  0
    2.9057   14.5216   29.8428 C   0  0  0  0  0  0  0  0  0  0  0  0
    4.0365   13.5021   29.7095 C   0  0  1  0  0  0  0  0  0  0  0  0
    4.1907   13.1157   31.0950 O   0  0  0  0  0  0  0  0  0  0  0  0
    6.4877   10.4205   26.2493 C   0  0  0  0  0  0  0  0  0  0  0  0
    7.4654   10.0123   25.3689 C   0  0  0  0  0  0  0  0  0  0  0  0
    8.2538   10.9008   24.6702 C   0  0  0  0  0  0  0  0  0  0  0  0
    9.1418   10.2484   23.8283 N   0  0  0  0  0  0  0  0  0  0  0  0
  1  2  2  0
  2  3  1  0
  3  4  1  0
  4  5  1  0
  5  6  1  0
  6  7  2  0
  7  8  1  0
  8  9  1  0
  9 10  1  0
 10 11  2  0
 12 10  1  1
 12 13  1  0
 13 14  1  6
 14 15  1  0
 14 16  1  0
 14 17  1  0
 13 18  1  0
 18 19  1  6
 19 20  1  0
 21 20  1  1
 21 22  1  0
  8 23  2  0
 23 24  1  0
 24 25  2  0
 25 26  1  0
 26  2  1  0
 25  6  1  0
 21 12  1  0
 22 18  1  0
M  END
>  <energy_score>  (658) 
-24.03834

>  <inchikey>  (658) 
None

>  <smiles>  (658) 
None

>  <ref_pdb>  (658) 
A0310a

>  <alias>  (658) 
None

>  <HIPPO Pose ID>  (658) 
499202

>  <name>  (658) 
P499202

>  <HIPPO Compound ID>  (658) 
301785

>  <ref_mols>  (658) 
A1445a,A0310a

>  <distance_score>  (658) 
1.60855

>  <inspiration_score>  (658) 
None

$$$$
P499209
     RDKit          3D

 26 28  0  0  0  0  0  0  0  0999 V2000
   10.5127    9.9374   22.1779 O   0  0  0  0  0  0  0  0  0  0  0  0
   10.1095   10.7839   22.9672 C   0  0  0  0  0  0  0  0  0  0  0  0
   10.6402   12.1721   23.0949 C   0  0  0  0  0  0  0  0  0  0  0  0
    9.5542   13.2178   22.9785 C   0  0  0  0  0  0  0  0  0  0  0  0
    8.8638   13.4865   24.2979 C   0  0  0  0  0  0  0  0  0  0  0  0
    8.0604   12.3553   24.8753 C   0  0  0  0  0  0  0  0  0  0  0  0
    7.0090   12.7310   25.7520 C   0  0  0  0  0  0  0  0  0  0  0  0
    6.3116   11.7704   26.4664 C   0  0  0  0  0  0  0  0  0  0  0  0
    5.2587   12.0416   27.3094 N   0  0  0  0  0  0  0  0  0  0  0  0
    4.7354   11.2680   28.5469 C   0  0  0  0  0  0  0  0  0  0  0  0
    5.1636   10.3254   29.0863 O   0  0  0  0  0  0  0  0  0  0  0  0
    3.4076   11.8732   28.9665 C   0  0  2  0  0  0  0  0  0  0  0  0
    3.4515   13.3339   29.3908 C   0  0  0  0  0  0  0  0  0  0  0  0
    3.5894   13.3477   31.1569 S   0  0  0  0  0  0  0  0  0  0  0  0
    2.4637   14.0758   31.6970 O   0  0  0  0  0  0  0  0  0  0  0  0
    4.9601   13.6634   31.4958 O   0  0  0  0  0  0  0  0  0  0  0  0
    3.3248   11.6197   31.4249 C   0  0  0  0  0  0  0  0  0  0  0  0
    2.8268   11.0201   30.1196 C   0  0  1  0  0  0  0  0  0  0  0  0
    1.3313   10.9193   30.0110 C   0  0  0  0  0  0  0  0  0  0  0  0
    0.8015   10.3730   31.1172 F   0  0  0  0  0  0  0  0  0  0  0  0
    1.0117   10.1280   28.9588 F   0  0  0  0  0  0  0  0  0  0  0  0
    0.7709   12.1199   29.7992 F   0  0  0  0  0  0  0  0  0  0  0  0
    6.6025   10.4339   26.2920 C   0  0  0  0  0  0  0  0  0  0  0  0
    7.5484   10.0629   25.3702 C   0  0  0  0  0  0  0  0  0  0  0  0
    8.2937   10.9912   24.6694 C   0  0  0  0  0  0  0  0  0  0  0  0
    9.1556   10.3558   23.7945 N   0  0  0  0  0  0  0  0  0  0  0  0
  1  2  2  0
  2  3  1  0
  3  4  1  0
  4  5  1  0
  5  6  1  0
  6  7  2  0
  7  8  1  0
  8  9  1  0
  9 10  1  0
 10 11  2  0
 12 10  1  1
 12 13  1  0
 13 14  1  0
 14 15  2  0
 14 16  2  0
 14 17  1  0
 17 18  1  0
 18 19  1  1
 19 20  1  0
 19 21  1  0
 19 22  1  0
  8 23  2  0
 23 24  1  0
 24 25  2  0
 25 26  1  0
 26  2  1  0
 25  6  1  0
 18 12  1  0
M  END
>  <energy_score>  (659) 
-34.553161

>  <inchikey>  (659) 
None

>  <smiles>  (659) 
None

>  <ref_pdb>  (659) 
A0310a

>  <alias>  (659) 
None

>  <HIPPO Pose ID>  (659) 
499209

>  <name>  (659) 
P499209

>  <HIPPO Compound ID>  (659) 
301788

>  <ref_mols>  (659) 
A1445a,A0310a

>  <distance_score>  (659) 
1.662524

>  <inspiration_score>  (659) 
None

$$$$
P499211
     RDKit          3D

 26 28  0  0  0  0  0  0  0  0999 V2000
   10.4301    9.8168   22.1993 O   0  0  0  0  0  0  0  0  0  0  0  0
   10.0559   10.7129   22.9550 C   0  0  0  0  0  0  0  0  0  0  0  0
   10.5184   12.1340   22.8211 C   0  0  0  0  0  0  0  0  0  0  0  0
   10.3505   13.0378   24.0134 C   0  0  0  0  0  0  0  0  0  0  0  0
    8.8992   13.4306   24.2113 C   0  0  0  0  0  0  0  0  0  0  0  0
    8.0795   12.3646   24.8720 C   0  0  0  0  0  0  0  0  0  0  0  0
    7.0032   12.7958   25.6891 C   0  0  0  0  0  0  0  0  0  0  0  0
    6.2070   11.8770   26.3613 C   0  0  0  0  0  0  0  0  0  0  0  0
    5.1078   12.2484   27.1156 N   0  0  0  0  0  0  0  0  0  0  0  0
    4.1462   11.4041   27.9524 C   0  0  0  0  0  0  0  0  0  0  0  0
    4.1647   10.2708   28.2070 O   0  0  0  0  0  0  0  0  0  0  0  0
    2.9678   12.1539   28.4167 C   0  0  2  0  0  0  0  0  0  0  0  0
    2.8276   13.2734   29.3939 C   0  0  0  0  0  0  0  0  0  0  0  0
    2.6511   11.8410   29.8891 C   0  0  0  0  0  0  0  0  0  0  0  0
    3.6582   11.3631   30.8587 C   0  0  0  0  0  0  0  0  0  0  0  0
    4.9055   11.7949   30.5433 F   0  0  0  0  0  0  0  0  0  0  0  0
    3.6976   10.0202   30.9682 F   0  0  0  0  0  0  0  0  0  0  0  0
    3.3862   11.8672   32.0870 F   0  0  0  0  0  0  0  0  0  0  0  0
    1.3894   11.1088   30.0784 C   0  0  0  0  0  0  0  0  0  0  0  0
    1.0386   11.0172   31.3752 F   0  0  0  0  0  0  0  0  0  0  0  0
    1.4538    9.8573   29.5672 F   0  0  0  0  0  0  0  0  0  0  0  0
    0.3862   11.7398   29.4232 F   0  0  0  0  0  0  0  0  0  0  0  0
    6.4708   10.5272   26.2275 C   0  0  0  0  0  0  0  0  0  0  0  0
    7.4822   10.1078   25.3952 C   0  0  0  0  0  0  0  0  0  0  0  0
    8.2845   10.9945   24.7054 C   0  0  0  0  0  0  0  0  0  0  0  0
    9.1667   10.3267   23.8701 N   0  0  0  0  0  0  0  0  0  0  0  0
  1  2  2  0
  2  3  1  0
  3  4  1  0
  4  5  1  0
  5  6  1  0
  6  7  2  0
  7  8  1  0
  8  9  1  0
  9 10  1  0
 10 11  2  0
 12 10  1  1
 12 13  1  0
 13 14  1  0
 14 15  1  0
 15 16  1  0
 15 17  1  0
 15 18  1  0
 14 19  1  0
 19 20  1  0
 19 21  1  0
 19 22  1  0
  8 23  2  0
 23 24  1  0
 24 25  2  0
 25 26  1  0
 26  2  1  0
 25  6  1  0
 14 12  1  0
M  END
>  <energy_score>  (660) 
-38.009412

>  <inchikey>  (660) 
None

>  <smiles>  (660) 
None

>  <ref_pdb>  (660) 
A0310a

>  <alias>  (660) 
None

>  <HIPPO Pose ID>  (660) 
499211

>  <name>  (660) 
P499211

>  <HIPPO Compound ID>  (660) 
301789

>  <ref_mols>  (660) 
A1445a,A0310a

>  <distance_score>  (660) 
1.729529

>  <inspiration_score>  (660) 
None

$$$$
P499214
     RDKit          3D

 26 29  0  0  0  0  0  0  0  0999 V2000
   10.5067    9.7436   22.2534 O   0  0  0  0  0  0  0  0  0  0  0  0
   10.0564   10.6430   22.9598 C   0  0  0  0  0  0  0  0  0  0  0  0
   10.5254   12.0649   22.8479 C   0  0  0  0  0  0  0  0  0  0  0  0
   10.2513   12.9985   23.9944 C   0  0  0  0  0  0  0  0  0  0  0  0
    8.7752   13.3255   24.0972 C   0  0  0  0  0  0  0  0  0  0  0  0
    8.0088   12.2737   24.8293 C   0  0  0  0  0  0  0  0  0  0  0  0
    6.9940   12.7036   25.7182 C   0  0  0  0  0  0  0  0  0  0  0  0
    6.2770   11.7846   26.4740 C   0  0  0  0  0  0  0  0  0  0  0  0
    5.3270   12.1768   27.3969 N   0  0  0  0  0  0  0  0  0  0  0  0
    4.6401   11.3769   28.5407 C   0  0  0  0  0  0  0  0  0  0  0  0
    4.8299   10.2892   28.9236 O   0  0  0  0  0  0  0  0  0  0  0  0
    3.5112   12.2405   29.0838 C   0  0  2  0  0  0  0  0  0  0  0  0
    3.9573   13.5906   29.7023 C   0  0  1  0  0  0  0  0  0  0  0  0
    2.7184   14.5028   29.7626 C   0  0  0  0  0  0  0  0  0  0  0  0
    1.8729   13.8515   30.8665 C   0  0  0  0  0  0  0  0  0  0  0  0
    2.7425   12.6677   31.3222 C   0  0  2  0  0  0  0  0  0  0  0  0
    4.1482   13.2551   31.1821 C   0  0  0  0  0  0  0  0  0  0  0  0
    2.8171   11.5377   30.2772 C   0  0  1  0  0  0  0  0  0  0  0  0
    1.5274   10.8487   29.9049 C   0  0  0  0  0  0  0  0  0  0  0  0
    0.8965   10.4087   31.0135 F   0  0  0  0  0  0  0  0  0  0  0  0
    1.7424    9.7810   29.1065 F   0  0  0  0  0  0  0  0  0  0  0  0
    0.6890   11.6691   29.2407 F   0  0  0  0  0  0  0  0  0  0  0  0
    6.5066   10.4370   26.2995 C   0  0  0  0  0  0  0  0  0  0  0  0
    7.4454   10.0232   25.3784 C   0  0  0  0  0  0  0  0  0  0  0  0
    8.2166   10.9074   24.6540 C   0  0  0  0  0  0  0  0  0  0  0  0
    9.0950   10.2554   23.8026 N   0  0  0  0  0  0  0  0  0  0  0  0
  1  2  2  0
  2  3  1  0
  3  4  1  0
  4  5  1  0
  5  6  1  0
  6  7  2  0
  7  8  1  0
  8  9  1  0
  9 10  1  0
 10 11  2  0
 12 10  1  1
 12 13  1  0
 13 14  1  1
 14 15  1  0
 16 15  1  6
 16 17  1  0
 16 18  1  0
 18 19  1  6
 19 20  1  0
 19 21  1  0
 19 22  1  0
  8 23  2  0
 23 24  1  0
 24 25  2  0
 25 26  1  0
 26  2  1  0
 25  6  1  0
 18 12  1  0
 17 13  1  0
M  END
>  <energy_score>  (661) 
-12.546104

>  <inchikey>  (661) 
None

>  <smiles>  (661) 
None

>  <ref_pdb>  (661) 
A0310a

>  <alias>  (661) 
None

>  <HIPPO Pose ID>  (661) 
499214

>  <name>  (661) 
P499214

>  <HIPPO Compound ID>  (661) 
301790

>  <ref_mols>  (661) 
A1445a,A0310a

>  <distance_score>  (661) 
1.612032

>  <inspiration_score>  (661) 
None

$$$$
P499217
     RDKit          3D

 26 28  0  0  0  0  0  0  0  0999 V2000
    8.4292    9.5272   24.4107 C   0  0  0  0  0  0  0  0  0  0  0  0
    7.7771   10.7375   25.0114 C   0  0  0  0  0  0  0  0  0  0  0  0
    6.9322   10.5882   26.1303 C   0  0  0  0  0  0  0  0  0  0  0  0
    6.2437   11.6708   26.6715 C   0  0  0  0  0  0  0  0  0  0  0  0
    5.4461   11.5932   27.8049 N   0  0  0  0  0  0  0  0  0  0  0  0
    5.2412   10.4328   28.8170 C   0  0  0  0  0  0  0  0  0  0  0  0
    5.6539    9.3368   28.8084 O   0  0  0  0  0  0  0  0  0  0  0  0
    4.2998   10.9331   29.9675 C   0  0  1  0  0  0  0  0  0  0  0  0
    4.6440   12.2750   30.6618 C   0  0  0  0  0  0  0  0  0  0  0  0
    3.1570   12.7032   30.5677 C   0  0  0  0  0  0  0  0  0  0  0  0
    2.9521   14.0697   29.9113 C   0  0  0  0  0  0  0  0  0  0  0  0
    2.4647   12.6505   31.9306 C   0  0  0  0  0  0  0  0  0  0  0  0
    2.9154   11.5141   29.5736 C   0  0  2  0  0  0  0  0  0  0  0  0
    1.7097   10.6258   29.7458 C   0  0  0  0  0  0  0  0  0  0  0  0
    1.5824   10.1746   31.0090 F   0  0  0  0  0  0  0  0  0  0  0  0
    1.7752    9.5605   28.9194 F   0  0  0  0  0  0  0  0  0  0  0  0
    0.5970   11.3213   29.4252 F   0  0  0  0  0  0  0  0  0  0  0  0
    6.3443   12.9118   26.0671 C   0  0  0  0  0  0  0  0  0  0  0  0
    7.1800   13.0796   24.9737 C   0  0  0  0  0  0  0  0  0  0  0  0
    7.9281   12.0097   24.4507 C   0  0  0  0  0  0  0  0  0  0  0  0
    8.8168   12.2551   23.3810 N   0  0  0  0  0  0  0  0  0  0  0  0
   10.1178   11.6591   23.2844 C   0  0  0  0  0  0  0  0  0  0  0  0
   11.0145   12.8319   22.9907 C   0  0  0  0  0  0  0  0  0  0  0  0
   10.1463   13.7222   22.1298 C   0  0  0  0  0  0  0  0  0  0  0  0
    8.7566   13.3947   22.5872 C   0  0  0  0  0  0  0  0  0  0  0  0
    7.7647   14.0238   22.2541 O   0  0  0  0  0  0  0  0  0  0  0  0
  1  2  1  0
  2  3  2  0
  3  4  1  0
  4  5  1  0
  5  6  1  0
  6  7  2  0
  8  6  1  6
  8  9  1  0
  9 10  1  0
 10 11  1  0
 10 12  1  0
 10 13  1  0
 13 14  1  1
 14 15  1  0
 14 16  1  0
 14 17  1  0
  4 18  2  0
 18 19  1  0
 19 20  2  0
 20 21  1  0
 21 22  1  0
 22 23  1  0
 23 24  1  0
 24 25  1  0
 25 26  2  0
 20  2  1  0
 25 21  1  0
 13  8  1  0
M  END
>  <energy_score>  (662) 
-47.318509

>  <inchikey>  (662) 
None

>  <smiles>  (662) 
None

>  <ref_pdb>  (662) 
A0310a

>  <alias>  (662) 
None

>  <HIPPO Pose ID>  (662) 
499217

>  <name>  (662) 
P499217

>  <HIPPO Compound ID>  (662) 
301791

>  <ref_mols>  (662) 
A1445a,A0310a

>  <distance_score>  (662) 
1.988911

>  <inspiration_score>  (662) 
None

$$$$
P499222
     RDKit          3D

 26 29  0  0  0  0  0  0  0  0999 V2000
    8.0257   14.4373   24.9672 C   0  0  0  0  0  0  0  0  0  0  0  0
    8.1405   12.9541   25.0642 C   0  0  0  0  0  0  0  0  0  0  0  0
    7.0994   12.2939   25.7528 C   0  0  0  0  0  0  0  0  0  0  0  0
    7.0138   10.9122   25.7787 C   0  0  0  0  0  0  0  0  0  0  0  0
    6.0176   10.2703   26.5167 N   0  0  0  0  0  0  0  0  0  0  0  0
    4.9212   10.8538   27.4583 C   0  0  0  0  0  0  0  0  0  0  0  0
    4.6385   11.9671   27.6972 O   0  0  0  0  0  0  0  0  0  0  0  0
    4.1866    9.6840   28.1846 C   0  0  1  0  0  0  0  0  0  0  0  0
    4.9950    8.8722   29.2553 C   0  0  1  0  0  0  0  0  0  0  0  0
    5.5397    9.8901   30.2567 C   0  0  0  0  0  0  0  0  0  0  0  0
    4.2787   10.7447   30.4591 C   0  0  0  0  0  0  0  0  0  0  0  0
    3.3369   10.0078   29.4963 C   0  0  1  0  0  0  0  0  0  0  0  0
    1.9092   10.4430   29.4804 C   0  0  0  0  0  0  0  0  0  0  0  0
    1.4166   10.5102   30.7385 F   0  0  0  0  0  0  0  0  0  0  0  0
    1.1601    9.5488   28.7932 F   0  0  0  0  0  0  0  0  0  0  0  0
    1.7417   11.6449   28.8953 F   0  0  0  0  0  0  0  0  0  0  0  0
    3.6004    8.4977   29.8247 C   0  0  0  0  0  0  0  0  0  0  0  0
    7.9421   10.1893   25.0442 C   0  0  0  0  0  0  0  0  0  0  0  0
    8.9946   10.8388   24.3731 C   0  0  0  0  0  0  0  0  0  0  0  0
    9.1655   12.2309   24.4373 C   0  0  0  0  0  0  0  0  0  0  0  0
   10.3297   12.8406   23.8715 N   0  0  0  0  0  0  0  0  0  0  0  0
   10.8342   12.3974   22.6056 C   0  0  0  0  0  0  0  0  0  0  0  0
   12.1948   13.0464   22.5005 C   0  0  0  0  0  0  0  0  0  0  0  0
   11.9733   14.3849   23.1353 C   0  0  0  0  0  0  0  0  0  0  0  0
   11.0037   14.0296   24.2338 C   0  0  0  0  0  0  0  0  0  0  0  0
   10.9019   14.7268   25.2322 O   0  0  0  0  0  0  0  0  0  0  0  0
  1  2  1  0
  2  3  2  0
  3  4  1  0
  4  5  1  0
  5  6  1  0
  6  7  2  0
  8  6  1  1
  8  9  1  0
  9 10  1  1
 10 11  1  0
 11 12  1  0
 12 13  1  6
 13 14  1  0
 13 15  1  0
 13 16  1  0
 12 17  1  0
  4 18  2  0
 18 19  1  0
 19 20  2  0
 20 21  1  0
 21 22  1  0
 22 23  1  0
 23 24  1  0
 24 25  1  0
 25 26  2  0
 20  2  1  0
 25 21  1  0
 12  8  1  0
 17  9  1  0
M  END
>  <energy_score>  (663) 
-44.17495

>  <inchikey>  (663) 
None

>  <smiles>  (663) 
None

>  <ref_pdb>  (663) 
A0310a

>  <alias>  (663) 
None

>  <HIPPO Pose ID>  (663) 
499222

>  <name>  (663) 
P499222

>  <HIPPO Compound ID>  (663) 
301801

>  <ref_mols>  (663) 
A1445a,A0310a

>  <distance_score>  (663) 
1.411263

>  <inspiration_score>  (663) 
None

$$$$
P499224
     RDKit          3D

 26 28  0  0  0  0  0  0  0  0999 V2000
    8.8277    9.5118   24.0801 C   0  0  0  0  0  0  0  0  0  0  0  0
    8.1006   10.6505   24.7385 C   0  0  0  0  0  0  0  0  0  0  0  0
    7.2037   10.3674   25.7668 C   0  0  0  0  0  0  0  0  0  0  0  0
    6.4451   11.3456   26.4006 C   0  0  0  0  0  0  0  0  0  0  0  0
    5.5878   10.9455   27.4078 N   0  0  0  0  0  0  0  0  0  0  0  0
    4.6939   11.7701   28.3415 C   0  0  0  0  0  0  0  0  0  0  0  0
    4.5922   12.9221   28.4654 O   0  0  0  0  0  0  0  0  0  0  0  0
    3.8883   10.8747   29.1992 C   0  0  1  0  0  0  0  0  0  0  0  0
    3.9150   11.1056   30.6943 C   0  0  2  0  0  0  0  0  0  0  0  0
    4.0040    9.9075   31.5274 N   0  0  0  0  0  0  0  0  0  0  0  0
    3.1953    9.8146   32.4520 O   0  0  0  0  0  0  0  0  0  0  0  0
    4.9094    9.1132   31.2495 O   0  0  0  0  0  0  0  0  0  0  0  0
    2.6691   11.4146   29.9084 C   0  0  2  0  0  0  0  0  0  0  0  0
    1.4380   10.6123   29.9562 C   0  0  0  0  0  0  0  0  0  0  0  0
    0.8156   10.7645   31.1374 F   0  0  0  0  0  0  0  0  0  0  0  0
    1.6803    9.3004   29.7550 F   0  0  0  0  0  0  0  0  0  0  0  0
    0.6061   11.0251   28.9751 F   0  0  0  0  0  0  0  0  0  0  0  0
    6.5446   12.6580   25.9955 C   0  0  0  0  0  0  0  0  0  0  0  0
    7.4006   12.9675   24.9488 C   0  0  0  0  0  0  0  0  0  0  0  0
    8.1894   11.9767   24.3244 C   0  0  0  0  0  0  0  0  0  0  0  0
    9.0487   12.3537   23.2844 N   0  0  0  0  0  0  0  0  0  0  0  0
   10.3893   11.8668   23.1616 C   0  0  0  0  0  0  0  0  0  0  0  0
   11.1685   13.0888   22.7547 C   0  0  0  0  0  0  0  0  0  0  0  0
   10.1803   13.8770   21.9231 C   0  0  0  0  0  0  0  0  0  0  0  0
    8.8530   13.4751   22.4910 C   0  0  0  0  0  0  0  0  0  0  0  0
    7.8004   14.0302   22.2163 O   0  0  0  0  0  0  0  0  0  0  0  0
  1  2  1  0
  2  3  2  0
  3  4  1  0
  4  5  1  0
  5  6  1  0
  6  7  2  0
  8  6  1  6
  8  9  1  0
  9 10  1  1
 10 11  2  0
 10 12  1  0
  9 13  1  0
 13 14  1  1
 14 15  1  0
 14 16  1  0
 14 17  1  0
  4 18  2  0
 18 19  1  0
 19 20  2  0
 20 21  1  0
 21 22  1  0
 22 23  1  0
 23 24  1  0
 24 25  1  0
 25 26  2  0
 20  2  1  0
 25 21  1  0
 13  8  1  0
M  CHG  2  10   1  12  -1
M  END
>  <energy_score>  (664) 
-65.910251

>  <inchikey>  (664) 
None

>  <smiles>  (664) 
None

>  <ref_pdb>  (664) 
A0310a

>  <alias>  (664) 
None

>  <HIPPO Pose ID>  (664) 
499224

>  <name>  (664) 
P499224

>  <HIPPO Compound ID>  (664) 
301803

>  <ref_mols>  (664) 
A1445a,A0310a

>  <distance_score>  (664) 
1.999089

>  <inspiration_score>  (664) 
None

$$$$
P499226
     RDKit          3D

 26 28  0  0  0  0  0  0  0  0999 V2000
    8.7451   14.5205   25.3287 C   0  0  0  0  0  0  0  0  0  0  0  0
    8.2834   13.1112   25.2074 C   0  0  0  0  0  0  0  0  0  0  0  0
    7.2785   12.7412   26.1179 C   0  0  0  0  0  0  0  0  0  0  0  0
    6.7646   11.4596   26.1463 C   0  0  0  0  0  0  0  0  0  0  0  0
    5.6085   11.2481   26.8806 N   0  0  0  0  0  0  0  0  0  0  0  0
    5.0713   11.9722   28.1579 C   0  0  0  0  0  0  0  0  0  0  0  0
    5.5630   12.8011   28.8227 O   0  0  0  0  0  0  0  0  0  0  0  0
    3.6274   11.4856   28.4000 C   0  0  2  0  0  0  0  0  0  0  0  0
    2.7225   12.5104   27.6729 C   0  0  0  0  0  0  0  0  0  0  0  0
    2.5820   13.8443   28.4090 C   0  0  0  0  0  0  0  0  0  0  0  0
    2.1892   13.6768   29.8690 C   0  0  0  0  0  0  0  0  0  0  0  0
    3.0936   12.6883   30.5984 C   0  0  0  0  0  0  0  0  0  0  0  0
    3.2400   11.3356   29.8823 C   0  0  1  0  0  0  0  0  0  0  0  0
    1.9469   10.5235   30.0096 C   0  0  0  0  0  0  0  0  0  0  0  0
    1.6140   10.3384   31.3041 F   0  0  0  0  0  0  0  0  0  0  0  0
    2.0846    9.3006   29.4489 F   0  0  0  0  0  0  0  0  0  0  0  0
    0.8997   11.1132   29.3978 F   0  0  0  0  0  0  0  0  0  0  0  0
    7.3100   10.5060   25.3064 C   0  0  0  0  0  0  0  0  0  0  0  0
    8.3398   10.8564   24.4129 C   0  0  0  0  0  0  0  0  0  0  0  0
    8.7998   12.1799   24.2975 C   0  0  0  0  0  0  0  0  0  0  0  0
    9.8174   12.4935   23.3550 N   0  0  0  0  0  0  0  0  0  0  0  0
   10.9455   11.6437   23.2164 C   0  0  0  0  0  0  0  0  0  0  0  0
   12.0812   12.6043   23.5217 C   0  0  0  0  0  0  0  0  0  0  0  0
   11.6911   13.7800   22.6614 C   0  0  0  0  0  0  0  0  0  0  0  0
   10.1967   13.7400   22.8295 C   0  0  0  0  0  0  0  0  0  0  0  0
    9.4864   14.6752   22.5254 O   0  0  0  0  0  0  0  0  0  0  0  0
  1  2  1  0
  2  3  2  0
  3  4  1  0
  4  5  1  0
  5  6  1  0
  6  7  2  0
  8  6  1  1
  8  9  1  0
  9 10  1  0
 10 11  1  0
 11 12  1  0
 12 13  1  0
 13 14  1  6
 14 15  1  0
 14 16  1  0
 14 17  1  0
  4 18  2  0
 18 19  1  0
 19 20  2  0
 20 21  1  0
 21 22  1  0
 22 23  1  0
 23 24  1  0
 24 25  1  0
 25 26  2  0
 20  2  1  0
 25 21  1  0
 13  8  1  0
M  END
>  <energy_score>  (665) 
-29.697596

>  <inchikey>  (665) 
None

>  <smiles>  (665) 
None

>  <ref_pdb>  (665) 
A0310a

>  <alias>  (665) 
None

>  <HIPPO Pose ID>  (665) 
499226

>  <name>  (665) 
P499226

>  <HIPPO Compound ID>  (665) 
301807

>  <ref_mols>  (665) 
A1445a,A0310a

>  <distance_score>  (665) 
1.492764

>  <inspiration_score>  (665) 
None

$$$$
P499227
     RDKit          3D

 26 28  0  0  0  0  0  0  0  0999 V2000
    7.5785   14.5296   24.2589 C   0  0  0  0  0  0  0  0  0  0  0  0
    7.6282   13.0885   24.6134 C   0  0  0  0  0  0  0  0  0  0  0  0
    6.6084   12.6773   25.5107 C   0  0  0  0  0  0  0  0  0  0  0  0
    6.5870   11.4078   26.0434 C   0  0  0  0  0  0  0  0  0  0  0  0
    5.6003   11.0783   26.9656 N   0  0  0  0  0  0  0  0  0  0  0  0
    5.6476   10.1348   28.2021 C   0  0  0  0  0  0  0  0  0  0  0  0
    6.5439    9.5525   28.6769 O   0  0  0  0  0  0  0  0  0  0  0  0
    4.2205    9.9420   28.7368 C   0  0  0  0  0  0  0  0  0  0  0  0
    3.3698   11.1757   29.0672 C   0  0  2  0  0  0  0  0  0  0  0  0
    4.0391   12.0340   30.1451 C   0  0  0  0  0  0  0  0  0  0  0  0
    5.2447   12.9312   29.7339 C   0  0  0  0  0  0  0  0  0  0  0  0
    4.7309   13.9644   30.7553 C   0  0  0  0  0  0  0  0  0  0  0  0
    3.3288   13.3640   30.5375 C   0  0  0  0  0  0  0  0  0  0  0  0
    1.9897   10.7273   29.5620 C   0  0  0  0  0  0  0  0  0  0  0  0
    2.0201   10.2489   30.8207 F   0  0  0  0  0  0  0  0  0  0  0  0
    1.4810    9.7627   28.7630 F   0  0  0  0  0  0  0  0  0  0  0  0
    1.1179   11.7583   29.5273 F   0  0  0  0  0  0  0  0  0  0  0  0
    7.5099   10.4977   25.5729 C   0  0  0  0  0  0  0  0  0  0  0  0
    8.4774   10.8727   24.6206 C   0  0  0  0  0  0  0  0  0  0  0  0
    8.6169   12.1968   24.1587 C   0  0  0  0  0  0  0  0  0  0  0  0
    9.7676   12.5661   23.3770 N   0  0  0  0  0  0  0  0  0  0  0  0
   10.9024   11.7130   23.2525 C   0  0  0  0  0  0  0  0  0  0  0  0
   12.0444   12.6578   23.5565 C   0  0  0  0  0  0  0  0  0  0  0  0
   11.6757   13.8126   22.6685 C   0  0  0  0  0  0  0  0  0  0  0  0
   10.1702   13.7812   22.7764 C   0  0  0  0  0  0  0  0  0  0  0  0
    9.5119   14.7059   22.3483 O   0  0  0  0  0  0  0  0  0  0  0  0
  1  2  1  0
  2  3  2  0
  3  4  1  0
  4  5  1  0
  5  6  1  0
  6  7  2  0
  6  8  1  0
  9  8  1  1
  9 10  1  0
 10 11  1  0
 11 12  1  0
 12 13  1  0
  9 14  1  0
 14 15  1  0
 14 16  1  0
 14 17  1  0
  4 18  2  0
 18 19  1  0
 19 20  2  0
 20 21  1  0
 21 22  1  0
 22 23  1  0
 23 24  1  0
 24 25  1  0
 25 26  2  0
 20  2  1  0
 25 21  1  0
 13 10  1  0
M  END
>  <energy_score>  (666) 
-9.670193

>  <inchikey>  (666) 
None

>  <smiles>  (666) 
None

>  <ref_pdb>  (666) 
A0310a

>  <alias>  (666) 
None

>  <HIPPO Pose ID>  (666) 
499227

>  <name>  (666) 
P499227

>  <HIPPO Compound ID>  (666) 
301811

>  <ref_mols>  (666) 
A1445a,A0310a

>  <distance_score>  (666) 
1.363302

>  <inspiration_score>  (666) 
None

$$$$
P499236
     RDKit          3D

 27 30  0  0  0  0  0  0  0  0999 V2000
    7.2633   14.1871   22.9323 C   0  0  0  0  0  0  0  0  0  0  0  0
    7.5813   13.2055   24.0080 C   0  0  0  0  0  0  0  0  0  0  0  0
    6.5991   13.1216   25.0154 C   0  0  0  0  0  0  0  0  0  0  0  0
    6.5243   12.0414   25.8756 C   0  0  0  0  0  0  0  0  0  0  0  0
    5.4870   12.0559   26.7960 N   0  0  0  0  0  0  0  0  0  0  0  0
    5.1994   11.1226   28.0118 C   0  0  0  0  0  0  0  0  0  0  0  0
    5.7510   10.1574   28.3723 O   0  0  0  0  0  0  0  0  0  0  0  0
    3.9999   11.7537   28.7166 C   0  0  1  0  0  0  0  0  0  0  0  0
    3.4467   10.9873   29.9350 C   0  0  2  0  0  0  0  0  0  0  0  0
    1.9992   10.5793   29.7467 C   0  0  0  0  0  0  0  0  0  0  0  0
    1.4803   10.1161   30.9049 F   0  0  0  0  0  0  0  0  0  0  0  0
    1.8941    9.5903   28.8320 F   0  0  0  0  0  0  0  0  0  0  0  0
    1.2192   11.5929   29.3201 F   0  0  0  0  0  0  0  0  0  0  0  0
    3.5473   12.0415   31.0366 C   0  0  1  0  0  0  0  0  0  0  0  0
    5.0038   12.2350   31.4626 C   0  0  0  0  0  0  0  0  0  0  0  0
    5.5782   13.0213   30.2855 C   0  0  0  0  0  0  0  0  0  0  0  0
    4.3749   13.1071   29.3453 C   0  0  2  0  0  0  0  0  0  0  0  0
    3.3085   13.2636   30.3060 O   0  0  0  0  0  0  0  0  0  0  0  0
    7.4238   11.0107   25.7062 C   0  0  0  0  0  0  0  0  0  0  0  0
    8.4691   11.1472   24.7675 C   0  0  0  0  0  0  0  0  0  0  0  0
    8.6415   12.3040   23.9705 C   0  0  0  0  0  0  0  0  0  0  0  0
    9.8508   12.5390   23.2367 N   0  0  0  0  0  0  0  0  0  0  0  0
   10.9466   11.6368   23.2707 C   0  0  0  0  0  0  0  0  0  0  0  0
   12.0800   12.5313   23.7321 C   0  0  0  0  0  0  0  0  0  0  0  0
   11.9018   13.6785   22.7787 C   0  0  0  0  0  0  0  0  0  0  0  0
   10.3975   13.7644   22.7622 C   0  0  0  0  0  0  0  0  0  0  0  0
    9.8642   14.7942   22.4092 O   0  0  0  0  0  0  0  0  0  0  0  0
  1  2  1  0
  2  3  2  0
  3  4  1  0
  4  5  1  0
  5  6  1  0
  6  7  2  0
  8  6  1  1
  8  9  1  0
  9 10  1  6
 10 11  1  0
 10 12  1  0
 10 13  1  0
  9 14  1  0
 14 15  1  6
 15 16  1  0
 17 16  1  1
 17 18  1  0
  4 19  2  0
 19 20  1  0
 20 21  2  0
 21 22  1  0
 22 23  1  0
 23 24  1  0
 24 25  1  0
 25 26  1  0
 26 27  2  0
 21  2  1  0
 26 22  1  0
 17  8  1  0
 18 14  1  0
M  END
>  <energy_score>  (667) 
-27.679699

>  <inchikey>  (667) 
None

>  <smiles>  (667) 
None

>  <ref_pdb>  (667) 
A0310a

>  <alias>  (667) 
None

>  <HIPPO Pose ID>  (667) 
499236

>  <name>  (667) 
P499236

>  <HIPPO Compound ID>  (667) 
301818

>  <ref_mols>  (667) 
A1445a,A0310a

>  <distance_score>  (667) 
1.50367

>  <inspiration_score>  (667) 
None

$$$$
P499238
     RDKit          3D

 27 29  0  0  0  0  0  0  0  0999 V2000
    7.5529   14.5511   24.2804 C   0  0  0  0  0  0  0  0  0  0  0  0
    7.6311   13.1122   24.6465 C   0  0  0  0  0  0  0  0  0  0  0  0
    6.5798   12.6823   25.5000 C   0  0  0  0  0  0  0  0  0  0  0  0
    6.5660   11.4178   26.0432 C   0  0  0  0  0  0  0  0  0  0  0  0
    5.5766   11.0799   26.9579 N   0  0  0  0  0  0  0  0  0  0  0  0
    5.6244   10.1374   28.1961 C   0  0  0  0  0  0  0  0  0  0  0  0
    6.5230    9.5640   28.6776 O   0  0  0  0  0  0  0  0  0  0  0  0
    4.1958    9.9327   28.7195 C   0  0  0  0  0  0  0  0  0  0  0  0
    3.3460   11.1645   29.0593 C   0  0  2  0  0  0  0  0  0  0  0  0
    4.0169   12.0167   30.1414 C   0  0  0  0  0  0  0  0  0  0  0  0
    5.2188   12.9205   29.7334 C   0  0  0  0  0  0  0  0  0  0  0  0
    4.7051   13.9447   30.7637 C   0  0  0  0  0  0  0  0  0  0  0  0
    3.3040   13.3420   30.5456 C   0  0  0  0  0  0  0  0  0  0  0  0
    1.9673   10.7134   29.5536 C   0  0  0  0  0  0  0  0  0  0  0  0
    1.9985   10.2298   30.8102 F   0  0  0  0  0  0  0  0  0  0  0  0
    1.4560    9.7515   28.7517 F   0  0  0  0  0  0  0  0  0  0  0  0
    1.0945   11.7438   29.5241 F   0  0  0  0  0  0  0  0  0  0  0  0
    7.5213   10.5255   25.6120 C   0  0  0  0  0  0  0  0  0  0  0  0
    8.5311   10.9195   24.7138 C   0  0  0  0  0  0  0  0  0  0  0  0
    8.6697   12.2426   24.2484 C   0  0  0  0  0  0  0  0  0  0  0  0
    9.8857   12.6676   23.5873 N   0  0  0  0  0  0  0  0  0  0  0  0
   10.9330   11.8467   23.3048 C   0  0  0  0  0  0  0  0  0  0  0  0
   10.9379   10.6266   23.2833 O   0  0  0  0  0  0  0  0  0  0  0  0
   12.1533   12.6786   22.9946 C   0  0  0  0  0  0  0  0  0  0  0  0
   11.6900   14.0803   23.1659 C   0  0  0  0  0  0  0  0  0  0  0  0
   10.2254   13.8681   23.0286 C   0  0  0  0  0  0  0  0  0  0  0  0
    9.5520   14.6631   22.4026 O   0  0  0  0  0  0  0  0  0  0  0  0
  1  2  1  0
  2  3  2  0
  3  4  1  0
  4  5  1  0
  5  6  1  0
  6  7  2  0
  6  8  1  0
  9  8  1  1
  9 10  1  0
 10 11  1  0
 11 12  1  0
 12 13  1  0
  9 14  1  0
 14 15  1  0
 14 16  1  0
 14 17  1  0
  4 18  2  0
 18 19  1  0
 19 20  2  0
 20 21  1  0
 21 22  1  0
 22 23  2  0
 22 24  1  0
 24 25  1  0
 25 26  1  0
 26 27  2  0
 20  2  1  0
 26 21  1  0
 13 10  1  0
M  END
>  <energy_score>  (668) 
-18.593501

>  <inchikey>  (668) 
None

>  <smiles>  (668) 
None

>  <ref_pdb>  (668) 
A0310a

>  <alias>  (668) 
None

>  <HIPPO Pose ID>  (668) 
499238

>  <name>  (668) 
P499238

>  <HIPPO Compound ID>  (668) 
301819

>  <ref_mols>  (668) 
A1445a,A0310a

>  <distance_score>  (668) 
1.428965

>  <inspiration_score>  (668) 
None

$$$$
P499240
     RDKit          3D

 27 29  0  0  0  0  0  0  0  0999 V2000
    8.2172    9.6269   24.5669 C   0  0  0  0  0  0  0  0  0  0  0  0
    7.6436   10.8910   25.1090 C   0  0  0  0  0  0  0  0  0  0  0  0
    6.5593   10.7680   26.0209 C   0  0  0  0  0  0  0  0  0  0  0  0
    5.9219   11.8902   26.5443 C   0  0  0  0  0  0  0  0  0  0  0  0
    4.7675   11.8035   27.3106 N   0  0  0  0  0  0  0  0  0  0  0  0
    3.9409   12.9160   28.0232 C   0  0  0  0  0  0  0  0  0  0  0  0
    4.1508   14.0595   28.1359 O   0  0  0  0  0  0  0  0  0  0  0  0
    2.6410   12.2970   28.5223 C   0  0  2  0  0  0  0  0  0  0  0  0
    1.6330   13.4142   28.8797 C   0  0  0  0  0  0  0  0  0  0  0  0
    1.8727   13.7534   30.6196 S   0  0  0  0  0  0  0  0  0  0  0  0
    0.6550   13.4334   31.3321 O   0  0  0  0  0  0  0  0  0  0  0  0
    2.5562   15.0143   30.7951 O   0  0  0  0  0  0  0  0  0  0  0  0
    3.0308   12.4394   30.9282 C   0  0  0  0  0  0  0  0  0  0  0  0
    2.8748   11.4472   29.7795 C   0  0  1  0  0  0  0  0  0  0  0  0
    1.7116   10.4934   29.9818 C   0  0  0  0  0  0  0  0  0  0  0  0
    1.7629    9.9100   31.1890 F   0  0  0  0  0  0  0  0  0  0  0  0
    1.7646    9.5210   29.0411 F   0  0  0  0  0  0  0  0  0  0  0  0
    0.5254   11.1014   29.8402 F   0  0  0  0  0  0  0  0  0  0  0  0
    6.3775   13.1409   26.1931 C   0  0  0  0  0  0  0  0  0  0  0  0
    7.4257   13.2696   25.2997 C   0  0  0  0  0  0  0  0  0  0  0  0
    8.0923   12.1623   24.7317 C   0  0  0  0  0  0  0  0  0  0  0  0
    9.1714   12.4489   23.8433 N   0  0  0  0  0  0  0  0  0  0  0  0
    9.4682   13.8280   23.5225 C   0  0  0  0  0  0  0  0  0  0  0  0
   10.5552   13.7760   22.5002 C   0  0  0  0  0  0  0  0  0  0  0  0
   11.3042   12.5509   22.9293 C   0  0  0  0  0  0  0  0  0  0  0  0
   10.1945   11.6171   23.3329 C   0  0  0  0  0  0  0  0  0  0  0  0
   10.3150   10.4073   23.2690 O   0  0  0  0  0  0  0  0  0  0  0  0
  1  2  1  0
  2  3  2  0
  3  4  1  0
  4  5  1  0
  5  6  1  0
  6  7  2  0
  8  6  1  1
  8  9  1  0
  9 10  1  0
 10 11  2  0
 10 12  2  0
 10 13  1  0
 13 14  1  0
 14 15  1  1
 15 16  1  0
 15 17  1  0
 15 18  1  0
  4 19  2  0
 19 20  1  0
 20 21  2  0
 21 22  1  0
 22 23  1  0
 23 24  1  0
 24 25  1  0
 25 26  1  0
 26 27  2  0
 21  2  1  0
 26 22  1  0
 14  8  1  0
M  END
>  <energy_score>  (669) 
-58.090355

>  <inchikey>  (669) 
None

>  <smiles>  (669) 
None

>  <ref_pdb>  (669) 
A0310a

>  <alias>  (669) 
None

>  <HIPPO Pose ID>  (669) 
499240

>  <name>  (669) 
P499240

>  <HIPPO Compound ID>  (669) 
301821

>  <ref_mols>  (669) 
A1445a,A0310a

>  <distance_score>  (669) 
1.865155

>  <inspiration_score>  (669) 
None

$$$$
P499242
     RDKit          3D

 27 29  0  0  0  0  0  0  0  0999 V2000
    8.0972   14.5305   24.9443 C   0  0  0  0  0  0  0  0  0  0  0  0
    7.9859   13.0448   24.9186 C   0  0  0  0  0  0  0  0  0  0  0  0
    6.9929   12.5200   25.7709 C   0  0  0  0  0  0  0  0  0  0  0  0
    6.8223   11.1597   25.9552 C   0  0  0  0  0  0  0  0  0  0  0  0
    5.9092   10.7090   26.9004 N   0  0  0  0  0  0  0  0  0  0  0  0
    5.0456   11.4988   27.9285 C   0  0  0  0  0  0  0  0  0  0  0  0
    5.0298   12.6395   28.1867 O   0  0  0  0  0  0  0  0  0  0  0  0
    4.1348   10.5085   28.6863 C   0  0  1  0  0  0  0  0  0  0  0  0
    4.9348    9.7028   29.7127 C   0  0  0  0  0  0  0  0  0  0  0  0
    5.3889   10.5504   30.8983 C   0  0  0  0  0  0  0  0  0  0  0  0
    4.2201   11.2550   31.5756 C   0  0  0  0  0  0  0  0  0  0  0  0
    3.3930   12.0847   30.5944 C   0  0  0  0  0  0  0  0  0  0  0  0
    2.9688   11.3111   29.3281 C   0  0  2  0  0  0  0  0  0  0  0  0
    1.7389   10.4665   29.6181 C   0  0  0  0  0  0  0  0  0  0  0  0
    1.8758    9.7032   30.7168 F   0  0  0  0  0  0  0  0  0  0  0  0
    1.4441    9.6524   28.5813 F   0  0  0  0  0  0  0  0  0  0  0  0
    0.6654   11.2664   29.8046 F   0  0  0  0  0  0  0  0  0  0  0  0
    7.5949   10.3036   25.2033 C   0  0  0  0  0  0  0  0  0  0  0  0
    8.5704   10.8120   24.3291 C   0  0  0  0  0  0  0  0  0  0  0  0
    8.8199   12.1916   24.1772 C   0  0  0  0  0  0  0  0  0  0  0  0
    9.9718   12.6707   23.4677 N   0  0  0  0  0  0  0  0  0  0  0  0
   11.0472   11.9007   23.1837 C   0  0  0  0  0  0  0  0  0  0  0  0
   11.1115   10.6865   23.2755 O   0  0  0  0  0  0  0  0  0  0  0  0
   12.2087   12.7738   22.7900 C   0  0  0  0  0  0  0  0  0  0  0  0
   11.6585   14.1569   22.7981 C   0  0  0  0  0  0  0  0  0  0  0  0
   10.1994   13.8836   22.8892 C   0  0  0  0  0  0  0  0  0  0  0  0
    9.3927   14.6654   22.4239 O   0  0  0  0  0  0  0  0  0  0  0  0
  1  2  1  0
  2  3  2  0
  3  4  1  0
  4  5  1  0
  5  6  1  0
  6  7  2  0
  8  6  1  1
  8  9  1  0
  9 10  1  0
 10 11  1  0
 11 12  1  0
 12 13  1  0
 13 14  1  1
 14 15  1  0
 14 16  1  0
 14 17  1  0
  4 18  2  0
 18 19  1  0
 19 20  2  0
 20 21  1  0
 21 22  1  0
 22 23  2  0
 22 24  1  0
 24 25  1  0
 25 26  1  0
 26 27  2  0
 20  2  1  0
 26 21  1  0
 13  8  1  0
M  END
>  <energy_score>  (670) 
-24.827207

>  <inchikey>  (670) 
None

>  <smiles>  (670) 
None

>  <ref_pdb>  (670) 
A0310a

>  <alias>  (670) 
None

>  <HIPPO Pose ID>  (670) 
499242

>  <name>  (670) 
P499242

>  <HIPPO Compound ID>  (670) 
301823

>  <ref_mols>  (670) 
A1445a,A0310a

>  <distance_score>  (670) 
1.439454

>  <inspiration_score>  (670) 
None

$$$$
P499245
     RDKit          3D

 27 28  0  0  0  0  0  0  0  0999 V2000
    3.5939   13.4704   27.3724 C   0  0  0  0  0  0  0  0  0  0  0  0
    2.6562   12.5383   28.0176 N   0  0  0  0  0  0  0  0  0  0  0  0
    1.3236   13.1709   28.0115 C   0  0  0  0  0  0  0  0  0  0  0  0
    3.0839   12.2235   29.4016 C   0  0  0  0  0  0  0  0  0  0  0  0
    3.2050   10.6921   29.6952 C   0  0  2  0  0  0  0  0  0  0  0  0
    3.7711   10.5062   31.1241 C   0  0  0  0  0  0  0  0  0  0  0  0
    4.0967    9.8865   28.6845 C   0  0  0  0  0  0  0  0  0  0  0  0
    5.4093   10.5971   28.3619 C   0  0  0  0  0  0  0  0  0  0  0  0
    5.8238   11.4398   29.0607 O   0  0  0  0  0  0  0  0  0  0  0  0
    5.9352   10.0730   26.9888 N   0  0  0  0  0  0  0  0  0  0  0  0
    6.9756   10.5268   26.1907 C   0  0  0  0  0  0  0  0  0  0  0  0
    7.5859    9.8282   25.1561 C   0  0  0  0  0  0  0  0  0  0  0  0
    8.5221   10.4290   24.3071 C   0  0  0  0  0  0  0  0  0  0  0  0
    8.7011   11.8006   24.3977 C   0  0  0  0  0  0  0  0  0  0  0  0
    8.1443   12.4905   25.4750 C   0  0  0  0  0  0  0  0  0  0  0  0
    7.3268   11.8408   26.3827 C   0  0  0  0  0  0  0  0  0  0  0  0
    8.2980   13.9695   25.6368 C   0  0  0  0  0  0  0  0  0  0  0  0
    7.2761   14.6224   24.7359 C   0  0  0  0  0  0  0  0  0  0  0  0
    7.3803   14.1325   23.3014 C   0  0  0  0  0  0  0  0  0  0  0  0
    8.7790   13.7086   22.8431 C   0  0  0  0  0  0  0  0  0  0  0  0
    9.3556   14.3782   21.9860 O   0  0  0  0  0  0  0  0  0  0  0  0
    9.3184   12.5298   23.3625 N   0  0  0  0  0  0  0  0  0  0  0  0
   10.6044   12.0583   22.8821 C   0  0  0  0  0  0  0  0  0  0  0  0
    1.7915   10.1094   29.6891 C   0  0  0  0  0  0  0  0  0  0  0  0
    1.0304   10.6620   30.6619 F   0  0  0  0  0  0  0  0  0  0  0  0
    1.8158    8.7765   29.9130 F   0  0  0  0  0  0  0  0  0  0  0  0
    1.1485   10.2899   28.5163 F   0  0  0  0  0  0  0  0  0  0  0  0
  1  2  1  0
  2  3  1  0
  2  4  1  0
  5  4  1  0
  5  6  1  1
  5  7  1  0
  7  8  1  0
  8  9  2  0
  8 10  1  0
 10 11  1  0
 11 12  2  0
 12 13  1  0
 13 14  2  0
 14 15  1  0
 15 16  2  0
 15 17  1  0
 17 18  1  0
 18 19  1  0
 19 20  1  0
 20 21  2  0
 20 22  1  0
 22 23  1  0
  5 24  1  0
 24 25  1  0
 24 26  1  0
 24 27  1  0
 16 11  1  0
 22 14  1  0
M  END
>  <energy_score>  (671) 
-55.88519

>  <inchikey>  (671) 
None

>  <smiles>  (671) 
None

>  <ref_pdb>  (671) 
A0310a

>  <alias>  (671) 
None

>  <HIPPO Pose ID>  (671) 
499245

>  <name>  (671) 
P499245

>  <HIPPO Compound ID>  (671) 
301830

>  <ref_mols>  (671) 
A1445a,A0310a

>  <distance_score>  (671) 
1.574455

>  <inspiration_score>  (671) 
None

$$$$
P499253
     RDKit          3D

 27 30  0  0  0  0  0  0  0  0999 V2000
    8.8874   14.5109   25.3924 C   0  0  0  0  0  0  0  0  0  0  0  0
    8.3804   13.1180   25.2615 C   0  0  0  0  0  0  0  0  0  0  0  0
    7.3939   12.7602   26.1953 C   0  0  0  0  0  0  0  0  0  0  0  0
    6.8186   11.5041   26.1872 C   0  0  0  0  0  0  0  0  0  0  0  0
    5.5991   11.4098   26.8289 N   0  0  0  0  0  0  0  0  0  0  0  0
    5.1753   11.8431   28.2667 C   0  0  0  0  0  0  0  0  0  0  0  0
    5.8139   12.2725   29.1478 O   0  0  0  0  0  0  0  0  0  0  0  0
    3.6449   11.7067   28.3264 C   0  0  2  0  0  0  0  0  0  0  0  0
    3.0535   13.0103   27.6710 C   0  0  2  0  0  0  0  0  0  0  0  0
    3.6663   14.2901   28.2858 C   0  0  0  0  0  0  0  0  0  0  0  0
    3.1557   14.2453   29.7326 C   0  0  0  0  0  0  0  0  0  0  0  0
    2.1922   13.0431   29.7176 C   0  0  1  0  0  0  0  0  0  0  0  0
    1.6597   13.1014   28.2793 C   0  0  0  0  0  0  0  0  0  0  0  0
    3.0069   11.7254   29.7334 C   0  0  1  0  0  0  0  0  0  0  0  0
    2.0757   10.5385   29.9708 C   0  0  0  0  0  0  0  0  0  0  0  0
    1.5763   10.5656   31.2250 F   0  0  0  0  0  0  0  0  0  0  0  0
    2.7120    9.3619   29.8083 F   0  0  0  0  0  0  0  0  0  0  0  0
    1.0290   10.5295   29.1184 F   0  0  0  0  0  0  0  0  0  0  0  0
    7.2933   10.5537   25.3044 C   0  0  0  0  0  0  0  0  0  0  0  0
    8.3293   10.8808   24.4101 C   0  0  0  0  0  0  0  0  0  0  0  0
    8.8352   12.1897   24.3156 C   0  0  0  0  0  0  0  0  0  0  0  0
    9.8341   12.4889   23.3479 N   0  0  0  0  0  0  0  0  0  0  0  0
   10.9625   11.6383   23.2205 C   0  0  0  0  0  0  0  0  0  0  0  0
   12.0967   12.5959   23.5419 C   0  0  0  0  0  0  0  0  0  0  0  0
   11.7184   13.7746   22.6795 C   0  0  0  0  0  0  0  0  0  0  0  0
   10.2229   13.7380   22.8358 C   0  0  0  0  0  0  0  0  0  0  0  0
    9.5139   14.6758   22.5357 O   0  0  0  0  0  0  0  0  0  0  0  0
  1  2  1  0
  2  3  2  0
  3  4  1  0
  4  5  1  0
  5  6  1  0
  6  7  2  0
  8  6  1  1
  8  9  1  0
  9 10  1  1
 10 11  1  0
 12 11  1  6
 12 13  1  0
 12 14  1  0
 14 15  1  6
 15 16  1  0
 15 17  1  0
 15 18  1  0
  4 19  2  0
 19 20  1  0
 20 21  2  0
 21 22  1  0
 22 23  1  0
 23 24  1  0
 24 25  1  0
 25 26  1  0
 26 27  2  0
 21  2  1  0
 26 22  1  0
 14  8  1  0
 13  9  1  0
M  END
>  <energy_score>  (672) 
-24.142854

>  <inchikey>  (672) 
None

>  <smiles>  (672) 
None

>  <ref_pdb>  (672) 
A0310a

>  <alias>  (672) 
None

>  <HIPPO Pose ID>  (672) 
499253

>  <name>  (672) 
P499253

>  <HIPPO Compound ID>  (672) 
301832

>  <ref_mols>  (672) 
A1445a,A0310a

>  <distance_score>  (672) 
1.468308

>  <inspiration_score>  (672) 
None

$$$$
P499259
     RDKit          3D

 28 30  0  0  0  0  0  0  0  0999 V2000
    7.6730   14.5822   24.2182 C   0  0  0  0  0  0  0  0  0  0  0  0
    7.6800   13.1513   24.5946 C   0  0  0  0  0  0  0  0  0  0  0  0
    6.6465   12.8001   25.4860 C   0  0  0  0  0  0  0  0  0  0  0  0
    6.5413   11.5354   26.0183 C   0  0  0  0  0  0  0  0  0  0  0  0
    5.4539   11.3050   26.8452 N   0  0  0  0  0  0  0  0  0  0  0  0
    5.2268   10.2183   27.9382 C   0  0  0  0  0  0  0  0  0  0  0  0
    5.9522    9.4034   28.3582 O   0  0  0  0  0  0  0  0  0  0  0  0
    3.7533   10.3249   28.3395 C   0  0  0  0  0  0  0  0  0  0  0  0
    3.4963   10.6167   29.8129 C   0  0  1  0  0  0  0  0  0  0  0  0
    4.0816   11.9719   30.1917 C   0  0  0  0  0  0  0  0  0  0  0  0
    5.2778   12.0140   30.9280 C   0  0  0  0  0  0  0  0  0  0  0  0
    5.8675   13.2331   31.2659 C   0  0  0  0  0  0  0  0  0  0  0  0
    5.2748   14.4280   30.8682 C   0  0  0  0  0  0  0  0  0  0  0  0
    4.0939   14.4040   30.1313 C   0  0  0  0  0  0  0  0  0  0  0  0
    3.5012   13.1856   29.7920 C   0  0  0  0  0  0  0  0  0  0  0  0
    1.9872   10.4881   30.0604 C   0  0  0  0  0  0  0  0  0  0  0  0
    1.6560   10.7458   31.3413 F   0  0  0  0  0  0  0  0  0  0  0  0
    1.5667    9.2316   29.7798 F   0  0  0  0  0  0  0  0  0  0  0  0
    1.2693   11.3173   29.2650 F   0  0  0  0  0  0  0  0  0  0  0  0
    7.4319   10.5748   25.5899 C   0  0  0  0  0  0  0  0  0  0  0  0
    8.4373   10.9036   24.6524 C   0  0  0  0  0  0  0  0  0  0  0  0
    8.6301   12.2156   24.1617 C   0  0  0  0  0  0  0  0  0  0  0  0
    9.7862   12.5420   23.3681 N   0  0  0  0  0  0  0  0  0  0  0  0
   10.9057   11.6679   23.2770 C   0  0  0  0  0  0  0  0  0  0  0  0
   12.0487   12.5946   23.6373 C   0  0  0  0  0  0  0  0  0  0  0  0
   11.7428   13.7515   22.7279 C   0  0  0  0  0  0  0  0  0  0  0  0
   10.2346   13.7538   22.7821 C   0  0  0  0  0  0  0  0  0  0  0  0
    9.6166   14.6993   22.3379 O   0  0  0  0  0  0  0  0  0  0  0  0
  1  2  1  0
  2  3  2  0
  3  4  1  0
  4  5  1  0
  5  6  1  0
  6  7  2  0
  6  8  1  0
  9  8  1  6
  9 10  1  0
 10 11  2  0
 11 12  1  0
 12 13  2  0
 13 14  1  0
 14 15  2  0
  9 16  1  0
 16 17  1  0
 16 18  1  0
 16 19  1  0
  4 20  2  0
 20 21  1  0
 21 22  2  0
 22 23  1  0
 23 24  1  0
 24 25  1  0
 25 26  1  0
 26 27  1  0
 27 28  2  0
 22  2  1  0
 27 23  1  0
 15 10  1  0
M  END
>  <energy_score>  (673) 
-20.366165

>  <inchikey>  (673) 
None

>  <smiles>  (673) 
None

>  <ref_pdb>  (673) 
A0310a

>  <alias>  (673) 
None

>  <HIPPO Pose ID>  (673) 
499259

>  <name>  (673) 
P499259

>  <HIPPO Compound ID>  (673) 
301834

>  <ref_mols>  (673) 
A1445a,A0310a

>  <distance_score>  (673) 
1.321162

>  <inspiration_score>  (673) 
None

$$$$
P499260
     RDKit          3D

 28 29  0  0  0  0  0  0  0  0999 V2000
    8.8043    9.5647   23.9331 C   0  0  0  0  0  0  0  0  0  0  0  0
    8.0876   10.6942   24.6288 C   0  0  0  0  0  0  0  0  0  0  0  0
    7.2326   10.3159   25.6584 C   0  0  0  0  0  0  0  0  0  0  0  0
    6.3838   11.1947   26.3106 C   0  0  0  0  0  0  0  0  0  0  0  0
    5.5862   10.6600   27.3053 N   0  0  0  0  0  0  0  0  0  0  0  0
    4.4097   11.2881   28.1002 C   0  0  0  0  0  0  0  0  0  0  0  0
    3.9863   12.3739   28.0902 O   0  0  0  0  0  0  0  0  0  0  0  0
    3.9427   10.1718   29.0326 C   0  0  0  0  0  0  0  0  0  0  0  0
    3.0668   10.5904   30.2342 C   0  0  2  0  0  0  0  0  0  0  0  0
    3.4240   11.9703   30.8195 C   0  0  0  0  0  0  0  0  0  0  0  0
    3.1440    9.5012   31.3612 C   0  0  0  0  0  0  0  0  0  0  0  0
    4.2589    9.5683   32.3349 N   0  0  0  0  0  0  0  0  0  0  0  0
    3.9757    8.6823   33.4724 C   0  0  0  0  0  0  0  0  0  0  0  0
    5.5746    9.2540   31.7918 C   0  0  0  0  0  0  0  0  0  0  0  0
    1.6054   10.6147   29.7749 C   0  0  0  0  0  0  0  0  0  0  0  0
    0.7799   10.9416   30.7929 F   0  0  0  0  0  0  0  0  0  0  0  0
    1.2236    9.3913   29.3311 F   0  0  0  0  0  0  0  0  0  0  0  0
    1.3778   11.4790   28.7679 F   0  0  0  0  0  0  0  0  0  0  0  0
    6.3770   12.5222   25.9447 C   0  0  0  0  0  0  0  0  0  0  0  0
    7.2455   12.9462   24.9372 C   0  0  0  0  0  0  0  0  0  0  0  0
    8.1262   12.0490   24.2829 C   0  0  0  0  0  0  0  0  0  0  0  0
    9.0379   12.5577   23.3346 N   0  0  0  0  0  0  0  0  0  0  0  0
   10.3266   12.1259   23.2045 C   0  0  0  0  0  0  0  0  0  0  0  0
   10.8329   11.1063   23.6265 O   0  0  0  0  0  0  0  0  0  0  0  0
   11.1226   13.2135   22.5789 C   0  0  0  0  0  0  0  0  0  0  0  0
   10.0804   14.0121   21.8502 C   0  0  0  0  0  0  0  0  0  0  0  0
    8.8109   13.6582   22.5472 C   0  0  0  0  0  0  0  0  0  0  0  0
    7.7487   14.2164   22.3152 O   0  0  0  0  0  0  0  0  0  0  0  0
  1  2  1  0
  2  3  2  0
  3  4  1  0
  4  5  1  0
  5  6  1  0
  6  7  2  0
  6  8  1  0
  9  8  1  0
  9 10  1  1
  9 11  1  0
 11 12  1  0
 12 13  1  0
 12 14  1  0
  9 15  1  0
 15 16  1  0
 15 17  1  0
 15 18  1  0
  4 19  2  0
 19 20  1  0
 20 21  2  0
 21 22  1  0
 22 23  1  0
 23 24  2  0
 23 25  1  0
 25 26  1  0
 26 27  1  0
 27 28  2  0
 21  2  1  0
 27 22  1  0
M  END
>  <energy_score>  (674) 
-56.782819

>  <inchikey>  (674) 
None

>  <smiles>  (674) 
None

>  <ref_pdb>  (674) 
A0310a

>  <alias>  (674) 
None

>  <HIPPO Pose ID>  (674) 
499260

>  <name>  (674) 
P499260

>  <HIPPO Compound ID>  (674) 
301836

>  <ref_mols>  (674) 
A1445a,A0310a

>  <distance_score>  (674) 
1.916123

>  <inspiration_score>  (674) 
None

$$$$
P499269
     RDKit          3D

 29 31  0  0  0  0  0  0  0  0999 V2000
    7.6060   14.5306   24.2690 C   0  0  0  0  0  0  0  0  0  0  0  0
    7.6534   13.0879   24.6159 C   0  0  0  0  0  0  0  0  0  0  0  0
    6.6304   12.6739   25.5083 C   0  0  0  0  0  0  0  0  0  0  0  0
    6.6049   11.4019   26.0344 C   0  0  0  0  0  0  0  0  0  0  0  0
    5.6049   11.0652   26.9395 N   0  0  0  0  0  0  0  0  0  0  0  0
    5.6304   10.1011   28.1611 C   0  0  0  0  0  0  0  0  0  0  0  0
    6.5168    9.5040   28.6369 O   0  0  0  0  0  0  0  0  0  0  0  0
    4.1990    9.9022   28.6847 C   0  0  0  0  0  0  0  0  0  0  0  0
    3.3396   11.1390   28.9795 C   0  0  2  0  0  0  0  0  0  0  0  0
    4.0594   12.1852   29.8150 C   0  0  0  0  0  0  0  0  0  0  0  0
    4.6756   11.8577   31.0335 C   0  0  0  0  0  0  0  0  0  0  0  0
    5.3536   12.8306   31.7726 C   0  0  0  0  0  0  0  0  0  0  0  0
    5.4192   14.1391   31.3026 C   0  0  0  0  0  0  0  0  0  0  0  0
    6.2648   15.3325   32.2074 Cl  0  0  0  0  0  0  0  0  0  0  0  0
    4.8052   14.4852   30.1024 C   0  0  0  0  0  0  0  0  0  0  0  0
    4.1265   13.5137   29.3624 C   0  0  0  0  0  0  0  0  0  0  0  0
    1.9938   10.7221   29.5922 C   0  0  0  0  0  0  0  0  0  0  0  0
    2.0936   10.2881   30.8633 F   0  0  0  0  0  0  0  0  0  0  0  0
    1.4347    9.7239   28.8641 F   0  0  0  0  0  0  0  0  0  0  0  0
    1.1182   11.7515   29.5647 F   0  0  0  0  0  0  0  0  0  0  0  0
    7.5286   10.4932   25.5620 C   0  0  0  0  0  0  0  0  0  0  0  0
    8.5010   10.8721   24.6154 C   0  0  0  0  0  0  0  0  0  0  0  0
    8.6428   12.1978   24.1594 C   0  0  0  0  0  0  0  0  0  0  0  0
    9.7959   12.5711   23.3823 N   0  0  0  0  0  0  0  0  0  0  0  0
   10.9305   11.7204   23.2538 C   0  0  0  0  0  0  0  0  0  0  0  0
   12.0714   12.6643   23.5635 C   0  0  0  0  0  0  0  0  0  0  0  0
   11.7020   13.8232   22.6803 C   0  0  0  0  0  0  0  0  0  0  0  0
   10.1960   13.7870   22.7825 C   0  0  0  0  0  0  0  0  0  0  0  0
    9.5336   14.7059   22.3478 O   0  0  0  0  0  0  0  0  0  0  0  0
  1  2  1  0
  2  3  2  0
  3  4  1  0
  4  5  1  0
  5  6  1  0
  6  7  2  0
  6  8  1  0
  9  8  1  1
  9 10  1  0
 10 11  2  0
 11 12  1  0
 12 13  2  0
 13 14  1  0
 13 15  1  0
 15 16  2  0
  9 17  1  0
 17 18  1  0
 17 19  1  0
 17 20  1  0
  4 21  2  0
 21 22  1  0
 22 23  2  0
 23 24  1  0
 24 25  1  0
 25 26  1  0
 26 27  1  0
 27 28  1  0
 28 29  2  0
 23  2  1  0
 28 24  1  0
 16 10  1  0
M  END
>  <energy_score>  (675) 
-14.251467

>  <inchikey>  (675) 
None

>  <smiles>  (675) 
None

>  <ref_pdb>  (675) 
A0310a

>  <alias>  (675) 
None

>  <HIPPO Pose ID>  (675) 
499269

>  <name>  (675) 
P499269

>  <HIPPO Compound ID>  (675) 
301844

>  <ref_mols>  (675) 
A1445a,A0310a

>  <distance_score>  (675) 
1.347666

>  <inspiration_score>  (675) 
None

$$$$
P499271
     RDKit          3D

 29 31  0  0  0  0  0  0  0  0999 V2000
    3.2993   15.0708   32.3686 C   0  0  0  0  0  0  0  0  0  0  0  0
    3.1368   14.2948   31.1238 C   0  0  0  0  0  0  0  0  0  0  0  0
    2.7711   14.6293   29.8394 C   0  0  0  0  0  0  0  0  0  0  0  0
    2.8007   13.4291   29.0898 C   0  0  0  0  0  0  0  0  0  0  0  0
    3.1996   12.4303   29.9587 C   0  0  0  0  0  0  0  0  0  0  0  0
    3.3895   10.9395   29.8359 C   0  0  2  0  0  0  0  0  0  0  0  0
    4.1157   10.4928   31.0106 O   0  0  0  0  0  0  0  0  0  0  0  0
    4.1927   10.4426   28.6140 C   0  0  0  0  0  0  0  0  0  0  0  0
    5.3457   11.3332   28.1474 C   0  0  0  0  0  0  0  0  0  0  0  0
    5.5878   12.3649   28.6407 O   0  0  0  0  0  0  0  0  0  0  0  0
    5.9783   10.6347   26.8999 N   0  0  0  0  0  0  0  0  0  0  0  0
    6.9288   11.0932   25.9953 C   0  0  0  0  0  0  0  0  0  0  0  0
    7.6222   10.2463   25.1538 C   0  0  0  0  0  0  0  0  0  0  0  0
    8.5810   10.7568   24.2654 C   0  0  0  0  0  0  0  0  0  0  0  0
    8.8439   12.1344   24.1608 C   0  0  0  0  0  0  0  0  0  0  0  0
    9.9113   12.5784   23.3372 N   0  0  0  0  0  0  0  0  0  0  0  0
   11.0664   11.7815   23.1534 C   0  0  0  0  0  0  0  0  0  0  0  0
   12.1840   12.7802   23.3471 C   0  0  0  0  0  0  0  0  0  0  0  0
   11.6812   13.9331   22.5188 C   0  0  0  0  0  0  0  0  0  0  0  0
   10.1987   13.8221   22.7639 C   0  0  0  0  0  0  0  0  0  0  0  0
    9.4279   14.7021   22.4444 O   0  0  0  0  0  0  0  0  0  0  0  0
    8.1108   12.9845   24.9984 C   0  0  0  0  0  0  0  0  0  0  0  0
    8.2929   14.4614   25.0583 C   0  0  0  0  0  0  0  0  0  0  0  0
    7.1687   12.4540   25.9020 C   0  0  0  0  0  0  0  0  0  0  0  0
    1.9621   10.3219   29.7880 C   0  0  0  0  0  0  0  0  0  0  0  0
    1.2692   10.5521   30.9275 F   0  0  0  0  0  0  0  0  0  0  0  0
    1.9945    8.9830   29.5983 F   0  0  0  0  0  0  0  0  0  0  0  0
    1.2369   10.8356   28.7579 F   0  0  0  0  0  0  0  0  0  0  0  0
    3.3877   12.9597   31.2079 O   0  0  0  0  0  0  0  0  0  0  0  0
  1  2  1  0
  2  3  2  0
  3  4  1  0
  4  5  2  0
  5  6  1  0
  6  7  1  1
  6  8  1  0
  8  9  1  0
  9 10  2  0
  9 11  1  0
 11 12  1  0
 12 13  2  0
 13 14  1  0
 14 15  2  0
 15 16  1  0
 16 17  1  0
 17 18  1  0
 18 19  1  0
 19 20  1  0
 20 21  2  0
 15 22  1  0
 22 23  1  0
 22 24  2  0
  6 25  1  0
 25 26  1  0
 25 27  1  0
 25 28  1  0
  5 29  1  0
 29  2  1  0
 24 12  1  0
 20 16  1  0
M  END
>  <energy_score>  (676) 
-20.291975

>  <inchikey>  (676) 
None

>  <smiles>  (676) 
None

>  <ref_pdb>  (676) 
A0310a

>  <alias>  (676) 
None

>  <HIPPO Pose ID>  (676) 
499271

>  <name>  (676) 
P499271

>  <HIPPO Compound ID>  (676) 
301845

>  <ref_mols>  (676) 
A1445a,A0310a

>  <distance_score>  (676) 
1.418704

>  <inspiration_score>  (676) 
None

$$$$
P499283
     RDKit          3D

 30 32  0  0  0  0  0  0  0  0999 V2000
    3.2048   14.6742   26.4167 C   0  0  0  0  0  0  0  0  0  0  0  0
    3.4417   14.0424   27.7420 C   0  0  0  0  0  0  0  0  0  0  0  0
    3.6959   14.7069   28.9247 C   0  0  0  0  0  0  0  0  0  0  0  0
    3.8631   13.5905   30.2084 S   0  0  0  0  0  0  0  0  0  0  0  0
    3.5862   12.2910   29.1109 C   0  0  0  0  0  0  0  0  0  0  0  0
    3.4935   10.8523   29.5798 C   0  0  2  0  0  0  0  0  0  0  0  0
    4.2897   10.6891   30.7765 O   0  0  0  0  0  0  0  0  0  0  0  0
    4.0021    9.8626   28.5321 C   0  0  0  0  0  0  0  0  0  0  0  0
    5.4498    9.9980   28.0551 C   0  0  0  0  0  0  0  0  0  0  0  0
    6.2894    9.3034   28.4796 O   0  0  0  0  0  0  0  0  0  0  0  0
    5.5025   11.0702   26.9278 N   0  0  0  0  0  0  0  0  0  0  0  0
    6.5337   11.4226   26.0653 C   0  0  0  0  0  0  0  0  0  0  0  0
    7.4774   10.5228   25.6197 C   0  0  0  0  0  0  0  0  0  0  0  0
    8.4992   10.9175   24.7339 C   0  0  0  0  0  0  0  0  0  0  0  0
    8.6562   12.2455   24.2891 C   0  0  0  0  0  0  0  0  0  0  0  0
    9.8664   12.6606   23.6169 N   0  0  0  0  0  0  0  0  0  0  0  0
   10.2090   13.8591   23.0580 C   0  0  0  0  0  0  0  0  0  0  0  0
    9.5335   14.6590   22.4403 O   0  0  0  0  0  0  0  0  0  0  0  0
   11.6762   14.0583   23.1778 C   0  0  0  0  0  0  0  0  0  0  0  0
   12.1238   12.6523   22.9965 C   0  0  0  0  0  0  0  0  0  0  0  0
   10.8930   11.8284   23.2927 C   0  0  0  0  0  0  0  0  0  0  0  0
   10.8710   10.6102   23.2243 O   0  0  0  0  0  0  0  0  0  0  0  0
    7.6437   13.1301   24.7175 C   0  0  0  0  0  0  0  0  0  0  0  0
    7.5955   14.5791   24.3877 C   0  0  0  0  0  0  0  0  0  0  0  0
    6.5860   12.7018   25.5610 C   0  0  0  0  0  0  0  0  0  0  0  0
    1.9921   10.5476   29.8380 C   0  0  0  0  0  0  0  0  0  0  0  0
    1.5694   11.1541   30.9749 F   0  0  0  0  0  0  0  0  0  0  0  0
    1.7610    9.2238   29.9913 F   0  0  0  0  0  0  0  0  0  0  0  0
    1.1934   10.9670   28.8286 F   0  0  0  0  0  0  0  0  0  0  0  0
    3.4065   12.6583   27.8522 N   0  0  0  0  0  0  0  0  0  0  0  0
  1  2  1  0
  2  3  2  0
  3  4  1  0
  4  5  1  0
  5  6  1  0
  6  7  1  1
  6  8  1  0
  8  9  1  0
  9 10  2  0
  9 11  1  0
 11 12  1  0
 12 13  2  0
 13 14  1  0
 14 15  2  0
 15 16  1  0
 16 17  1  0
 17 18  2  0
 17 19  1  0
 19 20  1  0
 20 21  1  0
 21 22  2  0
 15 23  1  0
 23 24  1  0
 23 25  2  0
  6 26  1  0
 26 27  1  0
 26 28  1  0
 26 29  1  0
  5 30  2  0
 30  2  1  0
 25 12  1  0
 21 16  1  0
M  END
>  <energy_score>  (677) 
-76.230145

>  <inchikey>  (677) 
None

>  <smiles>  (677) 
None

>  <ref_pdb>  (677) 
A0310a

>  <alias>  (677) 
None

>  <HIPPO Pose ID>  (677) 
499283

>  <name>  (677) 
P499283

>  <HIPPO Compound ID>  (677) 
301859

>  <ref_mols>  (677) 
A1445a,A0310a

>  <distance_score>  (677) 
1.429425

>  <inspiration_score>  (677) 
None

$$$$
P499285
     RDKit          3D

 30 32  0  0  0  0  0  0  0  0999 V2000
    3.0612   14.6142   26.6290 C   0  0  0  0  0  0  0  0  0  0  0  0
    3.5206   13.9708   27.8775 C   0  0  0  0  0  0  0  0  0  0  0  0
    4.1569   14.4401   29.0051 C   0  0  0  0  0  0  0  0  0  0  0  0
    4.2982   13.3331   29.8752 C   0  0  0  0  0  0  0  0  0  0  0  0
    3.7370   12.2492   29.2305 C   0  0  0  0  0  0  0  0  0  0  0  0
    3.5286   10.8115   29.5958 C   0  0  2  0  0  0  0  0  0  0  0  0
    4.2925   10.5741   30.7993 O   0  0  0  0  0  0  0  0  0  0  0  0
    4.0195    9.8498   28.5132 C   0  0  0  0  0  0  0  0  0  0  0  0
    5.4692    9.9950   28.0502 C   0  0  0  0  0  0  0  0  0  0  0  0
    6.3141    9.3156   28.4890 O   0  0  0  0  0  0  0  0  0  0  0  0
    5.5176   11.0565   26.9112 N   0  0  0  0  0  0  0  0  0  0  0  0
    6.5514   11.4129   26.0537 C   0  0  0  0  0  0  0  0  0  0  0  0
    7.4957   10.5155   25.6049 C   0  0  0  0  0  0  0  0  0  0  0  0
    8.5178   10.9144   24.7205 C   0  0  0  0  0  0  0  0  0  0  0  0
    8.6774   12.2447   24.2834 C   0  0  0  0  0  0  0  0  0  0  0  0
    9.8890   12.6650   23.6133 N   0  0  0  0  0  0  0  0  0  0  0  0
   10.9292   11.8419   23.3131 C   0  0  0  0  0  0  0  0  0  0  0  0
   10.9301   10.6220   23.2858 O   0  0  0  0  0  0  0  0  0  0  0  0
   12.1479   12.6734   22.9929 C   0  0  0  0  0  0  0  0  0  0  0  0
   11.6866   14.0766   23.1606 C   0  0  0  0  0  0  0  0  0  0  0  0
   10.2207   13.8631   23.0454 C   0  0  0  0  0  0  0  0  0  0  0  0
    9.5356   14.6536   22.4261 O   0  0  0  0  0  0  0  0  0  0  0  0
    7.6635   13.1267   24.7156 C   0  0  0  0  0  0  0  0  0  0  0  0
    7.6179   14.5785   24.3980 C   0  0  0  0  0  0  0  0  0  0  0  0
    6.6029   12.6942   25.5542 C   0  0  0  0  0  0  0  0  0  0  0  0
    2.0074   10.5540   29.8206 C   0  0  0  0  0  0  0  0  0  0  0  0
    1.5371   11.1826   30.9208 F   0  0  0  0  0  0  0  0  0  0  0  0
    1.7731    9.2292   29.9993 F   0  0  0  0  0  0  0  0  0  0  0  0
    1.2516   10.9400   28.7649 F   0  0  0  0  0  0  0  0  0  0  0  0
    3.2840   12.6343   27.9964 O   0  0  0  0  0  0  0  0  0  0  0  0
  1  2  1  0
  2  3  2  0
  3  4  1  0
  4  5  2  0
  5  6  1  0
  6  7  1  1
  6  8  1  0
  8  9  1  0
  9 10  2  0
  9 11  1  0
 11 12  1  0
 12 13  2  0
 13 14  1  0
 14 15  2  0
 15 16  1  0
 16 17  1  0
 17 18  2  0
 17 19  1  0
 19 20  1  0
 20 21  1  0
 21 22  2  0
 15 23  1  0
 23 24  1  0
 23 25  2  0
  6 26  1  0
 26 27  1  0
 26 28  1  0
 26 29  1  0
  5 30  1  0
 30  2  1  0
 25 12  1  0
 21 16  1  0
M  END
>  <energy_score>  (678) 
-50.381301

>  <inchikey>  (678) 
None

>  <smiles>  (678) 
None

>  <ref_pdb>  (678) 
A0310a

>  <alias>  (678) 
None

>  <HIPPO Pose ID>  (678) 
499285

>  <name>  (678) 
P499285

>  <HIPPO Compound ID>  (678) 
301860

>  <ref_mols>  (678) 
A1445a,A0310a

>  <distance_score>  (678) 
1.423906

>  <inspiration_score>  (678) 
None

$$$$
P499288
     RDKit          3D

 30 32  0  0  0  0  0  0  0  0999 V2000
    7.6006   14.5795   24.0897 C   0  0  0  0  0  0  0  0  0  0  0  0
    7.6632   13.1600   24.5027 C   0  0  0  0  0  0  0  0  0  0  0  0
    6.6149   12.7936   25.3734 C   0  0  0  0  0  0  0  0  0  0  0  0
    6.5471   11.5498   25.9582 C   0  0  0  0  0  0  0  0  0  0  0  0
    5.4635   11.3224   26.7903 N   0  0  0  0  0  0  0  0  0  0  0  0
    5.2606   10.2708   27.9233 C   0  0  0  0  0  0  0  0  0  0  0  0
    6.0055    9.4909   28.3750 O   0  0  0  0  0  0  0  0  0  0  0  0
    3.7819   10.3571   28.3151 C   0  0  0  0  0  0  0  0  0  0  0  0
    3.5167   10.5948   29.7987 C   0  0  1  0  0  0  0  0  0  0  0  0
    4.1228   11.9258   30.2337 C   0  0  0  0  0  0  0  0  0  0  0  0
    3.5577   13.1648   29.8921 C   0  0  0  0  0  0  0  0  0  0  0  0
    4.1779   14.3591   30.2719 C   0  0  0  0  0  0  0  0  0  0  0  0
    5.3694   14.3269   30.9910 C   0  0  0  0  0  0  0  0  0  0  0  0
    6.1392   15.7970   31.4427 Cl  0  0  0  0  0  0  0  0  0  0  0  0
    5.9464   13.1094   31.3373 C   0  0  0  0  0  0  0  0  0  0  0  0
    5.3280   11.9159   30.9585 C   0  0  0  0  0  0  0  0  0  0  0  0
    2.0047   10.4779   30.0344 C   0  0  0  0  0  0  0  0  0  0  0  0
    1.6715   10.7065   31.3203 F   0  0  0  0  0  0  0  0  0  0  0  0
    1.5695    9.2361   29.7168 F   0  0  0  0  0  0  0  0  0  0  0  0
    1.3039   11.3402   29.2592 F   0  0  0  0  0  0  0  0  0  0  0  0
    7.4881   10.6152   25.5936 C   0  0  0  0  0  0  0  0  0  0  0  0
    8.5237   10.9620   24.6945 C   0  0  0  0  0  0  0  0  0  0  0  0
    8.6852   12.2620   24.1547 C   0  0  0  0  0  0  0  0  0  0  0  0
    9.9047   12.6456   23.4712 N   0  0  0  0  0  0  0  0  0  0  0  0
   10.2825   13.7907   22.8071 C   0  0  0  0  0  0  0  0  0  0  0  0
    9.6177   14.6815   22.3130 O   0  0  0  0  0  0  0  0  0  0  0  0
   11.7671   13.8332   22.6166 C   0  0  0  0  0  0  0  0  0  0  0  0
   12.1950   12.7275   23.5160 C   0  0  0  0  0  0  0  0  0  0  0  0
   10.9930   11.8343   23.4227 C   0  0  0  0  0  0  0  0  0  0  0  0
   11.0220   10.6187   23.3687 O   0  0  0  0  0  0  0  0  0  0  0  0
  1  2  1  0
  2  3  2  0
  3  4  1  0
  4  5  1  0
  5  6  1  0
  6  7  2  0
  6  8  1  0
  9  8  1  6
  9 10  1  0
 10 11  2  0
 11 12  1  0
 12 13  2  0
 13 14  1  0
 13 15  1  0
 15 16  2  0
  9 17  1  0
 17 18  1  0
 17 19  1  0
 17 20  1  0
  4 21  2  0
 21 22  1  0
 22 23  2  0
 23 24  1  0
 24 25  1  0
 25 26  2  0
 25 27  1  0
 27 28  1  0
 28 29  1  0
 29 30  2  0
 23  2  1  0
 29 24  1  0
 16 10  1  0
M  END
>  <energy_score>  (679) 
-23.378021

>  <inchikey>  (679) 
None

>  <smiles>  (679) 
None

>  <ref_pdb>  (679) 
A0310a

>  <alias>  (679) 
None

>  <HIPPO Pose ID>  (679) 
499288

>  <name>  (679) 
P499288

>  <HIPPO Compound ID>  (679) 
301866

>  <ref_mols>  (679) 
A1445a,A0310a

>  <distance_score>  (679) 
1.333705

>  <inspiration_score>  (679) 
None

$$$$
P499290
     RDKit          3D

 30 32  0  0  0  0  0  0  0  0999 V2000
    7.6674   14.5739   24.1674 C   0  0  0  0  0  0  0  0  0  0  0  0
    7.6837   13.1476   24.5588 C   0  0  0  0  0  0  0  0  0  0  0  0
    6.6480   12.7990   25.4468 C   0  0  0  0  0  0  0  0  0  0  0  0
    6.5472   11.5394   25.9917 C   0  0  0  0  0  0  0  0  0  0  0  0
    5.4572   11.3201   26.8167 N   0  0  0  0  0  0  0  0  0  0  0  0
    5.2313   10.2573   27.9332 C   0  0  0  0  0  0  0  0  0  0  0  0
    5.9601    9.4579   28.3762 O   0  0  0  0  0  0  0  0  0  0  0  0
    3.7539   10.3664   28.3198 C   0  0  0  0  0  0  0  0  0  0  0  0
    3.4895   10.5494   29.8109 C   0  0  1  0  0  0  0  0  0  0  0  0
    4.1197   11.8462   30.3094 C   0  0  0  0  0  0  0  0  0  0  0  0
    5.2913   11.7786   31.0860 C   0  0  0  0  0  0  0  0  0  0  0  0
    5.9282   12.9410   31.5325 C   0  0  0  0  0  0  0  0  0  0  0  0
    5.4060   14.1891   31.2026 C   0  0  0  0  0  0  0  0  0  0  0  0
    6.2076   15.6126   31.7416 Cl  0  0  0  0  0  0  0  0  0  0  0  0
    4.2503   14.2681   30.4322 C   0  0  0  0  0  0  0  0  0  0  0  0
    3.7342   15.4580   30.0917 F   0  0  0  0  0  0  0  0  0  0  0  0
    3.6082   13.1121   29.9850 C   0  0  0  0  0  0  0  0  0  0  0  0
    1.9748   10.4572   30.0375 C   0  0  0  0  0  0  0  0  0  0  0  0
    1.6440   10.6449   31.3304 F   0  0  0  0  0  0  0  0  0  0  0  0
    1.5125    9.2385   29.6717 F   0  0  0  0  0  0  0  0  0  0  0  0
    1.2977   11.3645   29.2943 F   0  0  0  0  0  0  0  0  0  0  0  0
    7.4450   10.5791   25.5802 C   0  0  0  0  0  0  0  0  0  0  0  0
    8.4546   10.9057   24.6462 C   0  0  0  0  0  0  0  0  0  0  0  0
    8.6437   12.2148   24.1445 C   0  0  0  0  0  0  0  0  0  0  0  0
    9.8047   12.5430   23.3588 N   0  0  0  0  0  0  0  0  0  0  0  0
   10.9258   11.6711   23.2760 C   0  0  0  0  0  0  0  0  0  0  0  0
   12.0654   12.5971   23.6473 C   0  0  0  0  0  0  0  0  0  0  0  0
   11.7664   13.7547   22.7363 C   0  0  0  0  0  0  0  0  0  0  0  0
   10.2575   13.7560   22.7771 C   0  0  0  0  0  0  0  0  0  0  0  0
    9.6430   14.7005   22.3260 O   0  0  0  0  0  0  0  0  0  0  0  0
  1  2  1  0
  2  3  2  0
  3  4  1  0
  4  5  1  0
  5  6  1  0
  6  7  2  0
  6  8  1  0
  9  8  1  6
  9 10  1  0
 10 11  2  0
 11 12  1  0
 12 13  2  0
 13 14  1  0
 13 15  1  0
 15 16  1  0
 15 17  2  0
  9 18  1  0
 18 19  1  0
 18 20  1  0
 18 21  1  0
  4 22  2  0
 22 23  1  0
 23 24  2  0
 24 25  1  0
 25 26  1  0
 26 27  1  0
 27 28  1  0
 28 29  1  0
 29 30  2  0
 24  2  1  0
 29 25  1  0
 17 10  1  0
M  END
>  <energy_score>  (680) 
-6.40213

>  <inchikey>  (680) 
None

>  <smiles>  (680) 
None

>  <ref_pdb>  (680) 
A0310a

>  <alias>  (680) 
None

>  <HIPPO Pose ID>  (680) 
499290

>  <name>  (680) 
P499290

>  <HIPPO Compound ID>  (680) 
301873

>  <ref_mols>  (680) 
A1445a,A0310a

>  <distance_score>  (680) 
1.31728

>  <inspiration_score>  (680) 
None

$$$$
P499292
     RDKit          3D

 31 33  0  0  0  0  0  0  0  0999 V2000
    7.5758   14.6280   24.2035 C   0  0  0  0  0  0  0  0  0  0  0  0
    7.6110   13.1969   24.5818 C   0  0  0  0  0  0  0  0  0  0  0  0
    6.5574   12.8246   25.4430 C   0  0  0  0  0  0  0  0  0  0  0  0
    6.4807   11.5706   26.0059 C   0  0  0  0  0  0  0  0  0  0  0  0
    5.3985   11.3317   26.8357 N   0  0  0  0  0  0  0  0  0  0  0  0
    5.1867   10.2484   27.9349 C   0  0  0  0  0  0  0  0  0  0  0  0
    5.9226    9.4447   28.3577 O   0  0  0  0  0  0  0  0  0  0  0  0
    3.7138   10.3390   28.3388 C   0  0  0  0  0  0  0  0  0  0  0  0
    3.4716   10.5944   29.8235 C   0  0  1  0  0  0  0  0  0  0  0  0
    4.1050   11.9214   30.2358 C   0  0  0  0  0  0  0  0  0  0  0  0
    3.4980   13.1660   30.0033 C   0  0  0  0  0  0  0  0  0  0  0  0
    4.1516   14.3565   30.3470 C   0  0  0  0  0  0  0  0  0  0  0  0
    5.4225   14.3187   30.9180 C   0  0  0  0  0  0  0  0  0  0  0  0
    6.2227   15.7898   31.3118 Cl  0  0  0  0  0  0  0  0  0  0  0  0
    6.0345   13.0923   31.1494 C   0  0  0  0  0  0  0  0  0  0  0  0
    7.2642   13.0265   31.6813 F   0  0  0  0  0  0  0  0  0  0  0  0
    5.3872   11.9039   30.8158 C   0  0  0  0  0  0  0  0  0  0  0  0
    1.9614   10.4862   30.0723 C   0  0  0  0  0  0  0  0  0  0  0  0
    1.6416   10.7345   31.3576 F   0  0  0  0  0  0  0  0  0  0  0  0
    1.5179    9.2435   29.7736 F   0  0  0  0  0  0  0  0  0  0  0  0
    1.2606   11.3439   29.2922 F   0  0  0  0  0  0  0  0  0  0  0  0
    7.4161   10.6342   25.6313 C   0  0  0  0  0  0  0  0  0  0  0  0
    8.4490   10.9845   24.7336 C   0  0  0  0  0  0  0  0  0  0  0  0
    8.6150   12.2894   24.2070 C   0  0  0  0  0  0  0  0  0  0  0  0
    9.8251   12.6683   23.5096 N   0  0  0  0  0  0  0  0  0  0  0  0
   10.1927   13.8043   22.8286 C   0  0  0  0  0  0  0  0  0  0  0  0
    9.5159   14.6811   22.3257 O   0  0  0  0  0  0  0  0  0  0  0  0
   11.6738   13.8493   22.6191 C   0  0  0  0  0  0  0  0  0  0  0  0
   12.1159   12.7169   23.4781 C   0  0  0  0  0  0  0  0  0  0  0  0
   10.8980   11.8416   23.4156 C   0  0  0  0  0  0  0  0  0  0  0  0
   10.8945   10.6274   23.3487 O   0  0  0  0  0  0  0  0  0  0  0  0
  1  2  1  0
  2  3  2  0
  3  4  1  0
  4  5  1  0
  5  6  1  0
  6  7  2  0
  6  8  1  0
  9  8  1  6
  9 10  1  0
 10 11  2  0
 11 12  1  0
 12 13  2  0
 13 14  1  0
 13 15  1  0
 15 16  1  0
 15 17  2  0
  9 18  1  0
 18 19  1  0
 18 20  1  0
 18 21  1  0
  4 22  2  0
 22 23  1  0
 23 24  2  0
 24 25  1  0
 25 26  1  0
 26 27  2  0
 26 28  1  0
 28 29  1  0
 29 30  1  0
 30 31  2  0
 24  2  1  0
 30 25  1  0
 17 10  1  0
M  END
>  <energy_score>  (681) 
-6.245754

>  <inchikey>  (681) 
None

>  <smiles>  (681) 
None

>  <ref_pdb>  (681) 
A0310a

>  <alias>  (681) 
None

>  <HIPPO Pose ID>  (681) 
499292

>  <name>  (681) 
P499292

>  <HIPPO Compound ID>  (681) 
301888

>  <ref_mols>  (681) 
A1445a,A0310a

>  <distance_score>  (681) 
1.360196

>  <inspiration_score>  (681) 
None

$$$$
P499296
     RDKit          3D

 20 21  0  0  0  0  0  0  0  0999 V2000
   23.6868   14.7259   -0.2038 O   0  0  0  0  0  0  0  0  0  0  0  0
   23.9104   14.1064    0.7574 C   0  0  0  0  0  0  0  0  0  0  0  0
   24.8427   12.8938    0.9722 N   0  0  0  0  0  0  0  0  0  0  0  0
   25.7531   12.2600    0.0825 C   0  0  0  0  0  0  0  0  0  0  0  0
   27.1716   12.7622    0.3405 C   0  0  0  0  0  0  0  0  0  0  0  0
   27.8072   12.5110    2.0266 S   0  0  0  0  0  0  0  0  0  0  0  0
   26.5484   12.4243    3.0944 O   0  0  0  0  0  0  0  0  0  0  0  0
   28.5582   10.8936    1.8186 C   0  0  0  0  0  0  0  0  0  0  0  0
   27.6102    9.8508    1.3107 C   0  0  0  0  0  0  0  0  0  0  0  0
   28.1573    8.6131    1.4265 F   0  0  0  0  0  0  0  0  0  0  0  0
   27.3599   10.0258   -0.0066 F   0  0  0  0  0  0  0  0  0  0  0  0
   26.4455    9.8136    1.9681 F   0  0  0  0  0  0  0  0  0  0  0  0
   23.3782   14.4267    2.1528 C   0  0  1  0  0  0  0  0  0  0  0  0
   24.4814   15.2520    2.8798 C   0  0  0  0  0  0  0  0  0  0  0  0
   24.1608   16.7259    2.5515 C   0  0  0  0  0  0  0  0  0  0  0  0
   22.7410   16.6659    2.2774 N   0  0  0  0  0  0  0  0  0  0  0  0
   21.7180   17.5307    2.1979 C   0  0  0  0  0  0  0  0  0  0  0  0
   20.6266   16.7105    1.9607 C   0  0  0  0  0  0  0  0  0  0  0  0
   20.9826   15.3754    1.9206 N   0  0  0  0  0  0  0  0  0  0  0  0
   22.2800   15.4024    2.0810 C   0  0  0  0  0  0  0  0  0  0  0  0
  1  2  2  0
  2  3  1  0
  3  4  1  0
  4  5  1  0
  5  6  1  0
  6  7  1  1
  6  8  1  0
  8  9  1  0
  9 10  1  0
  9 11  1  0
  9 12  1  0
 13  2  1  6
 13 14  1  0
 14 15  1  0
 15 16  1  0
 16 17  1  0
 17 18  2  0
 18 19  1  0
 19 20  2  0
 20 13  1  0
 20 16  1  0
M  CHG  2   6   1   7  -1
M  END
>  <energy_score>  (682) 
-15.999901

>  <inchikey>  (682) 
None

>  <smiles>  (682) 
None

>  <ref_pdb>  (682) 
A0239a

>  <alias>  (682) 
None

>  <HIPPO Pose ID>  (682) 
499296

>  <name>  (682) 
P499296

>  <HIPPO Compound ID>  (682) 
301935

>  <ref_mols>  (682) 
A0239a,A0309a

>  <distance_score>  (682) 
1.590633

>  <inspiration_score>  (682) 
None

$$$$
P499299
     RDKit          3D

 20 20  0  0  0  0  0  0  0  0999 V2000
   24.7251   15.3063   -0.0328 C   0  0  0  0  0  0  0  0  0  0  0  0
   23.4923   14.4622    0.3454 C   0  0  0  0  0  0  0  0  0  0  0  0
   22.6313   14.2358   -0.9072 C   0  0  0  0  0  0  0  0  0  0  0  0
   24.0462   13.1149    0.8312 C   0  0  0  0  0  0  0  0  0  0  0  0
   23.9023   12.1355    0.2130 O   0  0  0  0  0  0  0  0  0  0  0  0
   24.8448   13.3716    2.1316 N   0  0  0  0  0  0  0  0  0  0  0  0
   25.7032   12.5045    2.8825 C   0  0  0  0  0  0  0  0  0  0  0  0
   27.1241   12.7814    2.4121 C   0  0  0  0  0  0  0  0  0  0  0  0
   28.2886   11.5288    2.9648 S   0  0  0  0  0  0  0  0  0  0  0  0
   29.6845   12.3158    3.4056 O   0  0  0  0  0  0  0  0  0  0  0  0
   28.6255   10.7645    1.3632 C   0  0  0  0  0  0  0  0  0  0  0  0
   27.4840    9.9468    0.8312 C   0  0  0  0  0  0  0  0  0  0  0  0
   26.3812   10.6767    0.6069 F   0  0  0  0  0  0  0  0  0  0  0  0
   27.1681    8.9205    1.6495 F   0  0  0  0  0  0  0  0  0  0  0  0
   27.8435    9.3912   -0.3542 F   0  0  0  0  0  0  0  0  0  0  0  0
   22.6609   15.1661    1.3714 C   0  0  0  0  0  0  0  0  0  0  0  0
   22.8808   16.3737    1.8528 N   0  0  0  0  0  0  0  0  0  0  0  0
   21.7343   16.7254    2.5055 C   0  0  0  0  0  0  0  0  0  0  0  0
   20.8219   15.6997    2.4677 C   0  0  0  0  0  0  0  0  0  0  0  0
   21.4533   14.6831    1.8110 N   0  0  0  0  0  0  0  0  0  0  0  0
  1  2  1  0
  2  3  1  0
  2  4  1  0
  4  5  2  0
  4  6  1  0
  6  7  1  0
  7  8  1  0
  8  9  1  0
  9 10  1  6
  9 11  1  0
 11 12  1  0
 12 13  1  0
 12 14  1  0
 12 15  1  0
  2 16  1  0
 16 17  2  0
 17 18  1  0
 18 19  2  0
 19 20  1  0
 20 16  1  0
M  CHG  2   9   1  10  -1
M  END
>  <energy_score>  (683) 
-12.015114

>  <inchikey>  (683) 
None

>  <smiles>  (683) 
None

>  <ref_pdb>  (683) 
A0239a

>  <alias>  (683) 
None

>  <HIPPO Pose ID>  (683) 
499299

>  <name>  (683) 
P499299

>  <HIPPO Compound ID>  (683) 
301936

>  <ref_mols>  (683) 
A0239a,A0309a

>  <distance_score>  (683) 
1.299176

>  <inspiration_score>  (683) 
None

$$$$
P499301
     RDKit          3D

 20 20  0  0  0  0  0  0  0  0999 V2000
   24.6158   15.4948    3.5816 C   0  0  0  0  0  0  0  0  0  0  0  0
   23.6016   14.6151    2.8525 C   0  0  2  0  0  0  0  0  0  0  0  0
   24.4101   13.6573    1.9848 C   0  0  0  0  0  0  0  0  0  0  0  0
   24.5163   13.7312    0.8244 O   0  0  0  0  0  0  0  0  0  0  0  0
   25.0914   12.6958    2.9991 N   0  0  0  0  0  0  0  0  0  0  0  0
   26.0982   11.7085    2.8033 C   0  0  0  0  0  0  0  0  0  0  0  0
   27.3212   12.3930    2.2273 C   0  0  0  0  0  0  0  0  0  0  0  0
   28.7808   11.3704    2.4446 S   0  0  0  0  0  0  0  0  0  0  0  0
   30.0871   12.3881    2.5609 O   0  0  0  0  0  0  0  0  0  0  0  0
   28.8178   10.6601    0.7909 C   0  0  0  0  0  0  0  0  0  0  0  0
   27.6753    9.7326    0.4862 C   0  0  0  0  0  0  0  0  0  0  0  0
   27.9764    8.9841   -0.6052 F   0  0  0  0  0  0  0  0  0  0  0  0
   26.5382   10.3905    0.2019 F   0  0  0  0  0  0  0  0  0  0  0  0
   27.4345    8.8619    1.4903 F   0  0  0  0  0  0  0  0  0  0  0  0
   22.6082   15.4053    2.0646 C   0  0  0  0  0  0  0  0  0  0  0  0
   21.3014   15.2043    2.1249 N   0  0  0  0  0  0  0  0  0  0  0  0
   20.7315   16.1887    1.3706 C   0  0  0  0  0  0  0  0  0  0  0  0
   21.6930   17.0126    0.8447 C   0  0  0  0  0  0  0  0  0  0  0  0
   22.8873   16.4913    1.2635 N   0  0  0  0  0  0  0  0  0  0  0  0
   24.1744   17.0476    0.9202 C   0  0  0  0  0  0  0  0  0  0  0  0
  2  1  1  6
  2  3  1  0
  3  4  2  0
  3  5  1  0
  5  6  1  0
  6  7  1  0
  7  8  1  0
  8  9  1  6
  8 10  1  0
 10 11  1  0
 11 12  1  0
 11 13  1  0
 11 14  1  0
  2 15  1  0
 15 16  2  0
 16 17  1  0
 17 18  2  0
 18 19  1  0
 19 20  1  0
 19 15  1  0
M  CHG  2   8   1   9  -1
M  END
>  <energy_score>  (684) 
-1.790984

>  <inchikey>  (684) 
None

>  <smiles>  (684) 
None

>  <ref_pdb>  (684) 
A0239a

>  <alias>  (684) 
None

>  <HIPPO Pose ID>  (684) 
499301

>  <name>  (684) 
P499301

>  <HIPPO Compound ID>  (684) 
301937

>  <ref_mols>  (684) 
A0239a,A0309a

>  <distance_score>  (684) 
1.295493

>  <inspiration_score>  (684) 
None

$$$$
P499305
     RDKit          3D

 20 20  0  0  0  0  0  0  0  0999 V2000
   18.4312   16.7057    2.5662 C   0  0  0  0  0  0  0  0  0  0  0  0
   19.3621   16.7834    1.3651 C   0  0  0  0  0  0  0  0  0  0  0  0
   20.7731   16.5925    1.7771 C   0  0  0  0  0  0  0  0  0  0  0  0
   21.8112   17.4741    1.9817 C   0  0  0  0  0  0  0  0  0  0  0  0
   22.9332   16.8186    2.4140 N   0  0  0  0  0  0  0  0  0  0  0  0
   22.5934   15.5494    2.4798 C   0  0  0  0  0  0  0  0  0  0  0  0
   23.4301   14.4172    2.9337 C   0  0  0  0  0  0  0  0  0  0  0  0
   23.7778   13.5932    1.7000 C   0  0  0  0  0  0  0  0  0  0  0  0
   22.9640   13.0533    1.0597 O   0  0  0  0  0  0  0  0  0  0  0  0
   25.3111   13.6759    1.5100 N   0  0  0  0  0  0  0  0  0  0  0  0
   26.1660   13.0374    0.5532 C   0  0  0  0  0  0  0  0  0  0  0  0
   27.6345   13.1506    0.9019 C   0  0  0  0  0  0  0  0  0  0  0  0
   28.0753   12.3275    2.4595 S   0  0  0  0  0  0  0  0  0  0  0  0
   29.4181   13.1081    3.0476 O   0  0  0  0  0  0  0  0  0  0  0  0
   28.6553   10.7768    1.7380 C   0  0  0  0  0  0  0  0  0  0  0  0
   27.5121    9.9285    1.2618 C   0  0  0  0  0  0  0  0  0  0  0  0
   27.1875   10.2237   -0.0161 F   0  0  0  0  0  0  0  0  0  0  0  0
   27.8585    8.6160    1.2884 F   0  0  0  0  0  0  0  0  0  0  0  0
   26.4100   10.0591    2.0181 F   0  0  0  0  0  0  0  0  0  0  0  0
   21.3052   15.3619    2.0510 N   0  0  0  0  0  0  0  0  0  0  0  0
  1  2  1  0
  2  3  1  0
  3  4  2  0
  4  5  1  0
  5  6  2  0
  6  7  1  0
  7  8  1  0
  8  9  2  0
  8 10  1  0
 10 11  1  0
 11 12  1  0
 12 13  1  0
 13 14  1  6
 13 15  1  0
 15 16  1  0
 16 17  1  0
 16 18  1  0
 16 19  1  0
  6 20  1  0
 20  3  1  0
M  CHG  2  13   1  14  -1
M  END
>  <energy_score>  (685) 
-12.133308

>  <inchikey>  (685) 
None

>  <smiles>  (685) 
None

>  <ref_pdb>  (685) 
A0239a

>  <alias>  (685) 
None

>  <HIPPO Pose ID>  (685) 
499305

>  <name>  (685) 
P499305

>  <HIPPO Compound ID>  (685) 
301938

>  <ref_mols>  (685) 
A0239a,A0309a

>  <distance_score>  (685) 
1.42545

>  <inspiration_score>  (685) 
None

$$$$
P499307
     RDKit          3D

 20 20  0  0  0  0  0  0  0  0999 V2000
   22.2047   19.0872    1.7751 C   0  0  0  0  0  0  0  0  0  0  0  0
   22.0410   17.6235    1.6273 C   0  0  0  0  0  0  0  0  0  0  0  0
   22.5725   16.7657    2.5567 N   0  0  0  0  0  0  0  0  0  0  0  0
   22.2644   15.5569    2.1437 C   0  0  0  0  0  0  0  0  0  0  0  0
   22.5474   14.2870    2.8312 C   0  0  0  0  0  0  0  0  0  0  0  0
   23.7685   13.6468    2.1988 C   0  0  0  0  0  0  0  0  0  0  0  0
   23.7028   12.9774    1.2435 O   0  0  0  0  0  0  0  0  0  0  0  0
   24.9848   14.0085    3.0909 N   0  0  0  0  0  0  0  0  0  0  0  0
   26.3429   13.5472    3.0463 C   0  0  0  0  0  0  0  0  0  0  0  0
   26.9003   13.3693    1.6491 C   0  0  0  0  0  0  0  0  0  0  0  0
   28.5527   12.6251    1.6688 S   0  0  0  0  0  0  0  0  0  0  0  0
   29.4190   13.3123    2.9044 O   0  0  0  0  0  0  0  0  0  0  0  0
   28.1294   10.9472    2.1498 C   0  0  0  0  0  0  0  0  0  0  0  0
   27.4647   10.1848    1.0424 C   0  0  0  0  0  0  0  0  0  0  0  0
   26.2613   10.6877    0.7178 F   0  0  0  0  0  0  0  0  0  0  0  0
   27.2867    8.8900    1.4103 F   0  0  0  0  0  0  0  0  0  0  0  0
   28.2236   10.1648   -0.0770 F   0  0  0  0  0  0  0  0  0  0  0  0
   21.5763   15.5981    0.9615 N   0  0  0  0  0  0  0  0  0  0  0  0
   21.3928   16.9150    0.6345 C   0  0  0  0  0  0  0  0  0  0  0  0
   20.6710   17.3421   -0.5839 C   0  0  0  0  0  0  0  0  0  0  0  0
  1  2  1  0
  2  3  1  0
  3  4  2  0
  4  5  1  0
  5  6  1  0
  6  7  2  0
  6  8  1  0
  8  9  1  0
  9 10  1  0
 10 11  1  0
 11 12  1  1
 11 13  1  0
 13 14  1  0
 14 15  1  0
 14 16  1  0
 14 17  1  0
  4 18  1  0
 18 19  1  0
 19 20  1  0
 19  2  2  0
M  CHG  2  11   1  12  -1
M  END
>  <energy_score>  (686) 
-22.716397

>  <inchikey>  (686) 
None

>  <smiles>  (686) 
None

>  <ref_pdb>  (686) 
A0239a

>  <alias>  (686) 
None

>  <HIPPO Pose ID>  (686) 
499307

>  <name>  (686) 
P499307

>  <HIPPO Compound ID>  (686) 
301939

>  <ref_mols>  (686) 
A0239a,A0309a

>  <distance_score>  (686) 
1.899398

>  <inspiration_score>  (686) 
None

$$$$
P499308
     RDKit          3D

 20 20  0  0  0  0  0  0  0  0999 V2000
   24.3662   16.8977    1.5442 C   0  0  0  0  0  0  0  0  0  0  0  0
   23.0264   16.3572    1.5965 N   0  0  0  0  0  0  0  0  0  0  0  0
   21.9544   17.0088    2.1479 C   0  0  0  0  0  0  0  0  0  0  0  0
   20.8864   16.1765    1.9378 C   0  0  0  0  0  0  0  0  0  0  0  0
   19.0934   16.5599    2.3418 Br  0  0  0  0  0  0  0  0  0  0  0  0
   21.2758   15.0229    1.3245 N   0  0  0  0  0  0  0  0  0  0  0  0
   22.5622   15.1721    1.0611 C   0  0  0  0  0  0  0  0  0  0  0  0
   23.3240   14.2321    0.1888 C   0  0  0  0  0  0  0  0  0  0  0  0
   24.7285   13.9795    0.6898 C   0  0  0  0  0  0  0  0  0  0  0  0
   25.6650   14.4293    0.1547 O   0  0  0  0  0  0  0  0  0  0  0  0
   24.6242   13.1015    1.9650 N   0  0  0  0  0  0  0  0  0  0  0  0
   25.6553   12.5192    2.7875 C   0  0  0  0  0  0  0  0  0  0  0  0
   27.0684   12.9088    2.3747 C   0  0  0  0  0  0  0  0  0  0  0  0
   28.2742   11.6865    2.9594 S   0  0  0  0  0  0  0  0  0  0  0  0
   29.6700   12.5067    3.3321 O   0  0  0  0  0  0  0  0  0  0  0  0
   28.5735   10.8605    1.3787 C   0  0  0  0  0  0  0  0  0  0  0  0
   27.3831   10.1020    0.8674 C   0  0  0  0  0  0  0  0  0  0  0  0
   27.0134    9.1126    1.7077 F   0  0  0  0  0  0  0  0  0  0  0  0
   26.3177   10.8939    0.6439 F   0  0  0  0  0  0  0  0  0  0  0  0
   27.6918    9.5067   -0.3117 F   0  0  0  0  0  0  0  0  0  0  0  0
  1  2  1  0
  2  3  1  0
  3  4  2  0
  4  5  1  0
  4  6  1  0
  6  7  2  0
  7  8  1  0
  8  9  1  0
  9 10  2  0
  9 11  1  0
 11 12  1  0
 12 13  1  0
 13 14  1  0
 14 15  1  6
 14 16  1  0
 16 17  1  0
 17 18  1  0
 17 19  1  0
 17 20  1  0
  7  2  1  0
M  CHG  2  14   1  15  -1
M  END
>  <energy_score>  (687) 
-10.630215

>  <inchikey>  (687) 
None

>  <smiles>  (687) 
None

>  <ref_pdb>  (687) 
A0239a

>  <alias>  (687) 
None

>  <HIPPO Pose ID>  (687) 
499308

>  <name>  (687) 
P499308

>  <HIPPO Compound ID>  (687) 
301940

>  <ref_mols>  (687) 
A0239a,A0309a

>  <distance_score>  (687) 
1.363128

>  <inspiration_score>  (687) 
None

$$$$
P499311
     RDKit          3D

 20 20  0  0  0  0  0  0  0  0999 V2000
   24.3422   14.7236   -0.8675 O   0  0  0  0  0  0  0  0  0  0  0  0
   24.5641   14.5884    0.2757 C   0  0  0  0  0  0  0  0  0  0  0  0
   25.9216   14.5772    1.0480 N   0  0  0  0  0  0  0  0  0  0  0  0
   27.2703   14.6339    0.5616 C   0  0  0  0  0  0  0  0  0  0  0  0
   27.8397   13.2210    0.5201 C   0  0  0  0  0  0  0  0  0  0  0  0
   28.2797   12.6636    2.1870 S   0  0  0  0  0  0  0  0  0  0  0  0
   26.9661   12.8564    3.1654 O   0  0  0  0  0  0  0  0  0  0  0  0
   28.5133   10.9224    1.8158 C   0  0  0  0  0  0  0  0  0  0  0  0
   27.2812   10.2122    1.3194 C   0  0  0  0  0  0  0  0  0  0  0  0
   27.4101    8.8727    1.5264 F   0  0  0  0  0  0  0  0  0  0  0  0
   27.1550   10.3603   -0.0226 F   0  0  0  0  0  0  0  0  0  0  0  0
   26.1374   10.6130    1.8900 F   0  0  0  0  0  0  0  0  0  0  0  0
   23.4704   14.2684    1.3299 C   0  0  0  0  0  0  0  0  0  0  0  0
   24.0219   13.7440    2.4647 F   0  0  0  0  0  0  0  0  0  0  0  0
   22.6021   13.3150    0.8624 F   0  0  0  0  0  0  0  0  0  0  0  0
   22.6969   15.5023    1.6505 C   0  0  0  0  0  0  0  0  0  0  0  0
   23.1245   16.7293    1.8898 N   0  0  0  0  0  0  0  0  0  0  0  0
   22.0001   17.4770    2.1155 C   0  0  0  0  0  0  0  0  0  0  0  0
   20.8709   16.7003    2.0258 C   0  0  0  0  0  0  0  0  0  0  0  0
   21.3268   15.4454    1.7454 N   0  0  0  0  0  0  0  0  0  0  0  0
  1  2  2  0
  2  3  1  0
  3  4  1  0
  4  5  1  0
  5  6  1  0
  6  7  1  1
  6  8  1  0
  8  9  1  0
  9 10  1  0
  9 11  1  0
  9 12  1  0
  2 13  1  0
 13 14  1  0
 13 15  1  0
 13 16  1  0
 16 17  2  0
 17 18  1  0
 18 19  2  0
 19 20  1  0
 20 16  1  0
M  CHG  2   6   1   7  -1
M  END
>  <energy_score>  (688) 
-14.976075

>  <inchikey>  (688) 
None

>  <smiles>  (688) 
None

>  <ref_pdb>  (688) 
A0239a

>  <alias>  (688) 
None

>  <HIPPO Pose ID>  (688) 
499311

>  <name>  (688) 
P499311

>  <HIPPO Compound ID>  (688) 
301941

>  <ref_mols>  (688) 
A0239a,A0309a

>  <distance_score>  (688) 
1.647108

>  <inspiration_score>  (688) 
None

$$$$
P499313
     RDKit          3D

 21 22  0  0  0  0  0  0  0  0999 V2000
   25.5896   16.0339    2.6653 O   0  0  0  0  0  0  0  0  0  0  0  0
   25.3091   14.9755    2.2549 C   0  0  0  0  0  0  0  0  0  0  0  0
   26.1537   13.6654    2.1774 N   0  0  0  0  0  0  0  0  0  0  0  0
   27.5356   13.4246    2.5007 C   0  0  0  0  0  0  0  0  0  0  0  0
   27.8325   11.9944    2.9261 C   0  0  0  0  0  0  0  0  0  0  0  0
   27.8797   10.7867    1.5810 S   0  0  0  0  0  0  0  0  0  0  0  0
   26.4588   10.8975    0.7378 O   0  0  0  0  0  0  0  0  0  0  0  0
   29.2133   11.4544    0.5570 C   0  0  0  0  0  0  0  0  0  0  0  0
   30.5099   11.6355    1.3035 C   0  0  0  0  0  0  0  0  0  0  0  0
   30.4864   12.7632    2.0499 F   0  0  0  0  0  0  0  0  0  0  0  0
   30.7714   10.6037    2.1265 F   0  0  0  0  0  0  0  0  0  0  0  0
   31.5379   11.7572    0.4337 F   0  0  0  0  0  0  0  0  0  0  0  0
   23.8901   14.6141    1.7615 C   0  0  1  0  0  0  0  0  0  0  0  0
   23.1227   14.0327    2.9531 C   0  0  0  0  0  0  0  0  0  0  0  0
   21.6164   13.9917    2.7013 C   0  0  0  0  0  0  0  0  0  0  0  0
   21.0305   15.3501    2.3939 C   0  0  0  0  0  0  0  0  0  0  0  0
   21.8694   16.0938    1.4919 N   0  0  0  0  0  0  0  0  0  0  0  0
   21.5136   17.2385    0.8514 C   0  0  0  0  0  0  0  0  0  0  0  0
   22.6393   17.6008    0.1553 C   0  0  0  0  0  0  0  0  0  0  0  0
   23.6466   16.6913    0.3422 N   0  0  0  0  0  0  0  0  0  0  0  0
   23.1826   15.8125    1.2052 C   0  0  0  0  0  0  0  0  0  0  0  0
  1  2  2  0
  2  3  1  0
  3  4  1  0
  4  5  1  0
  5  6  1  0
  6  7  1  6
  6  8  1  0
  8  9  1  0
  9 10  1  0
  9 11  1  0
  9 12  1  0
 13  2  1  1
 13 14  1  0
 14 15  1  0
 15 16  1  0
 16 17  1  0
 17 18  1  0
 18 19  2  0
 19 20  1  0
 20 21  2  0
 21 13  1  0
 21 17  1  0
M  CHG  2   6   1   7  -1
M  END
>  <energy_score>  (689) 
-27.532326

>  <inchikey>  (689) 
None

>  <smiles>  (689) 
None

>  <ref_pdb>  (689) 
A0239a

>  <alias>  (689) 
None

>  <HIPPO Pose ID>  (689) 
499313

>  <name>  (689) 
P499313

>  <HIPPO Compound ID>  (689) 
301942

>  <ref_mols>  (689) 
A0239a,A0309a

>  <distance_score>  (689) 
1.787631

>  <inspiration_score>  (689) 
None

$$$$
P499320
     RDKit          3D

 21 21  0  0  0  0  0  0  0  0999 V2000
   24.2359   17.3694    1.8995 C   0  0  0  0  0  0  0  0  0  0  0  0
   22.9739   16.6689    1.9546 N   0  0  0  0  0  0  0  0  0  0  0  0
   21.8547   17.2171    2.5268 C   0  0  0  0  0  0  0  0  0  0  0  0
   20.8895   16.2505    2.4445 C   0  0  0  0  0  0  0  0  0  0  0  0
   21.3819   15.1396    1.8352 N   0  0  0  0  0  0  0  0  0  0  0  0
   22.6203   15.4251    1.4609 C   0  0  0  0  0  0  0  0  0  0  0  0
   23.3839   14.5518    0.4925 C   0  0  0  0  0  0  0  0  0  0  0  0
   24.5785   15.2143   -0.2037 C   0  0  0  0  0  0  0  0  0  0  0  0
   22.3870   14.1063   -0.6026 C   0  0  0  0  0  0  0  0  0  0  0  0
   23.9910   13.2955    1.1338 C   0  0  0  0  0  0  0  0  0  0  0  0
   23.8338   12.2391    0.6618 O   0  0  0  0  0  0  0  0  0  0  0  0
   24.8521   13.7361    2.3462 N   0  0  0  0  0  0  0  0  0  0  0  0
   25.7636   12.9881    3.1607 C   0  0  0  0  0  0  0  0  0  0  0  0
   26.4667   11.9991    2.2528 C   0  0  0  0  0  0  0  0  0  0  0  0
   28.0889   11.5055    2.8301 S   0  0  0  0  0  0  0  0  0  0  0  0
   28.9915   12.8807    3.0681 O   0  0  0  0  0  0  0  0  0  0  0  0
   28.6507   10.7972    1.2595 C   0  0  0  0  0  0  0  0  0  0  0  0
   27.7500    9.7453    0.6681 C   0  0  0  0  0  0  0  0  0  0  0  0
   26.5680   10.2210    0.2428 F   0  0  0  0  0  0  0  0  0  0  0  0
   27.5250    8.7199    1.5179 F   0  0  0  0  0  0  0  0  0  0  0  0
   28.3523    9.2093   -0.4262 F   0  0  0  0  0  0  0  0  0  0  0  0
  1  2  1  0
  2  3  1  0
  3  4  2  0
  4  5  1  0
  5  6  2  0
  6  7  1  0
  7  8  1  0
  7  9  1  0
  7 10  1  0
 10 11  2  0
 10 12  1  0
 12 13  1  0
 13 14  1  0
 14 15  1  0
 15 16  1  6
 15 17  1  0
 17 18  1  0
 18 19  1  0
 18 20  1  0
 18 21  1  0
  6  2  1  0
M  CHG  2  15   1  16  -1
M  END
>  <energy_score>  (690) 
-12.699315

>  <inchikey>  (690) 
None

>  <smiles>  (690) 
None

>  <ref_pdb>  (690) 
A0239a

>  <alias>  (690) 
None

>  <HIPPO Pose ID>  (690) 
499320

>  <name>  (690) 
P499320

>  <HIPPO Compound ID>  (690) 
301944

>  <ref_mols>  (690) 
A0239a,A0309a

>  <distance_score>  (690) 
1.290632

>  <inspiration_score>  (690) 
None

$$$$
P499321
     RDKit          3D

 21 22  0  0  0  0  0  0  0  0999 V2000
   24.0452   13.7200    2.9648 C   0  0  0  0  0  0  0  0  0  0  0  0
   23.8760   14.4713    1.6526 C   0  0  1  0  0  0  0  0  0  0  0  0
   25.2385   15.0048    1.1269 C   0  0  0  0  0  0  0  0  0  0  0  0
   25.4563   16.1353    0.9321 O   0  0  0  0  0  0  0  0  0  0  0  0
   26.1544   13.7581    0.9556 N   0  0  0  0  0  0  0  0  0  0  0  0
   27.4789   13.6443    0.4248 C   0  0  0  0  0  0  0  0  0  0  0  0
   28.5368   13.5832    1.5067 C   0  0  0  0  0  0  0  0  0  0  0  0
   28.4151   12.2403    2.7174 S   0  0  0  0  0  0  0  0  0  0  0  0
   29.8540   12.2376    3.5477 O   0  0  0  0  0  0  0  0  0  0  0  0
   28.4709   10.8512    1.5751 C   0  0  0  0  0  0  0  0  0  0  0  0
   27.0830   10.3995    1.2061 C   0  0  0  0  0  0  0  0  0  0  0  0
   26.0990   11.0505    1.8605 F   0  0  0  0  0  0  0  0  0  0  0  0
   26.8553   10.6178   -0.1105 F   0  0  0  0  0  0  0  0  0  0  0  0
   26.9424    9.0726    1.4232 F   0  0  0  0  0  0  0  0  0  0  0  0
   23.1631   13.6553    0.5209 C   0  0  0  0  0  0  0  0  0  0  0  0
   22.4367   14.7189   -0.3316 C   0  0  0  0  0  0  0  0  0  0  0  0
   22.1564   15.7330    0.6617 N   0  0  0  0  0  0  0  0  0  0  0  0
   21.2020   16.6569    0.8589 C   0  0  0  0  0  0  0  0  0  0  0  0
   21.3997   17.0428    2.1702 C   0  0  0  0  0  0  0  0  0  0  0  0
   22.4287   16.3345    2.7578 N   0  0  0  0  0  0  0  0  0  0  0  0
   22.8960   15.5863    1.7928 C   0  0  0  0  0  0  0  0  0  0  0  0
  2  1  1  1
  2  3  1  0
  3  4  2  0
  3  5  1  0
  5  6  1  0
  6  7  1  0
  7  8  1  0
  8  9  1  1
  8 10  1  0
 10 11  1  0
 11 12  1  0
 11 13  1  0
 11 14  1  0
  2 15  1  0
 15 16  1  0
 16 17  1  0
 17 18  1  0
 18 19  2  0
 19 20  1  0
 20 21  2  0
 21  2  1  0
 21 17  1  0
M  CHG  2   8   1   9  -1
M  END
>  <energy_score>  (691) 
-11.913783

>  <inchikey>  (691) 
None

>  <smiles>  (691) 
None

>  <ref_pdb>  (691) 
A0239a

>  <alias>  (691) 
None

>  <HIPPO Pose ID>  (691) 
499321

>  <name>  (691) 
P499321

>  <HIPPO Compound ID>  (691) 
301945

>  <ref_mols>  (691) 
A0239a,A0309a

>  <distance_score>  (691) 
1.93449

>  <inspiration_score>  (691) 
None

$$$$
P499323
     RDKit          3D

 21 22  0  0  0  0  0  0  0  0999 V2000
   19.2840   17.0670    1.7246 C   0  0  0  0  0  0  0  0  0  0  0  0
   20.6913   16.6583    1.9259 C   0  0  0  0  0  0  0  0  0  0  0  0
   21.7955   17.4554    2.2033 C   0  0  0  0  0  0  0  0  0  0  0  0
   22.8083   16.5778    2.2709 N   0  0  0  0  0  0  0  0  0  0  0  0
   22.3358   15.3262    2.0337 C   0  0  0  0  0  0  0  0  0  0  0  0
   21.0414   15.3176    1.8555 N   0  0  0  0  0  0  0  0  0  0  0  0
   23.4132   14.3314    2.1243 C   0  0  1  0  0  0  0  0  0  0  0  0
   24.0116   14.0337    0.7527 C   0  0  0  0  0  0  0  0  0  0  0  0
   23.8870   14.7096   -0.1888 O   0  0  0  0  0  0  0  0  0  0  0  0
   24.8524   12.7513    0.9622 N   0  0  0  0  0  0  0  0  0  0  0  0
   25.7773   12.0977    0.0937 C   0  0  0  0  0  0  0  0  0  0  0  0
   27.1896   12.6080    0.3634 C   0  0  0  0  0  0  0  0  0  0  0  0
   27.7821   12.2484    2.0519 S   0  0  0  0  0  0  0  0  0  0  0  0
   28.9486   13.3719    2.4131 O   0  0  0  0  0  0  0  0  0  0  0  0
   28.6458   10.7095    1.6562 C   0  0  0  0  0  0  0  0  0  0  0  0
   27.6747    9.6466    1.2349 C   0  0  0  0  0  0  0  0  0  0  0  0
   28.1693    8.4061    1.4656 F   0  0  0  0  0  0  0  0  0  0  0  0
   26.5131    9.7167    1.9092 F   0  0  0  0  0  0  0  0  0  0  0  0
   27.4076    9.7116   -0.0871 F   0  0  0  0  0  0  0  0  0  0  0  0
   24.5026   15.1227    2.9083 C   0  0  0  0  0  0  0  0  0  0  0  0
   24.2200   16.6094    2.5925 C   0  0  0  0  0  0  0  0  0  0  0  0
  1  2  1  0
  2  3  2  0
  3  4  1  0
  4  5  1  0
  5  6  2  0
  5  7  1  0
  7  8  1  6
  8  9  2  0
  8 10  1  0
 10 11  1  0
 11 12  1  0
 12 13  1  0
 13 14  1  6
 13 15  1  0
 15 16  1  0
 16 17  1  0
 16 18  1  0
 16 19  1  0
  7 20  1  0
 20 21  1  0
  6  2  1  0
 21  4  1  0
M  CHG  2  13   1  14  -1
M  END
>  <energy_score>  (692) 
-17.933439

>  <inchikey>  (692) 
None

>  <smiles>  (692) 
None

>  <ref_pdb>  (692) 
A0239a

>  <alias>  (692) 
None

>  <HIPPO Pose ID>  (692) 
499323

>  <name>  (692) 
P499323

>  <HIPPO Compound ID>  (692) 
301946

>  <ref_mols>  (692) 
A0239a,A0309a

>  <distance_score>  (692) 
1.420886

>  <inspiration_score>  (692) 
None

$$$$
P499328
     RDKit          3D

 21 22  0  0  0  0  0  0  0  0999 V2000
   22.0353   18.4000    2.7233 C   0  0  0  0  0  0  0  0  0  0  0  0
   21.9745   17.0283    2.1811 C   0  0  0  0  0  0  0  0  0  0  0  0
   20.9898   16.0520    2.2064 C   0  0  0  0  0  0  0  0  0  0  0  0
   21.3858   14.9026    1.5500 N   0  0  0  0  0  0  0  0  0  0  0  0
   22.5925   15.1795    1.1306 C   0  0  0  0  0  0  0  0  0  0  0  0
   22.9734   16.4342    1.4950 N   0  0  0  0  0  0  0  0  0  0  0  0
   24.2924   16.8074    1.0355 C   0  0  0  0  0  0  0  0  0  0  0  0
   24.6563   15.6572    0.0739 C   0  0  0  0  0  0  0  0  0  0  0  0
   23.6181   14.5208    0.2974 C   0  0  1  0  0  0  0  0  0  0  0  0
   24.2770   13.3132    0.9581 C   0  0  0  0  0  0  0  0  0  0  0  0
   24.3976   12.3046    0.3807 O   0  0  0  0  0  0  0  0  0  0  0  0
   24.7853   13.7345    2.3627 N   0  0  0  0  0  0  0  0  0  0  0  0
   25.4586   12.9756    3.3750 C   0  0  0  0  0  0  0  0  0  0  0  0
   26.3521   11.8598    2.8616 C   0  0  0  0  0  0  0  0  0  0  0  0
   27.7615   12.5388    1.9563 S   0  0  0  0  0  0  0  0  0  0  0  0
   28.7635   13.3154    3.0246 O   0  0  0  0  0  0  0  0  0  0  0  0
   28.5420   10.9826    1.4966 C   0  0  0  0  0  0  0  0  0  0  0  0
   27.6294   10.1044    0.6877 C   0  0  0  0  0  0  0  0  0  0  0  0
   26.7576   10.7998   -0.0635 F   0  0  0  0  0  0  0  0  0  0  0  0
   28.3563    9.3382   -0.1630 F   0  0  0  0  0  0  0  0  0  0  0  0
   26.9455    9.2489    1.4785 F   0  0  0  0  0  0  0  0  0  0  0  0
  1  2  1  0
  2  3  2  0
  3  4  1  0
  4  5  2  0
  5  6  1  0
  6  7  1  0
  7  8  1  0
  8  9  1  0
  9 10  1  1
 10 11  2  0
 10 12  1  0
 12 13  1  0
 13 14  1  0
 14 15  1  0
 15 16  1  1
 15 17  1  0
 17 18  1  0
 18 19  1  0
 18 20  1  0
 18 21  1  0
  6  2  1  0
  9  5  1  0
M  CHG  2  15   1  16  -1
M  END
>  <energy_score>  (693) 
-9.420586

>  <inchikey>  (693) 
None

>  <smiles>  (693) 
None

>  <ref_pdb>  (693) 
A0239a

>  <alias>  (693) 
None

>  <HIPPO Pose ID>  (693) 
499328

>  <name>  (693) 
P499328

>  <HIPPO Compound ID>  (693) 
301947

>  <ref_mols>  (693) 
A0239a,A0309a

>  <distance_score>  (693) 
1.311079

>  <inspiration_score>  (693) 
None

$$$$
P499332
     RDKit          3D

 22 23  0  0  0  0  0  0  0  0999 V2000
   19.8208   16.8029    0.1065 C   0  0  0  0  0  0  0  0  0  0  0  0
   21.2095   16.6597    0.5957 C   0  0  0  0  0  0  0  0  0  0  0  0
   22.3007   17.4932    0.4839 C   0  0  0  0  0  0  0  0  0  0  0  0
   23.3972   16.9649    1.1085 N   0  0  0  0  0  0  0  0  0  0  0  0
   23.0211   15.7935    1.5786 C   0  0  0  0  0  0  0  0  0  0  0  0
   21.6826   15.5927    1.3050 N   0  0  0  0  0  0  0  0  0  0  0  0
   20.9202   14.5281    1.9287 C   0  0  0  0  0  0  0  0  0  0  0  0
   21.6274   14.2378    3.2310 C   0  0  0  0  0  0  0  0  0  0  0  0
   22.9498   13.7869    2.9426 O   0  0  0  0  0  0  0  0  0  0  0  0
   23.7983   14.8749    2.4858 C   0  0  1  0  0  0  0  0  0  0  0  0
   25.0734   14.3279    1.7714 C   0  0  0  0  0  0  0  0  0  0  0  0
   25.8211   14.9835    1.1590 O   0  0  0  0  0  0  0  0  0  0  0  0
   25.1205   12.8161    2.1301 N   0  0  0  0  0  0  0  0  0  0  0  0
   26.0399   11.7954    1.7311 C   0  0  0  0  0  0  0  0  0  0  0  0
   27.3647   11.8742    2.4772 C   0  0  0  0  0  0  0  0  0  0  0  0
   28.5836   10.7775    1.6925 S   0  0  0  0  0  0  0  0  0  0  0  0
   27.7190    9.5482    0.9789 O   0  0  0  0  0  0  0  0  0  0  0  0
   29.1366   11.9091    0.3871 C   0  0  0  0  0  0  0  0  0  0  0  0
   30.2466   12.8076    0.8721 C   0  0  0  0  0  0  0  0  0  0  0  0
   31.3237   12.1047    1.2798 F   0  0  0  0  0  0  0  0  0  0  0  0
   30.6586   13.6200   -0.1305 F   0  0  0  0  0  0  0  0  0  0  0  0
   29.8590   13.5979    1.8940 F   0  0  0  0  0  0  0  0  0  0  0  0
  1  2  1  0
  2  3  2  0
  3  4  1  0
  4  5  2  0
  5  6  1  0
  6  7  1  0
  7  8  1  0
  8  9  1  0
  9 10  1  0
 10 11  1  6
 11 12  2  0
 11 13  1  0
 13 14  1  0
 14 15  1  0
 15 16  1  0
 16 17  1  6
 16 18  1  0
 18 19  1  0
 19 20  1  0
 19 21  1  0
 19 22  1  0
  6  2  1  0
 10  5  1  0
M  CHG  2  16   1  17  -1
M  END
>  <energy_score>  (694) 
-36.173394

>  <inchikey>  (694) 
None

>  <smiles>  (694) 
None

>  <ref_pdb>  (694) 
A0239a

>  <alias>  (694) 
None

>  <HIPPO Pose ID>  (694) 
499332

>  <name>  (694) 
P499332

>  <HIPPO Compound ID>  (694) 
301948

>  <ref_mols>  (694) 
A0239a,A0309a

>  <distance_score>  (694) 
1.449411

>  <inspiration_score>  (694) 
None

$$$$
P499337
     RDKit          3D

 22 23  0  0  0  0  0  0  0  0999 V2000
   25.0841   13.4203   -0.1297 O   0  0  0  0  0  0  0  0  0  0  0  0
   24.7082   13.5740    0.9683 C   0  0  0  0  0  0  0  0  0  0  0  0
   25.4974   13.5929    2.3114 N   0  0  0  0  0  0  0  0  0  0  0  0
   26.8940   13.3321    2.5837 C   0  0  0  0  0  0  0  0  0  0  0  0
   27.2591   11.8506    2.6872 C   0  0  0  0  0  0  0  0  0  0  0  0
   26.9473   10.9309    1.1634 S   0  0  0  0  0  0  0  0  0  0  0  0
   27.3559    9.3431    1.3476 O   0  0  0  0  0  0  0  0  0  0  0  0
   28.0685   11.7258    0.0005 C   0  0  0  0  0  0  0  0  0  0  0  0
   29.5265   11.6659    0.3628 C   0  0  0  0  0  0  0  0  0  0  0  0
   29.9662   10.4130    0.5694 F   0  0  0  0  0  0  0  0  0  0  0  0
   29.8055   12.4122    1.4533 F   0  0  0  0  0  0  0  0  0  0  0  0
   30.2631   12.1810   -0.6559 F   0  0  0  0  0  0  0  0  0  0  0  0
   23.1960   13.7592    1.3080 C   0  0  2  0  0  0  0  0  0  0  0  0
   22.3514   13.4669    0.0515 C   0  0  0  0  0  0  0  0  0  0  0  0
   20.8365   13.2734    0.2189 C   0  0  0  0  0  0  0  0  0  0  0  0
   20.0192   14.3691    0.8931 C   0  0  0  0  0  0  0  0  0  0  0  0
   20.4981   14.7489    2.2818 C   0  0  0  0  0  0  0  0  0  0  0  0
   21.6888   15.5655    2.2097 N   0  0  0  0  0  0  0  0  0  0  0  0
   21.7366   16.9084    2.4423 C   0  0  0  0  0  0  0  0  0  0  0  0
   23.0428   17.2583    2.2130 C   0  0  0  0  0  0  0  0  0  0  0  0
   23.7708   16.1695    1.8165 N   0  0  0  0  0  0  0  0  0  0  0  0
   22.9301   15.1553    1.7854 C   0  0  0  0  0  0  0  0  0  0  0  0
  1  2  2  0
  2  3  1  0
  3  4  1  0
  4  5  1  0
  5  6  1  0
  6  7  1  1
  6  8  1  0
  8  9  1  0
  9 10  1  0
  9 11  1  0
  9 12  1  0
 13  2  1  6
 13 14  1  0
 14 15  1  0
 15 16  1  0
 16 17  1  0
 17 18  1  0
 18 19  1  0
 19 20  2  0
 20 21  1  0
 21 22  2  0
 22 13  1  0
 22 18  1  0
M  CHG  2   6   1   7  -1
M  END
>  <energy_score>  (695) 
-12.089703

>  <inchikey>  (695) 
None

>  <smiles>  (695) 
None

>  <ref_pdb>  (695) 
A0239a

>  <alias>  (695) 
None

>  <HIPPO Pose ID>  (695) 
499337

>  <name>  (695) 
P499337

>  <HIPPO Compound ID>  (695) 
301950

>  <ref_mols>  (695) 
A0239a,A0309a

>  <distance_score>  (695) 
1.510908

>  <inspiration_score>  (695) 
None

$$$$
P499340
     RDKit          3D

 22 23  0  0  0  0  0  0  0  0999 V2000
   19.6753   16.8867    2.1104 C   0  0  0  0  0  0  0  0  0  0  0  0
   21.1336   16.6629    2.0152 C   0  0  0  0  0  0  0  0  0  0  0  0
   22.1960   17.5263    2.1768 C   0  0  0  0  0  0  0  0  0  0  0  0
   23.3899   16.8910    1.9643 N   0  0  0  0  0  0  0  0  0  0  0  0
   23.0874   15.6315    1.7287 C   0  0  0  0  0  0  0  0  0  0  0  0
   21.7230   15.4657    1.7100 N   0  0  0  0  0  0  0  0  0  0  0  0
   21.0763   14.2349    1.3119 C   0  0  0  0  0  0  0  0  0  0  0  0
   21.9641   13.4751    0.3283 C   0  0  0  0  0  0  0  0  0  0  0  0
   23.3501   13.2386    0.9321 C   0  0  0  0  0  0  0  0  0  0  0  0
   24.0456   14.5362    1.3686 C   0  0  2  0  0  0  0  0  0  0  0  0
   24.9429   14.2066    2.5809 C   0  0  0  0  0  0  0  0  0  0  0  0
   24.5323   14.1253    3.6728 O   0  0  0  0  0  0  0  0  0  0  0  0
   26.3776   13.9635    2.0210 N   0  0  0  0  0  0  0  0  0  0  0  0
   27.5683   13.4808    2.6759 C   0  0  0  0  0  0  0  0  0  0  0  0
   27.5793   11.9630    2.8641 C   0  0  0  0  0  0  0  0  0  0  0  0
   28.1104   11.1332    1.3354 S   0  0  0  0  0  0  0  0  0  0  0  0
   27.2900    9.6983    1.2097 O   0  0  0  0  0  0  0  0  0  0  0  0
   29.8295   10.7609    1.8088 C   0  0  0  0  0  0  0  0  0  0  0  0
   30.6907   11.9944    1.8651 C   0  0  0  0  0  0  0  0  0  0  0  0
   31.9990   11.6852    1.9797 F   0  0  0  0  0  0  0  0  0  0  0  0
   30.3738   12.7737    2.9236 F   0  0  0  0  0  0  0  0  0  0  0  0
   30.5526   12.7494    0.7507 F   0  0  0  0  0  0  0  0  0  0  0  0
  1  2  1  0
  2  3  2  0
  3  4  1  0
  4  5  2  0
  5  6  1  0
  6  7  1  0
  7  8  1  0
  8  9  1  0
  9 10  1  0
 10 11  1  1
 11 12  2  0
 11 13  1  0
 13 14  1  0
 14 15  1  0
 15 16  1  0
 16 17  1  1
 16 18  1  0
 18 19  1  0
 19 20  1  0
 19 21  1  0
 19 22  1  0
  6  2  1  0
 10  5  1  0
M  CHG  2  16   1  17  -1
M  END
>  <energy_score>  (696) 
-3.714522

>  <inchikey>  (696) 
None

>  <smiles>  (696) 
None

>  <ref_pdb>  (696) 
A0239a

>  <alias>  (696) 
None

>  <HIPPO Pose ID>  (696) 
499340

>  <name>  (696) 
P499340

>  <HIPPO Compound ID>  (696) 
301951

>  <ref_mols>  (696) 
A0239a,A0309a

>  <distance_score>  (696) 
1.506993

>  <inspiration_score>  (696) 
None

$$$$
P499345
     RDKit          3D

 22 22  0  0  0  0  0  0  0  0999 V2000
   24.3558   16.9909    2.5279 C   0  0  0  0  0  0  0  0  0  0  0  0
   23.0130   16.6759    2.0949 N   0  0  0  0  0  0  0  0  0  0  0  0
   21.9611   17.5459    2.0199 C   0  0  0  0  0  0  0  0  0  0  0  0
   22.1078   19.2005    2.3750 Cl  0  0  0  0  0  0  0  0  0  0  0  0
   20.8724   16.8217    1.6295 C   0  0  0  0  0  0  0  0  0  0  0  0
   21.2233   15.5158    1.4489 N   0  0  0  0  0  0  0  0  0  0  0  0
   22.5284   15.4371    1.6952 C   0  0  0  0  0  0  0  0  0  0  0  0
   23.3198   14.1618    1.6244 C   0  0  0  0  0  0  0  0  0  0  0  0
   23.4017   13.6166    2.8785 F   0  0  0  0  0  0  0  0  0  0  0  0
   22.6637   13.2427    0.8574 F   0  0  0  0  0  0  0  0  0  0  0  0
   24.7565   14.3908    1.0890 C   0  0  0  0  0  0  0  0  0  0  0  0
   25.0199   14.9071    0.0713 O   0  0  0  0  0  0  0  0  0  0  0  0
   25.6913   13.8248    2.2102 N   0  0  0  0  0  0  0  0  0  0  0  0
   27.1174   13.8683    2.3412 C   0  0  0  0  0  0  0  0  0  0  0  0
   27.7661   13.2970    1.0984 C   0  0  0  0  0  0  0  0  0  0  0  0
   29.1988   12.2769    1.4702 S   0  0  0  0  0  0  0  0  0  0  0  0
   30.0820   13.0342    2.6513 O   0  0  0  0  0  0  0  0  0  0  0  0
   28.3889   10.8529    2.1986 C   0  0  0  0  0  0  0  0  0  0  0  0
   27.2706   10.2796    1.3735 C   0  0  0  0  0  0  0  0  0  0  0  0
   27.5195   10.3521    0.0480 F   0  0  0  0  0  0  0  0  0  0  0  0
   27.0978    8.9650    1.6582 F   0  0  0  0  0  0  0  0  0  0  0  0
   26.1061   10.9131    1.6234 F   0  0  0  0  0  0  0  0  0  0  0  0
  1  2  1  0
  2  3  1  0
  3  4  1  0
  3  5  2  0
  5  6  1  0
  6  7  2  0
  7  8  1  0
  8  9  1  0
  8 10  1  0
  8 11  1  0
 11 12  2  0
 11 13  1  0
 13 14  1  0
 14 15  1  0
 15 16  1  0
 16 17  1  1
 16 18  1  0
 18 19  1  0
 19 20  1  0
 19 21  1  0
 19 22  1  0
  7  2  1  0
M  CHG  2  16   1  17  -1
M  END
>  <energy_score>  (697) 
-5.309372

>  <inchikey>  (697) 
None

>  <smiles>  (697) 
None

>  <ref_pdb>  (697) 
A0239a

>  <alias>  (697) 
None

>  <HIPPO Pose ID>  (697) 
499345

>  <name>  (697) 
P499345

>  <HIPPO Compound ID>  (697) 
301952

>  <ref_mols>  (697) 
A0239a,A0309a

>  <distance_score>  (697) 
1.503563

>  <inspiration_score>  (697) 
None

$$$$
P499348
     RDKit          3D

 22 23  0  0  0  0  0  0  0  0999 V2000
   21.8630   19.0595    2.6492 C   0  0  0  0  0  0  0  0  0  0  0  0
   22.0467   17.6393    2.2829 C   0  0  0  0  0  0  0  0  0  0  0  0
   21.1979   16.7983    1.5975 C   0  0  0  0  0  0  0  0  0  0  0  0
   21.8700   15.6173    1.5186 N   0  0  0  0  0  0  0  0  0  0  0  0
   23.0835   15.7589    2.1478 C   0  0  0  0  0  0  0  0  0  0  0  0
   23.1922   16.9726    2.6466 N   0  0  0  0  0  0  0  0  0  0  0  0
   24.0514   14.6254    2.2961 C   0  0  2  0  0  0  0  0  0  0  0  0
   25.3672   14.8502    1.5335 C   0  0  0  0  0  0  0  0  0  0  0  0
   25.4872   15.5631    0.6139 O   0  0  0  0  0  0  0  0  0  0  0  0
   26.3894   13.8676    2.1928 N   0  0  0  0  0  0  0  0  0  0  0  0
   27.7817   13.6410    1.9100 C   0  0  0  0  0  0  0  0  0  0  0  0
   28.3365   12.3627    2.5318 C   0  0  0  0  0  0  0  0  0  0  0  0
   28.0083   10.8459    1.6163 S   0  0  0  0  0  0  0  0  0  0  0  0
   26.6051   10.9419    0.7608 O   0  0  0  0  0  0  0  0  0  0  0  0
   29.4282   10.7690    0.5144 C   0  0  0  0  0  0  0  0  0  0  0  0
   29.6940   11.9602   -0.3613 C   0  0  0  0  0  0  0  0  0  0  0  0
   30.1110   13.0228    0.3616 F   0  0  0  0  0  0  0  0  0  0  0  0
   30.6968   11.6655   -1.2278 F   0  0  0  0  0  0  0  0  0  0  0  0
   28.6326   12.3301   -1.0976 F   0  0  0  0  0  0  0  0  0  0  0  0
   23.4298   13.3010    1.8404 C   0  0  0  0  0  0  0  0  0  0  0  0
   22.5615   13.4671    0.5899 C   0  0  0  0  0  0  0  0  0  0  0  0
   21.3961   14.3987    0.9021 C   0  0  0  0  0  0  0  0  0  0  0  0
  1  2  1  0
  2  3  2  0
  3  4  1  0
  4  5  1  0
  5  6  2  0
  5  7  1  0
  7  8  1  6
  8  9  2  0
  8 10  1  0
 10 11  1  0
 11 12  1  0
 12 13  1  0
 13 14  1  6
 13 15  1  0
 15 16  1  0
 16 17  1  0
 16 18  1  0
 16 19  1  0
  7 20  1  0
 20 21  1  0
 21 22  1  0
  6  2  1  0
 22  4  1  0
M  CHG  2  13   1  14  -1
M  END
>  <energy_score>  (698) 
-9.545792

>  <inchikey>  (698) 
None

>  <smiles>  (698) 
None

>  <ref_pdb>  (698) 
A0239a

>  <alias>  (698) 
None

>  <HIPPO Pose ID>  (698) 
499348

>  <name>  (698) 
P499348

>  <HIPPO Compound ID>  (698) 
301953

>  <ref_mols>  (698) 
A0239a,A0309a

>  <distance_score>  (698) 
1.608362

>  <inspiration_score>  (698) 
None

$$$$
P499350
     RDKit          3D

 22 23  0  0  0  0  0  0  0  0999 V2000
   23.4730   14.9048   -0.9900 C   0  0  0  0  0  0  0  0  0  0  0  0
   23.8590   14.4246    0.4284 C   0  0  2  0  0  0  0  0  0  0  0  0
   25.4127   14.2394    0.4606 C   0  0  0  0  0  0  0  0  0  0  0  0
   26.0479   14.4065   -0.5078 O   0  0  0  0  0  0  0  0  0  0  0  0
   25.8436   13.7723    1.8789 N   0  0  0  0  0  0  0  0  0  0  0  0
   27.1525   13.5081    2.4187 C   0  0  0  0  0  0  0  0  0  0  0  0
   27.3972   12.0905    2.9242 C   0  0  0  0  0  0  0  0  0  0  0  0
   27.5560   10.7750    1.7155 S   0  0  0  0  0  0  0  0  0  0  0  0
   26.5421   10.9550    0.4370 O   0  0  0  0  0  0  0  0  0  0  0  0
   29.2836   10.8376    1.2341 C   0  0  0  0  0  0  0  0  0  0  0  0
   29.8397   12.1596    0.7925 C   0  0  0  0  0  0  0  0  0  0  0  0
   29.1052   12.7592   -0.1576 F   0  0  0  0  0  0  0  0  0  0  0  0
   29.9718   13.0057    1.8399 F   0  0  0  0  0  0  0  0  0  0  0  0
   31.0840   11.9846    0.2811 F   0  0  0  0  0  0  0  0  0  0  0  0
   23.1130   13.1062    0.7260 C   0  0  0  0  0  0  0  0  0  0  0  0
   21.6031   13.3641    0.7364 C   0  0  0  0  0  0  0  0  0  0  0  0
   21.2162   14.3424    1.8389 C   0  0  0  0  0  0  0  0  0  0  0  0
   22.1173   15.4681    1.9084 N   0  0  0  0  0  0  0  0  0  0  0  0
   21.8567   16.6744    2.4790 C   0  0  0  0  0  0  0  0  0  0  0  0
   23.0338   17.3722    2.3616 C   0  0  0  0  0  0  0  0  0  0  0  0
   23.9747   16.6347    1.6899 N   0  0  0  0  0  0  0  0  0  0  0  0
   23.3880   15.4979    1.3811 C   0  0  0  0  0  0  0  0  0  0  0  0
  2  1  1  6
  2  3  1  0
  3  4  2  0
  3  5  1  0
  5  6  1  0
  6  7  1  0
  7  8  1  0
  8  9  1  6
  8 10  1  0
 10 11  1  0
 11 12  1  0
 11 13  1  0
 11 14  1  0
  2 15  1  0
 15 16  1  0
 16 17  1  0
 17 18  1  0
 18 19  1  0
 19 20  2  0
 20 21  1  0
 21 22  2  0
 22  2  1  0
 22 18  1  0
M  CHG  2   8   1   9  -1
M  END
>  <energy_score>  (699) 
-0.163102

>  <inchikey>  (699) 
None

>  <smiles>  (699) 
None

>  <ref_pdb>  (699) 
A0239a

>  <alias>  (699) 
None

>  <HIPPO Pose ID>  (699) 
499350

>  <name>  (699) 
P499350

>  <HIPPO Compound ID>  (699) 
301954

>  <ref_mols>  (699) 
A0239a,A0309a

>  <distance_score>  (699) 
1.881798

>  <inspiration_score>  (699) 
None

$$$$
P499351
     RDKit          3D

 23 23  0  0  0  0  0  0  0  0999 V2000
   24.6862   18.2645    3.9911 C   0  0  0  0  0  0  0  0  0  0  0  0
   25.1532   17.4795    2.7727 C   0  0  0  0  0  0  0  0  0  0  0  0
   24.1436   17.4943    1.6221 C   0  0  0  0  0  0  0  0  0  0  0  0
   22.9579   16.6923    1.8651 N   0  0  0  0  0  0  0  0  0  0  0  0
   21.7905   17.2335    2.3463 C   0  0  0  0  0  0  0  0  0  0  0  0
   20.8985   16.1978    2.4044 C   0  0  0  0  0  0  0  0  0  0  0  0
   21.4809   15.0453    1.9759 N   0  0  0  0  0  0  0  0  0  0  0  0
   22.7169   15.3578    1.5959 C   0  0  0  0  0  0  0  0  0  0  0  0
   23.6066   14.4049    0.8470 C   0  0  0  0  0  0  0  0  0  0  0  0
   23.5196   14.6472   -0.4868 F   0  0  0  0  0  0  0  0  0  0  0  0
   23.1309   13.1295    0.9941 F   0  0  0  0  0  0  0  0  0  0  0  0
   25.0947   14.4889    1.2401 C   0  0  0  0  0  0  0  0  0  0  0  0
   25.8164   15.2527    0.7274 O   0  0  0  0  0  0  0  0  0  0  0  0
   25.3851   13.3719    2.2723 N   0  0  0  0  0  0  0  0  0  0  0  0
   26.5977   13.0273    2.9539 C   0  0  0  0  0  0  0  0  0  0  0  0
   27.7308   13.0164    1.9368 C   0  0  0  0  0  0  0  0  0  0  0  0
   29.0722   11.9004    2.3117 S   0  0  0  0  0  0  0  0  0  0  0  0
   29.0931   11.5001    3.9049 O   0  0  0  0  0  0  0  0  0  0  0  0
   28.6380   10.4787    1.3150 C   0  0  0  0  0  0  0  0  0  0  0  0
   27.1818   10.1530    1.1363 C   0  0  0  0  0  0  0  0  0  0  0  0
   26.4202   10.3753    2.2139 F   0  0  0  0  0  0  0  0  0  0  0  0
   27.0645    8.8365    0.8210 F   0  0  0  0  0  0  0  0  0  0  0  0
   26.6524   10.8481    0.1043 F   0  0  0  0  0  0  0  0  0  0  0  0
  1  2  1  0
  2  3  1  0
  3  4  1  0
  4  5  1  0
  5  6  2  0
  6  7  1  0
  7  8  2  0
  8  9  1  0
  9 10  1  0
  9 11  1  0
  9 12  1  0
 12 13  2  0
 12 14  1  0
 14 15  1  0
 15 16  1  0
 16 17  1  0
 17 18  1  1
 17 19  1  0
 19 20  1  0
 20 21  1  0
 20 22  1  0
 20 23  1  0
  8  4  1  0
M  CHG  2  17   1  18  -1
M  END
>  <energy_score>  (700) 
-5.069645

>  <inchikey>  (700) 
None

>  <smiles>  (700) 
None

>  <ref_pdb>  (700) 
A0239a

>  <alias>  (700) 
None

>  <HIPPO Pose ID>  (700) 
499351

>  <name>  (700) 
P499351

>  <HIPPO Compound ID>  (700) 
301955

>  <ref_mols>  (700) 
A0239a,A0309a

>  <distance_score>  (700) 
1.606852

>  <inspiration_score>  (700) 
None

$$$$
P499352
     RDKit          3D

 25 26  0  0  0  0  0  0  0  0999 V2000
   25.7072   15.6187    1.2606 O   0  0  0  0  0  0  0  0  0  0  0  0
   25.3087   14.7042    1.8707 C   0  0  0  0  0  0  0  0  0  0  0  0
   26.0739   13.4952    2.4954 N   0  0  0  0  0  0  0  0  0  0  0  0
   27.4874   13.2224    2.5742 C   0  0  0  0  0  0  0  0  0  0  0  0
   27.7866   11.7291    2.4256 C   0  0  0  0  0  0  0  0  0  0  0  0
   27.3820   11.1808    0.7280 S   0  0  0  0  0  0  0  0  0  0  0  0
   25.7432   11.3083    0.5530 O   0  0  0  0  0  0  0  0  0  0  0  0
   27.6662    9.4288    0.9532 C   0  0  0  0  0  0  0  0  0  0  0  0
   27.4625    8.6636   -0.3300 C   0  0  0  0  0  0  0  0  0  0  0  0
   28.3675    9.0104   -1.2708 F   0  0  0  0  0  0  0  0  0  0  0  0
   27.6414    7.3376   -0.0850 F   0  0  0  0  0  0  0  0  0  0  0  0
   26.2297    8.7885   -0.8524 F   0  0  0  0  0  0  0  0  0  0  0  0
   23.8129   14.4107    2.1281 C   0  0  2  0  0  0  0  0  0  0  0  0
   23.3424   13.3860    1.0707 C   0  0  0  0  0  0  0  0  0  0  0  0
   21.9584   13.6226    0.4465 C   0  0  0  0  0  0  0  0  0  0  0  0
   21.0000   14.3390    1.3839 C   0  0  0  0  0  0  0  0  0  0  0  0
   21.6268   15.5605    1.8334 N   0  0  0  0  0  0  0  0  0  0  0  0
   21.0681   16.7918    1.9469 C   0  0  0  0  0  0  0  0  0  0  0  0
   22.0956   17.6144    2.3816 C   0  0  0  0  0  0  0  0  0  0  0  0
   22.0363   19.0801    2.6989 C   0  0  0  0  0  0  0  0  0  0  0  0
   21.1334   19.7256    1.9061 F   0  0  0  0  0  0  0  0  0  0  0  0
   23.2182   19.7276    2.5453 F   0  0  0  0  0  0  0  0  0  0  0  0
   21.6255   19.2941    3.9803 F   0  0  0  0  0  0  0  0  0  0  0  0
   23.2518   16.8607    2.5389 N   0  0  0  0  0  0  0  0  0  0  0  0
   22.9590   15.6391    2.1501 C   0  0  0  0  0  0  0  0  0  0  0  0
  1  2  2  0
  2  3  1  0
  3  4  1  0
  4  5  1  0
  5  6  1  0
  6  7  1  1
  6  8  1  0
  8  9  1  0
  9 10  1  0
  9 11  1  0
  9 12  1  0
 13  2  1  6
 13 14  1  0
 14 15  1  0
 15 16  1  0
 16 17  1  0
 17 18  1  0
 18 19  2  0
 19 20  1  0
 20 21  1  0
 20 22  1  0
 20 23  1  0
 19 24  1  0
 24 25  2  0
 25 13  1  0
 25 17  1  0
M  CHG  2   6   1   7  -1
M  END
>  <energy_score>  (701) 
-20.086093

>  <inchikey>  (701) 
None

>  <smiles>  (701) 
None

>  <ref_pdb>  (701) 
A0239a

>  <alias>  (701) 
None

>  <HIPPO Pose ID>  (701) 
499352

>  <name>  (701) 
P499352

>  <HIPPO Compound ID>  (701) 
301956

>  <ref_mols>  (701) 
A0239a,A0309a

>  <distance_score>  (701) 
1.433542

>  <inspiration_score>  (701) 
None

$$$$
P499357
     RDKit          3D

 25 26  0  0  0  0  0  0  0  0999 V2000
   24.9960   15.0437    3.2407 O   0  0  0  0  0  0  0  0  0  0  0  0
   24.7305   14.3673    2.3278 C   0  0  0  0  0  0  0  0  0  0  0  0
   25.4070   13.0633    1.8078 N   0  0  0  0  0  0  0  0  0  0  0  0
   26.4824   12.2841    2.3623 C   0  0  0  0  0  0  0  0  0  0  0  0
   27.7354   12.4548    1.5247 C   0  0  0  0  0  0  0  0  0  0  0  0
   28.8067   11.0009    1.5260 S   0  0  0  0  0  0  0  0  0  0  0  0
   27.8120    9.6761    1.4049 O   0  0  0  0  0  0  0  0  0  0  0  0
   29.4235   11.2156    3.2125 C   0  0  0  0  0  0  0  0  0  0  0  0
   30.6993   10.4429    3.4376 C   0  0  0  0  0  0  0  0  0  0  0  0
   31.7171   11.0300    2.7617 F   0  0  0  0  0  0  0  0  0  0  0  0
   31.0331   10.4864    4.7522 F   0  0  0  0  0  0  0  0  0  0  0  0
   30.6369    9.1530    3.0692 F   0  0  0  0  0  0  0  0  0  0  0  0
   23.5093   14.5703    1.4009 C   0  0  1  0  0  0  0  0  0  0  0  0
   22.4979   13.4712    1.7407 C   0  0  0  0  0  0  0  0  0  0  0  0
   21.0851   13.6865    1.1788 C   0  0  2  0  0  0  0  0  0  0  0  0
   21.0377   13.4627   -0.3144 C   0  0  0  0  0  0  0  0  0  0  0  0
   21.3686   12.1896   -0.6201 F   0  0  0  0  0  0  0  0  0  0  0  0
   19.7888   13.6723   -0.7847 F   0  0  0  0  0  0  0  0  0  0  0  0
   21.8783   14.2675   -0.9785 F   0  0  0  0  0  0  0  0  0  0  0  0
   20.5357   15.0330    1.6208 C   0  0  0  0  0  0  0  0  0  0  0  0
   21.5254   16.0828    1.6252 N   0  0  0  0  0  0  0  0  0  0  0  0
   21.2609   17.4138    1.7208 C   0  0  0  0  0  0  0  0  0  0  0  0
   22.4923   18.0168    1.6432 C   0  0  0  0  0  0  0  0  0  0  0  0
   23.4826   17.0842    1.4943 N   0  0  0  0  0  0  0  0  0  0  0  0
   22.8856   15.9136    1.5492 C   0  0  0  0  0  0  0  0  0  0  0  0
  1  2  2  0
  2  3  1  0
  3  4  1  0
  4  5  1  0
  5  6  1  0
  6  7  1  1
  6  8  1  0
  8  9  1  0
  9 10  1  0
  9 11  1  0
  9 12  1  0
 13  2  1  1
 13 14  1  0
 14 15  1  0
 15 16  1  6
 16 17  1  0
 16 18  1  0
 16 19  1  0
 15 20  1  0
 20 21  1  0
 21 22  1  0
 22 23  2  0
 23 24  1  0
 24 25  2  0
 25 13  1  0
 25 21  1  0
M  CHG  2   6   1   7  -1
M  END
>  <energy_score>  (702) 
-16.282678

>  <inchikey>  (702) 
None

>  <smiles>  (702) 
None

>  <ref_pdb>  (702) 
A0239a

>  <alias>  (702) 
None

>  <HIPPO Pose ID>  (702) 
499357

>  <name>  (702) 
P499357

>  <HIPPO Compound ID>  (702) 
301957

>  <ref_mols>  (702) 
A0239a,A0309a

>  <distance_score>  (702) 
1.633989

>  <inspiration_score>  (702) 
None

$$$$
P499362
     RDKit          3D

 25 26  0  0  0  0  0  0  0  0999 V2000
   23.3945   17.2821    0.9730 O   0  0  0  0  0  0  0  0  0  0  0  0
   23.6501   16.2994    1.5523 C   0  0  0  0  0  0  0  0  0  0  0  0
   24.9923   16.1423    2.2949 C   0  0  0  0  0  0  0  0  0  0  0  0
   25.3667   14.7137    2.4684 C   0  0  0  0  0  0  0  0  0  0  0  0
   24.7892   13.8640    3.2973 N   0  0  0  0  0  0  0  0  0  0  0  0
   25.3382   12.6437    3.0142 C   0  0  0  0  0  0  0  0  0  0  0  0
   26.2104   12.7341    1.9610 C   0  0  0  0  0  0  0  0  0  0  0  0
   26.8998   11.7449    1.1754 C   0  0  0  0  0  0  0  0  0  0  0  0
   28.2363   11.4329    1.4190 C   0  0  0  0  0  0  0  0  0  0  0  0
   28.9419   10.6765    0.4807 C   0  0  0  0  0  0  0  0  0  0  0  0
   28.3040   10.2420   -0.6862 C   0  0  0  0  0  0  0  0  0  0  0  0
   29.2861    9.4402   -2.0889 Br  0  0  0  0  0  0  0  0  0  0  0  0
   26.9446   10.4641   -0.8771 C   0  0  0  0  0  0  0  0  0  0  0  0
   26.2425   11.2108    0.0623 C   0  0  0  0  0  0  0  0  0  0  0  0
   26.2520   14.0698    1.6534 N   0  0  0  0  0  0  0  0  0  0  0  0
   22.7865   15.0395    1.8243 N   0  0  0  0  0  0  0  0  0  0  0  0
   21.4158   14.7722    1.5252 C   0  0  0  0  0  0  0  0  0  0  0  0
   20.6827   14.8216    2.8468 C   0  0  0  0  0  0  0  0  0  0  0  0
   19.0506   14.0868    2.8317 S   0  0  0  0  0  0  0  0  0  0  0  0
   19.1650   12.6210    2.0784 O   0  0  0  0  0  0  0  0  0  0  0  0
   18.2109   15.2372    1.7342 C   0  0  0  0  0  0  0  0  0  0  0  0
   18.0326   16.5952    2.3608 C   0  0  0  0  0  0  0  0  0  0  0  0
   17.6108   16.5193    3.6432 F   0  0  0  0  0  0  0  0  0  0  0  0
   19.1762   17.3099    2.3528 F   0  0  0  0  0  0  0  0  0  0  0  0
   17.1107   17.3121    1.6782 F   0  0  0  0  0  0  0  0  0  0  0  0
  1  2  2  0
  2  3  1  0
  3  4  1  0
  4  5  2  0
  5  6  1  0
  6  7  2  0
  7  8  1  0
  8  9  2  0
  9 10  1  0
 10 11  2  0
 11 12  1  0
 11 13  1  0
 13 14  2  0
  7 15  1  0
  2 16  1  0
 16 17  1  0
 17 18  1  0
 18 19  1  0
 19 20  1  6
 19 21  1  0
 21 22  1  0
 22 23  1  0
 22 24  1  0
 22 25  1  0
 15  4  1  0
 14  8  1  0
M  CHG  2  19   1  20  -1
M  END
>  <energy_score>  (703) 
-11.525808

>  <inchikey>  (703) 
None

>  <smiles>  (703) 
None

>  <ref_pdb>  (703) 
A0239a

>  <alias>  (703) 
None

>  <HIPPO Pose ID>  (703) 
499362

>  <name>  (703) 
P499362

>  <HIPPO Compound ID>  (703) 
301958

>  <ref_mols>  (703) 
A0239a,A0309a

>  <distance_score>  (703) 
1.887467

>  <inspiration_score>  (703) 
None

$$$$
P499363
     RDKit          3D

 25 26  0  0  0  0  0  0  0  0999 V2000
   21.3735   13.4552    0.1235 C   0  0  0  0  0  0  0  0  0  0  0  0
   22.8388   13.6147   -0.1528 C   0  0  0  0  0  0  0  0  0  0  0  0
   23.5275   12.5429   -0.7427 C   0  0  0  0  0  0  0  0  0  0  0  0
   24.9008   12.6068   -0.9614 C   0  0  0  0  0  0  0  0  0  0  0  0
   25.6114   13.7421   -0.5810 C   0  0  0  0  0  0  0  0  0  0  0  0
   24.9495   14.8217    0.0074 C   0  0  0  0  0  0  0  0  0  0  0  0
   23.5653   14.7642    0.2176 C   0  0  0  0  0  0  0  0  0  0  0  0
   22.9196   15.8512    0.8633 N   0  0  0  0  0  0  0  0  0  0  0  0
   21.7825   16.4893    0.4229 C   0  0  0  0  0  0  0  0  0  0  0  0
   21.4446   17.3906    1.3953 C   0  0  0  0  0  0  0  0  0  0  0  0
   22.3509   17.3583    2.4099 N   0  0  0  0  0  0  0  0  0  0  0  0
   23.2350   16.4311    2.0834 C   0  0  0  0  0  0  0  0  0  0  0  0
   24.3104   15.9380    2.9931 C   0  0  0  0  0  0  0  0  0  0  0  0
   23.9782   14.4873    3.3315 C   0  0  0  0  0  0  0  0  0  0  0  0
   22.8946   14.1537    3.6089 O   0  0  0  0  0  0  0  0  0  0  0  0
   25.2801   13.6608    3.2047 N   0  0  0  0  0  0  0  0  0  0  0  0
   25.4961   12.2571    3.2989 C   0  0  0  0  0  0  0  0  0  0  0  0
   26.4591   11.6089    2.3441 C   0  0  0  0  0  0  0  0  0  0  0  0
   28.1410   12.1866    2.5747 S   0  0  0  0  0  0  0  0  0  0  0  0
   28.2711   13.6720    1.8485 O   0  0  0  0  0  0  0  0  0  0  0  0
   28.9953   10.9642    1.5590 C   0  0  0  0  0  0  0  0  0  0  0  0
   28.2816   10.5195    0.3121 C   0  0  0  0  0  0  0  0  0  0  0  0
   27.8130   11.5325   -0.4357 F   0  0  0  0  0  0  0  0  0  0  0  0
   27.2615    9.6753    0.5833 F   0  0  0  0  0  0  0  0  0  0  0  0
   29.1418    9.8236   -0.4761 F   0  0  0  0  0  0  0  0  0  0  0  0
  1  2  1  0
  2  3  2  0
  3  4  1  0
  4  5  2  0
  5  6  1  0
  6  7  2  0
  7  8  1  0
  8  9  1  0
  9 10  2  0
 10 11  1  0
 11 12  2  0
 12 13  1  0
 13 14  1  0
 14 15  2  0
 14 16  1  0
 16 17  1  0
 17 18  1  0
 18 19  1  0
 19 20  1  6
 19 21  1  0
 21 22  1  0
 22 23  1  0
 22 24  1  0
 22 25  1  0
  7  2  1  0
 12  8  1  0
M  CHG  2  19   1  20  -1
M  END
>  <energy_score>  (704) 
-11.954703

>  <inchikey>  (704) 
None

>  <smiles>  (704) 
None

>  <ref_pdb>  (704) 
A0239a

>  <alias>  (704) 
None

>  <HIPPO Pose ID>  (704) 
499363

>  <name>  (704) 
P499363

>  <HIPPO Compound ID>  (704) 
301959

>  <ref_mols>  (704) 
A0239a,A0309a

>  <distance_score>  (704) 
1.924852

>  <inspiration_score>  (704) 
None

$$$$
P499365
     RDKit          3D

 25 26  0  0  0  0  0  0  0  0999 V2000
   24.2280   17.0837    2.0395 C   0  0  0  0  0  0  0  0  0  0  0  0
   22.8488   16.6477    2.0076 N   0  0  0  0  0  0  0  0  0  0  0  0
   22.3722   15.3729    1.7733 C   0  0  0  0  0  0  0  0  0  0  0  0
   23.2477   14.2020    1.4840 C   0  0  0  0  0  0  0  0  0  0  0  0
   24.0903   14.4874    0.4352 F   0  0  0  0  0  0  0  0  0  0  0  0
   22.5236   13.1332    1.0400 F   0  0  0  0  0  0  0  0  0  0  0  0
   24.1553   13.8519    2.6873 C   0  0  0  0  0  0  0  0  0  0  0  0
   24.2009   14.4520    3.6877 O   0  0  0  0  0  0  0  0  0  0  0  0
   25.0029   12.6447    2.1982 N   0  0  0  0  0  0  0  0  0  0  0  0
   26.1324   11.9983    2.7970 C   0  0  0  0  0  0  0  0  0  0  0  0
   27.3444   12.6979    2.2073 C   0  0  0  0  0  0  0  0  0  0  0  0
   28.9067   11.8896    2.4301 S   0  0  0  0  0  0  0  0  0  0  0  0
   29.0518   11.2348    3.9235 O   0  0  0  0  0  0  0  0  0  0  0  0
   28.9243   10.6579    1.1363 C   0  0  0  0  0  0  0  0  0  0  0  0
   27.6625    9.9424    0.7437 C   0  0  0  0  0  0  0  0  0  0  0  0
   27.9392    9.1294   -0.3134 F   0  0  0  0  0  0  0  0  0  0  0  0
   26.6901   10.7759    0.3238 F   0  0  0  0  0  0  0  0  0  0  0  0
   27.1722    9.1410    1.7039 F   0  0  0  0  0  0  0  0  0  0  0  0
   21.0479   15.3580    1.8024 N   0  0  0  0  0  0  0  0  0  0  0  0
   20.6648   16.6369    2.0942 C   0  0  0  0  0  0  0  0  0  0  0  0
   19.3740   17.1625    2.2563 C   0  0  0  0  0  0  0  0  0  0  0  0
   19.2323   18.5180    2.5743 C   0  0  0  0  0  0  0  0  0  0  0  0
   20.3547   19.3334    2.7274 C   0  0  0  0  0  0  0  0  0  0  0  0
   21.6496   18.8270    2.5622 C   0  0  0  0  0  0  0  0  0  0  0  0
   21.7686   17.4690    2.2398 C   0  0  0  0  0  0  0  0  0  0  0  0
  1  2  1  0
  2  3  1  0
  3  4  1  0
  4  5  1  0
  4  6  1  0
  4  7  1  0
  7  8  2  0
  7  9  1  0
  9 10  1  0
 10 11  1  0
 11 12  1  0
 12 13  1  1
 12 14  1  0
 14 15  1  0
 15 16  1  0
 15 17  1  0
 15 18  1  0
  3 19  2  0
 19 20  1  0
 20 21  2  0
 21 22  1  0
 22 23  2  0
 23 24  1  0
 24 25  2  0
 25  2  1  0
 25 20  1  0
M  CHG  2  12   1  13  -1
M  END
>  <energy_score>  (705) 
-16.180275

>  <inchikey>  (705) 
None

>  <smiles>  (705) 
None

>  <ref_pdb>  (705) 
A0239a

>  <alias>  (705) 
None

>  <HIPPO Pose ID>  (705) 
499365

>  <name>  (705) 
P499365

>  <HIPPO Compound ID>  (705) 
301960

>  <ref_mols>  (705) 
A0239a,A0309a

>  <distance_score>  (705) 
1.369319

>  <inspiration_score>  (705) 
None

$$$$
P499366
     RDKit          3D

 23 24  0  0  0  0  0  0  0  0999 V2000
   11.6429   14.9531   18.6024 C   0  0  0  0  0  0  0  0  0  0  0  0
   11.1326   15.5067   19.8759 C   0  0  0  0  0  0  0  0  0  0  0  0
    9.8865   15.9808   19.9178 C   0  0  0  0  0  0  0  0  0  0  0  0
    9.2072   16.3117   21.1982 C   0  0  0  0  0  0  0  0  0  0  0  0
    9.8823   15.5702   22.3812 C   0  0  2  0  0  0  0  0  0  0  0  0
    9.0612   15.7708   23.6621 C   0  0  2  0  0  0  0  0  0  0  0  0
    9.6923   15.6067   25.0437 C   0  0  0  0  0  0  0  0  0  0  0  0
    7.7108   15.0577   23.5636 C   0  0  0  0  0  0  0  0  0  0  0  0
    7.5923   13.5832   23.1836 C   0  0  0  0  0  0  0  0  0  0  0  0
    6.7604   13.2302   22.3409 O   0  0  0  0  0  0  0  0  0  0  0  0
    8.3295   12.6126   23.8434 N   0  0  0  0  0  0  0  0  0  0  0  0
    9.6271   12.1785   23.2456 C   0  0  0  0  0  0  0  0  0  0  0  0
   10.9549   12.6939   23.8031 C   0  0  0  0  0  0  0  0  0  0  0  0
    9.6576   10.6611   23.0044 C   0  0  0  0  0  0  0  0  0  0  0  0
    7.7714   12.0608   25.1184 C   0  0  0  0  0  0  0  0  0  0  0  0
    7.2141   10.6631   24.9071 C   0  0  0  0  0  0  0  0  0  0  0  0
    6.2922   10.1082   25.9708 C   0  0  0  0  0  0  0  0  0  0  0  0
    5.3248   11.0303   26.5370 N   0  0  0  0  0  0  0  0  0  0  0  0
    4.6379   10.4222   27.6799 C   0  0  0  0  0  0  0  0  0  0  0  0
    5.9106   12.3089   26.9054 C   0  0  0  0  0  0  0  0  0  0  0  0
    6.6777   12.9487   25.7562 C   0  0  0  0  0  0  0  0  0  0  0  0
   11.3641   15.9341   22.3801 C   0  0  0  0  0  0  0  0  0  0  0  0
   12.0013   15.3909   21.0960 C   0  0  0  0  0  0  0  0  0  0  0  0
  1  2  1  0
  2  3  2  0
  3  4  1  0
  5  4  1  6
  5  6  1  0
  6  7  1  1
  6  8  1  0
  8  9  1  0
  9 10  2  0
  9 11  1  0
 11 12  1  0
 12 13  1  0
 12 14  1  0
 11 15  1  0
 15 16  1  0
 16 17  1  0
 17 18  1  0
 18 19  1  0
 18 20  1  0
 20 21  1  0
  5 22  1  0
 22 23  1  0
 23  2  1  0
 21 15  1  0
M  END
>  <energy_score>  (706) 
-19.651513

>  <inchikey>  (706) 
None

>  <smiles>  (706) 
None

>  <ref_pdb>  (706) 
A4035a

>  <alias>  (706) 
None

>  <HIPPO Pose ID>  (706) 
499366

>  <name>  (706) 
P499366

>  <HIPPO Compound ID>  (706) 
302023

>  <ref_mols>  (706) 
A1775a,A4035a

>  <distance_score>  (706) 
1.975583

>  <inspiration_score>  (706) 
None

$$$$
P499370
     RDKit          3D

 20 22  0  0  0  0  0  0  0  0999 V2000
    0.9027   13.4444   26.8994 C   0  0  0  0  0  0  0  0  0  0  0  0
    1.9609   13.1114   27.9517 C   0  0  2  0  0  0  0  0  0  0  0  0
    3.1564   12.6573   27.2719 N   0  0  0  0  0  0  0  0  0  0  0  0
    4.3702   13.4437   26.7555 C   0  0  0  0  0  0  0  0  0  0  0  0
    4.5691   14.5899   26.7250 O   0  0  0  0  0  0  0  0  0  0  0  0
    5.3624   12.4764   26.1658 C   0  0  0  0  0  0  0  0  0  0  0  0
    6.5250   12.9272   25.5781 C   0  0  0  0  0  0  0  0  0  0  0  0
    7.3839   11.9941   25.0101 C   0  0  0  0  0  0  0  0  0  0  0  0
    7.0709   10.6481   25.0329 C   0  0  0  0  0  0  0  0  0  0  0  0
    5.9006   10.2868   25.6763 C   0  0  0  0  0  0  0  0  0  0  0  0
    5.0380   11.1625   26.2457 N   0  0  0  0  0  0  0  0  0  0  0  0
    7.9034    9.7173   24.4123 N   0  0  0  0  0  0  0  0  0  0  0  0
    8.9695   10.1058   23.6449 C   0  0  0  0  0  0  0  0  0  0  0  0
    9.6343    9.2932   23.0110 O   0  0  0  0  0  0  0  0  0  0  0  0
    9.1977   11.6202   23.5813 C   0  0  0  0  0  0  0  0  0  0  0  0
    8.5515   12.4835   24.5034 O   0  0  0  0  0  0  0  0  0  0  0  0
    1.4516   12.1194   28.9956 C   0  0  0  0  0  0  0  0  0  0  0  0
    0.0383   12.6904   29.9411 Cl  0  0  0  0  0  0  0  0  0  0  0  0
    1.5254   10.6168   28.7934 C   0  0  0  0  0  0  0  0  0  0  0  0
    2.4368   11.2784   29.7880 C   0  0  0  0  0  0  0  0  0  0  0  0
  2  1  1  6
  2  3  1  0
  3  4  1  0
  4  5  2  0
  4  6  1  0
  6  7  2  0
  7  8  1  0
  8  9  2  0
  9 10  1  0
 10 11  2  0
  9 12  1  0
 12 13  1  0
 13 14  2  0
 13 15  1  0
 15 16  1  0
  2 17  1  0
 17 18  1  0
 17 19  1  0
 19 20  1  0
 11  6  1  0
 20 17  1  0
 16  8  1  0
M  END
>  <energy_score>  (707) 
-10.61573

>  <inchikey>  (707) 
None

>  <smiles>  (707) 
None

>  <ref_pdb>  (707) 
A3618a

>  <alias>  (707) 
None

>  <HIPPO Pose ID>  (707) 
499370

>  <name>  (707) 
P499370

>  <HIPPO Compound ID>  (707) 
302210

>  <ref_mols>  (707) 
A0310a,A3618a

>  <distance_score>  (707) 
1.936781

>  <inspiration_score>  (707) 
None

$$$$
P499373
     RDKit          3D

 20 22  0  0  0  0  0  0  0  0999 V2000
    1.3423   14.7330   25.9771 C   0  0  0  0  0  0  0  0  0  0  0  0
    0.8942   13.5058   26.7569 C   0  0  0  0  0  0  0  0  0  0  0  0
    1.8802   13.0716   27.8533 C   0  0  2  0  0  0  0  0  0  0  0  0
    3.1305   12.6098   27.3071 N   0  0  0  0  0  0  0  0  0  0  0  0
    4.3701   13.3948   26.8458 C   0  0  0  0  0  0  0  0  0  0  0  0
    4.6079   14.5335   26.9052 O   0  0  0  0  0  0  0  0  0  0  0  0
    5.3492   12.4413   26.2138 C   0  0  0  0  0  0  0  0  0  0  0  0
    6.5164   12.9013   25.6410 C   0  0  0  0  0  0  0  0  0  0  0  0
    7.3703   11.9796   25.0464 C   0  0  0  0  0  0  0  0  0  0  0  0
    7.0525   10.6344   25.0367 C   0  0  0  0  0  0  0  0  0  0  0  0
    5.8758   10.2637   25.6618 C   0  0  0  0  0  0  0  0  0  0  0  0
    5.0135   11.1296   26.2446 N   0  0  0  0  0  0  0  0  0  0  0  0
    7.8891    9.7137   24.4056 N   0  0  0  0  0  0  0  0  0  0  0  0
    8.9563   10.1163   23.6472 C   0  0  0  0  0  0  0  0  0  0  0  0
    9.6312    9.3150   23.0095 O   0  0  0  0  0  0  0  0  0  0  0  0
    9.1669   11.6336   23.5928 C   0  0  0  0  0  0  0  0  0  0  0  0
    8.5425   12.4735   24.5521 O   0  0  0  0  0  0  0  0  0  0  0  0
    1.2930   11.9489   28.6680 C   0  0  0  0  0  0  0  0  0  0  0  0
    1.7854   11.6921   30.0702 C   0  0  0  0  0  0  0  0  0  0  0  0
    0.4018   12.2379   29.8498 C   0  0  0  0  0  0  0  0  0  0  0  0
  1  2  1  0
  3  2  1  6
  3  4  1  0
  4  5  1  0
  5  6  2  0
  5  7  1  0
  7  8  2  0
  8  9  1  0
  9 10  2  0
 10 11  1  0
 11 12  2  0
 10 13  1  0
 13 14  1  0
 14 15  2  0
 14 16  1  0
 16 17  1  0
  3 18  1  0
 18 19  1  0
 19 20  1  0
 12  7  1  0
 20 18  1  0
 17  9  1  0
M  END
>  <energy_score>  (708) 
-19.626471

>  <inchikey>  (708) 
None

>  <smiles>  (708) 
None

>  <ref_pdb>  (708) 
A3618a

>  <alias>  (708) 
None

>  <HIPPO Pose ID>  (708) 
499373

>  <name>  (708) 
P499373

>  <HIPPO Compound ID>  (708) 
302217

>  <ref_mols>  (708) 
A0310a,A3618a

>  <distance_score>  (708) 
1.922205

>  <inspiration_score>  (708) 
None

$$$$
P499377
     RDKit          3D

 20 22  0  0  0  0  0  0  0  0999 V2000
    0.2180   13.1075   25.7262 N   0  0  0  0  0  0  0  0  0  0  0  0
    1.1176   13.8413   25.6331 C   0  0  0  0  0  0  0  0  0  0  0  0
    2.2990   14.7190   25.4317 C   0  0  1  0  0  0  0  0  0  0  0  0
    3.5110   13.9476   25.4314 N   0  0  0  0  0  0  0  0  0  0  0  0
    4.2495   13.2568   26.5783 C   0  0  0  0  0  0  0  0  0  0  0  0
    4.0402   13.2630   27.7216 O   0  0  0  0  0  0  0  0  0  0  0  0
    5.3332   12.3897   26.0345 C   0  0  0  0  0  0  0  0  0  0  0  0
    5.3643   11.0782   26.4597 C   0  0  0  0  0  0  0  0  0  0  0  0
    6.2838   10.2297   25.8670 C   0  0  0  0  0  0  0  0  0  0  0  0
    7.1812   10.7183   24.9403 C   0  0  0  0  0  0  0  0  0  0  0  0
    7.0833   12.0562   24.5806 C   0  0  0  0  0  0  0  0  0  0  0  0
    6.1480   12.8956   25.0773 N   0  0  0  0  0  0  0  0  0  0  0  0
    7.8826   12.5911   23.5958 O   0  0  0  0  0  0  0  0  0  0  0  0
    9.1208   11.8931   23.4555 C   0  0  0  0  0  0  0  0  0  0  0  0
    9.0523   10.3597   23.4848 C   0  0  0  0  0  0  0  0  0  0  0  0
    9.7804    9.6083   22.8513 O   0  0  0  0  0  0  0  0  0  0  0  0
    8.1061    9.8699   24.3409 N   0  0  0  0  0  0  0  0  0  0  0  0
    2.0981   15.3498   24.0841 C   0  0  0  0  0  0  0  0  0  0  0  0
    2.8807   16.5868   23.7074 C   0  0  0  0  0  0  0  0  0  0  0  0
    1.3994   16.6820   23.9428 C   0  0  0  0  0  0  0  0  0  0  0  0
  1  2  3  0
  3  2  1  6
  3  4  1  0
  4  5  1  0
  5  6  2  0
  5  7  1  0
  7  8  2  0
  8  9  1  0
  9 10  2  0
 10 11  1  0
 11 12  2  0
 11 13  1  0
 13 14  1  0
 14 15  1  0
 15 16  2  0
 15 17  1  0
  3 18  1  0
 18 19  1  0
 19 20  1  0
 12  7  1  0
 20 18  1  0
 17 10  1  0
M  END
>  <energy_score>  (709) 
-5.863899

>  <inchikey>  (709) 
None

>  <smiles>  (709) 
None

>  <ref_pdb>  (709) 
A3618a

>  <alias>  (709) 
None

>  <HIPPO Pose ID>  (709) 
499377

>  <name>  (709) 
P499377

>  <HIPPO Compound ID>  (709) 
302240

>  <ref_mols>  (709) 
A0310a,A3618a

>  <distance_score>  (709) 
1.946475

>  <inspiration_score>  (709) 
None

$$$$
P499378
     RDKit          3D

 20 22  0  0  0  0  0  0  0  0999 V2000
   -0.0044   13.7626   25.4458 C   0  0  0  0  0  0  0  0  0  0  0  0
    1.1912   14.0698   25.9705 C   0  0  0  0  0  0  0  0  0  0  0  0
    2.3415   14.7867   25.2928 C   0  0  1  0  0  0  0  0  0  0  0  0
    3.4602   13.8848   25.3046 N   0  0  0  0  0  0  0  0  0  0  0  0
    4.2425   13.2823   26.4785 C   0  0  0  0  0  0  0  0  0  0  0  0
    4.0595   13.3581   27.6260 O   0  0  0  0  0  0  0  0  0  0  0  0
    5.3306   12.4044   25.9658 C   0  0  0  0  0  0  0  0  0  0  0  0
    5.3604   11.1036   26.4230 C   0  0  0  0  0  0  0  0  0  0  0  0
    6.2878   10.2431   25.8594 C   0  0  0  0  0  0  0  0  0  0  0  0
    7.1925   10.7125   24.9287 C   0  0  0  0  0  0  0  0  0  0  0  0
    7.1002   12.0434   24.5422 C   0  0  0  0  0  0  0  0  0  0  0  0
    6.1603   12.8907   25.0118 N   0  0  0  0  0  0  0  0  0  0  0  0
    7.9070   12.5588   23.5532 O   0  0  0  0  0  0  0  0  0  0  0  0
    9.1450   11.8572   23.4364 C   0  0  0  0  0  0  0  0  0  0  0  0
    9.0675   10.3250   23.4845 C   0  0  0  0  0  0  0  0  0  0  0  0
    9.7913    9.5610   22.8613 O   0  0  0  0  0  0  0  0  0  0  0  0
    8.1176    9.8518   24.3468 N   0  0  0  0  0  0  0  0  0  0  0  0
    2.1170   15.2431   23.8771 C   0  0  0  0  0  0  0  0  0  0  0  0
    1.4966   16.5881   23.5880 C   0  0  0  0  0  0  0  0  0  0  0  0
    2.9535   16.3583   23.2966 C   0  0  0  0  0  0  0  0  0  0  0  0
  1  2  2  0
  2  3  1  0
  3  4  1  6
  4  5  1  0
  5  6  2  0
  5  7  1  0
  7  8  2  0
  8  9  1  0
  9 10  2  0
 10 11  1  0
 11 12  2  0
 11 13  1  0
 13 14  1  0
 14 15  1  0
 15 16  2  0
 15 17  1  0
  3 18  1  0
 18 19  1  0
 19 20  1  0
 12  7  1  0
 20 18  1  0
 17 10  1  0
M  END
>  <energy_score>  (710) 
-10.573269

>  <inchikey>  (710) 
None

>  <smiles>  (710) 
None

>  <ref_pdb>  (710) 
A3618a

>  <alias>  (710) 
None

>  <HIPPO Pose ID>  (710) 
499378

>  <name>  (710) 
P499378

>  <HIPPO Compound ID>  (710) 
302242

>  <ref_mols>  (710) 
A0310a,A3618a

>  <distance_score>  (710) 
1.959096

>  <inspiration_score>  (710) 
None

$$$$
P499379
     RDKit          3D

 20 22  0  0  0  0  0  0  0  0999 V2000
    1.5373   14.7263   26.5366 C   0  0  0  0  0  0  0  0  0  0  0  0
    2.8963   15.1038   27.1359 C   0  0  1  0  0  0  0  0  0  0  0  0
    3.8788   14.1001   26.7892 N   0  0  0  0  0  0  0  0  0  0  0  0
    3.9263   12.6070   27.1050 C   0  0  0  0  0  0  0  0  0  0  0  0
    3.2237   11.9523   27.7602 O   0  0  0  0  0  0  0  0  0  0  0  0
    5.0694   11.9537   26.3771 C   0  0  0  0  0  0  0  0  0  0  0  0
    5.1452   10.5804   26.4204 C   0  0  0  0  0  0  0  0  0  0  0  0
    6.1617    9.9669   25.7173 C   0  0  0  0  0  0  0  0  0  0  0  0
    7.0802   10.7058   25.0135 C   0  0  0  0  0  0  0  0  0  0  0  0
    6.9393   12.0806   25.0105 C   0  0  0  0  0  0  0  0  0  0  0  0
    5.9490   12.7272   25.6802 N   0  0  0  0  0  0  0  0  0  0  0  0
    7.7757   12.8915   24.2882 O   0  0  0  0  0  0  0  0  0  0  0  0
    8.9042   12.2491   23.6962 C   0  0  0  0  0  0  0  0  0  0  0  0
    8.9618   10.7216   23.5440 C   0  0  0  0  0  0  0  0  0  0  0  0
    9.7447   10.1160   22.8246 O   0  0  0  0  0  0  0  0  0  0  0  0
    8.0650   10.0416   24.3006 N   0  0  0  0  0  0  0  0  0  0  0  0
    3.4231   16.4808   26.7738 C   0  0  0  0  0  0  0  0  0  0  0  0
    4.5974   17.1455   27.9537 Cl  0  0  0  0  0  0  0  0  0  0  0  0
    2.6110   17.5143   26.0175 C   0  0  0  0  0  0  0  0  0  0  0  0
    3.7303   16.7927   25.3237 C   0  0  0  0  0  0  0  0  0  0  0  0
  2  1  1  6
  2  3  1  0
  3  4  1  0
  4  5  2  0
  4  6  1  0
  6  7  2  0
  7  8  1  0
  8  9  2  0
  9 10  1  0
 10 11  2  0
 10 12  1  0
 12 13  1  0
 13 14  1  0
 14 15  2  0
 14 16  1  0
  2 17  1  0
 17 18  1  0
 17 19  1  0
 19 20  1  0
 11  6  1  0
 20 17  1  0
 16  9  1  0
M  END
>  <energy_score>  (711) 
-15.277988

>  <inchikey>  (711) 
None

>  <smiles>  (711) 
None

>  <ref_pdb>  (711) 
A3618a

>  <alias>  (711) 
None

>  <HIPPO Pose ID>  (711) 
499379

>  <name>  (711) 
P499379

>  <HIPPO Compound ID>  (711) 
302244

>  <ref_mols>  (711) 
A0310a,A3618a

>  <distance_score>  (711) 
1.925931

>  <inspiration_score>  (711) 
None

$$$$
P499381
     RDKit          3D

 20 22  0  0  0  0  0  0  0  0999 V2000
    0.2433   14.1922   26.0771 C   0  0  0  0  0  0  0  0  0  0  0  0
    1.3542   14.6052   26.2774 C   0  0  0  0  0  0  0  0  0  0  0  0
    2.7087   15.1255   26.5351 C   0  0  1  0  0  0  0  0  0  0  0  0
    3.6825   14.1299   26.2257 N   0  0  0  0  0  0  0  0  0  0  0  0
    4.1640   12.9261   27.0350 C   0  0  0  0  0  0  0  0  0  0  0  0
    3.7920   12.5042   28.0532 O   0  0  0  0  0  0  0  0  0  0  0  0
    5.2171   12.1677   26.2879 C   0  0  0  0  0  0  0  0  0  0  0  0
    5.2736   10.8056   26.4926 C   0  0  0  0  0  0  0  0  0  0  0  0
    6.2255   10.0838   25.7993 C   0  0  0  0  0  0  0  0  0  0  0  0
    7.1194   10.7220   24.9725 C   0  0  0  0  0  0  0  0  0  0  0  0
    6.9884   12.0918   24.8079 C   0  0  0  0  0  0  0  0  0  0  0  0
    6.0379   12.8313   25.4323 N   0  0  0  0  0  0  0  0  0  0  0  0
    7.7824   12.7839   23.9251 O   0  0  0  0  0  0  0  0  0  0  0  0
    8.9960   12.1130   23.5826 C   0  0  0  0  0  0  0  0  0  0  0  0
    8.9937   10.5794   23.4937 C   0  0  0  0  0  0  0  0  0  0  0  0
    9.7505    9.9095   22.8049 O   0  0  0  0  0  0  0  0  0  0  0  0
    8.0742    9.9764   24.2955 N   0  0  0  0  0  0  0  0  0  0  0  0
    2.8585   16.3203   25.6467 C   0  0  0  0  0  0  0  0  0  0  0  0
    2.6289   17.7093   26.1984 C   0  0  0  0  0  0  0  0  0  0  0  0
    4.0200   17.2682   25.8432 C   0  0  0  0  0  0  0  0  0  0  0  0
  1  2  3  0
  3  2  1  6
  3  4  1  0
  4  5  1  0
  5  6  2  0
  5  7  1  0
  7  8  2  0
  8  9  1  0
  9 10  2  0
 10 11  1  0
 11 12  2  0
 11 13  1  0
 13 14  1  0
 14 15  1  0
 15 16  2  0
 15 17  1  0
  3 18  1  0
 18 19  1  0
 19 20  1  0
 12  7  1  0
 20 18  1  0
 17 10  1  0
M  END
>  <energy_score>  (712) 
-18.121035

>  <inchikey>  (712) 
None

>  <smiles>  (712) 
None

>  <ref_pdb>  (712) 
A3618a

>  <alias>  (712) 
None

>  <HIPPO Pose ID>  (712) 
499381

>  <name>  (712) 
P499381

>  <HIPPO Compound ID>  (712) 
302247

>  <ref_mols>  (712) 
A0310a,A3618a

>  <distance_score>  (712) 
1.89299

>  <inspiration_score>  (712) 
None

$$$$
P499382
     RDKit          3D

 21 23  0  0  0  0  0  0  0  0999 V2000
   -0.1087   14.7782   27.0117 C   0  0  0  0  0  0  0  0  0  0  0  0
    1.0466   14.1297   26.2898 C   0  0  0  0  0  0  0  0  0  0  0  0
    0.8550   13.1412   25.5732 O   0  0  0  0  0  0  0  0  0  0  0  0
    2.4192   14.8101   26.4751 C   0  0  1  0  0  0  0  0  0  0  0  0
    3.4745   13.8754   26.1899 N   0  0  0  0  0  0  0  0  0  0  0  0
    4.1751   12.8631   27.0939 C   0  0  0  0  0  0  0  0  0  0  0  0
    3.9632   12.5641   28.1973 O   0  0  0  0  0  0  0  0  0  0  0  0
    5.2209   12.1220   26.3285 C   0  0  0  0  0  0  0  0  0  0  0  0
    5.2837   10.7602   26.5174 C   0  0  0  0  0  0  0  0  0  0  0  0
    6.2306   10.0558   25.8006 C   0  0  0  0  0  0  0  0  0  0  0  0
    7.1150   10.7099   24.9758 C   0  0  0  0  0  0  0  0  0  0  0  0
    6.9749   12.0801   24.8299 C   0  0  0  0  0  0  0  0  0  0  0  0
    6.0249   12.8035   25.4718 N   0  0  0  0  0  0  0  0  0  0  0  0
    7.7619   12.7904   23.9564 O   0  0  0  0  0  0  0  0  0  0  0  0
    8.9746   12.1305   23.5930 C   0  0  0  0  0  0  0  0  0  0  0  0
    8.9889   10.5976   23.4954 C   0  0  0  0  0  0  0  0  0  0  0  0
    9.7603    9.9414   22.8095 O   0  0  0  0  0  0  0  0  0  0  0  0
    8.0730    9.9788   24.2881 N   0  0  0  0  0  0  0  0  0  0  0  0
    2.5975   16.0356   25.6340 C   0  0  0  0  0  0  0  0  0  0  0  0
    2.3233   17.4113   26.1923 C   0  0  0  0  0  0  0  0  0  0  0  0
    3.7395   16.9737   25.9463 C   0  0  0  0  0  0  0  0  0  0  0  0
  1  2  1  0
  2  3  2  0
  2  4  1  0
  4  5  1  6
  5  6  1  0
  6  7  2  0
  6  8  1  0
  8  9  2  0
  9 10  1  0
 10 11  2  0
 11 12  1  0
 12 13  2  0
 12 14  1  0
 14 15  1  0
 15 16  1  0
 16 17  2  0
 16 18  1  0
  4 19  1  0
 19 20  1  0
 20 21  1  0
 13  8  1  0
 21 19  1  0
 18 11  1  0
M  END
>  <energy_score>  (713) 
-10.055054

>  <inchikey>  (713) 
None

>  <smiles>  (713) 
None

>  <ref_pdb>  (713) 
A3618a

>  <alias>  (713) 
None

>  <HIPPO Pose ID>  (713) 
499382

>  <name>  (713) 
P499382

>  <HIPPO Compound ID>  (713) 
302248

>  <ref_mols>  (713) 
A0310a,A3618a

>  <distance_score>  (713) 
1.912601

>  <inspiration_score>  (713) 
None

$$$$
P499386
     RDKit          3D

 21 23  0  0  0  0  0  0  0  0999 V2000
    1.0863   14.0825   26.5047 C   0  0  0  0  0  0  0  0  0  0  0  0
    2.1948   13.9021   27.5538 C   0  0  2  0  0  0  0  0  0  0  0  0
    2.4886   15.2121   28.1881 C   0  0  0  0  0  0  0  0  0  0  0  0
    2.6483   16.2579   28.6694 N   0  0  0  0  0  0  0  0  0  0  0  0
    3.3547   13.3121   26.9059 N   0  0  0  0  0  0  0  0  0  0  0  0
    4.8282   13.2465   27.3562 C   0  0  0  0  0  0  0  0  0  0  0  0
    5.3575   13.7212   28.2790 O   0  0  0  0  0  0  0  0  0  0  0  0
    5.6034   12.3328   26.4624 C   0  0  0  0  0  0  0  0  0  0  0  0
    5.2339   11.0043   26.3938 C   0  0  0  0  0  0  0  0  0  0  0  0
    6.0268   10.1457   25.6440 C   0  0  0  0  0  0  0  0  0  0  0  0
    7.1519   10.6256   24.9972 C   0  0  0  0  0  0  0  0  0  0  0  0
    7.4351   11.9756   25.1113 C   0  0  0  0  0  0  0  0  0  0  0  0
    6.6828   12.8333   25.8301 N   0  0  0  0  0  0  0  0  0  0  0  0
    8.5784   12.5288   24.6054 O   0  0  0  0  0  0  0  0  0  0  0  0
    9.1975   11.7658   23.5818 C   0  0  0  0  0  0  0  0  0  0  0  0
    9.0313   10.2399   23.5496 C   0  0  0  0  0  0  0  0  0  0  0  0
    9.7144    9.4847   22.8687 O   0  0  0  0  0  0  0  0  0  0  0  0
    7.9791    9.7664   24.2815 N   0  0  0  0  0  0  0  0  0  0  0  0
    1.6539   13.0433   28.6880 C   0  0  0  0  0  0  0  0  0  0  0  0
    1.5799   11.5322   28.5869 C   0  0  0  0  0  0  0  0  0  0  0  0
    2.5011   12.1710   29.5892 C   0  0  0  0  0  0  0  0  0  0  0  0
  2  1  1  6
  2  3  1  0
  3  4  3  0
  2  5  1  0
  5  6  1  0
  6  7  2  0
  6  8  1  0
  8  9  2  0
  9 10  1  0
 10 11  2  0
 11 12  1  0
 12 13  2  0
 12 14  1  0
 14 15  1  0
 15 16  1  0
 16 17  2  0
 16 18  1  0
  2 19  1  0
 19 20  1  0
 20 21  1  0
 13  8  1  0
 21 19  1  0
 18 11  1  0
M  END
>  <energy_score>  (714) 
-2.663775

>  <inchikey>  (714) 
None

>  <smiles>  (714) 
None

>  <ref_pdb>  (714) 
A3618a

>  <alias>  (714) 
None

>  <HIPPO Pose ID>  (714) 
499386

>  <name>  (714) 
P499386

>  <HIPPO Compound ID>  (714) 
302254

>  <ref_mols>  (714) 
A0310a,A3618a

>  <distance_score>  (714) 
1.963377

>  <inspiration_score>  (714) 
None

$$$$
P499387
     RDKit          3D

 21 23  0  0  0  0  0  0  0  0999 V2000
   11.5988   16.0437   22.2654 C   0  0  0  0  0  0  0  0  0  0  0  0
   11.8668   14.7854   21.9221 C   0  0  0  0  0  0  0  0  0  0  0  0
   11.4087   13.7057   22.8141 C   0  0  0  0  0  0  0  0  0  0  0  0
   12.1267   13.0497   23.4528 O   0  0  0  0  0  0  0  0  0  0  0  0
    9.8798   13.6326   22.6382 N   0  0  0  0  0  0  0  0  0  0  0  0
    8.9446   12.8315   23.2582 C   0  0  0  0  0  0  0  0  0  0  0  0
    7.6896   13.3494   23.5182 C   0  0  0  0  0  0  0  0  0  0  0  0
    6.7968   12.5806   24.2406 C   0  0  0  0  0  0  0  0  0  0  0  0
    7.1805   11.2949   24.6241 C   0  0  0  0  0  0  0  0  0  0  0  0
    6.2760   10.5167   25.5139 C   0  0  0  0  0  0  0  0  0  0  0  0
    5.9111    9.4503   25.2348 O   0  0  0  0  0  0  0  0  0  0  0  0
    5.9025   11.4172   26.6979 N   0  0  0  0  0  0  0  0  0  0  0  0
    4.9495   11.2383   27.7173 C   0  0  2  0  0  0  0  0  0  0  0  0
    3.5650   11.6483   27.5637 C   0  0  0  0  0  0  0  0  0  0  0  0
    2.5279   10.9007   28.0597 F   0  0  0  0  0  0  0  0  0  0  0  0
    3.0998   12.3270   26.4561 F   0  0  0  0  0  0  0  0  0  0  0  0
    4.4592   12.4097   28.5436 C   0  0  0  0  0  0  0  0  0  0  0  0
    5.3204   13.6811   28.2998 C   0  0  0  0  0  0  0  0  0  0  0  0
    3.9287   13.8076   28.7394 C   0  0  0  0  0  0  0  0  0  0  0  0
    8.3624   10.7354   24.3148 N   0  0  0  0  0  0  0  0  0  0  0  0
    9.2217   11.5209   23.6329 C   0  0  0  0  0  0  0  0  0  0  0  0
  1  2  2  0
  2  3  1  0
  3  4  2  0
  3  5  1  0
  5  6  1  0
  6  7  2  0
  7  8  1  0
  8  9  2  0
  9 10  1  0
 10 11  2  0
 10 12  1  0
 13 12  1  6
 13 14  1  0
 14 15  1  0
 14 16  1  0
 14 17  1  0
 17 18  1  0
 18 19  1  0
  9 20  1  0
 20 21  2  0
 21  6  1  0
 17 13  1  0
 19 17  1  0
M  END
>  <energy_score>  (715) 
-7.014291

>  <inchikey>  (715) 
None

>  <smiles>  (715) 
None

>  <ref_pdb>  (715) 
A3618a

>  <alias>  (715) 
None

>  <HIPPO Pose ID>  (715) 
499387

>  <name>  (715) 
P499387

>  <HIPPO Compound ID>  (715) 
302278

>  <ref_mols>  (715) 
A0310a,A3618a

>  <distance_score>  (715) 
1.839562

>  <inspiration_score>  (715) 
None

$$$$
P499388
     RDKit          3D

 21 23  0  0  0  0  0  0  0  0999 V2000
    5.5999    9.4242   25.3381 O   0  0  0  0  0  0  0  0  0  0  0  0
    6.1249   10.4128   25.6647 C   0  0  0  0  0  0  0  0  0  0  0  0
    5.8766   11.3221   26.8923 N   0  0  0  0  0  0  0  0  0  0  0  0
    4.8965   11.2548   27.8902 C   0  0  2  0  0  0  0  0  0  0  0  0
    3.5682   10.5553   27.6412 C   0  0  0  0  0  0  0  0  0  0  0  0
    3.6646   12.0022   27.6435 C   0  0  0  0  0  0  0  0  0  0  0  0
    3.2633   13.0656   26.7274 C   0  0  0  0  0  0  0  0  0  0  0  0
    2.9618   13.1331   28.2265 C   0  0  0  0  0  0  0  0  0  0  0  0
    7.1440   11.0460   24.7962 C   0  0  0  0  0  0  0  0  0  0  0  0
    7.0023   12.3999   24.5168 C   0  0  0  0  0  0  0  0  0  0  0  0
    7.9929   13.0132   23.7869 C   0  0  0  0  0  0  0  0  0  0  0  0
    9.0685   12.2590   23.3436 C   0  0  0  0  0  0  0  0  0  0  0  0
   10.1297   12.9030   22.7428 N   0  0  0  0  0  0  0  0  0  0  0  0
   10.3242   14.4194   22.3689 C   0  0  0  0  0  0  0  0  0  0  0  0
    9.5790   15.3232   22.4479 O   0  0  0  0  0  0  0  0  0  0  0  0
   11.7920   14.5253   21.9512 C   0  0  0  0  0  0  0  0  0  0  0  0
   12.3525   15.7196   22.2476 F   0  0  0  0  0  0  0  0  0  0  0  0
   11.9884   14.2683   20.6392 F   0  0  0  0  0  0  0  0  0  0  0  0
   12.5081   13.5928   22.6495 F   0  0  0  0  0  0  0  0  0  0  0  0
    9.0837   10.8879   23.5927 C   0  0  0  0  0  0  0  0  0  0  0  0
    8.1455   10.2681   24.3343 N   0  0  0  0  0  0  0  0  0  0  0  0
  1  2  2  0
  2  3  1  0
  4  3  1  6
  4  5  1  0
  5  6  1  0
  6  7  1  0
  7  8  1  0
  2  9  1  0
  9 10  2  0
 10 11  1  0
 11 12  2  0
 12 13  1  0
 13 14  1  0
 14 15  2  0
 14 16  1  0
 16 17  1  0
 16 18  1  0
 16 19  1  0
 12 20  1  0
 20 21  2  0
  6  4  1  0
 21  9  1  0
  8  6  1  0
M  END
>  <energy_score>  (716) 
-0.573788

>  <inchikey>  (716) 
None

>  <smiles>  (716) 
None

>  <ref_pdb>  (716) 
A3618a

>  <alias>  (716) 
None

>  <HIPPO Pose ID>  (716) 
499388

>  <name>  (716) 
P499388

>  <HIPPO Compound ID>  (716) 
302291

>  <ref_mols>  (716) 
A0310a,A3618a

>  <distance_score>  (716) 
1.823399

>  <inspiration_score>  (716) 
None

$$$$
P499390
     RDKit          3D

 21 23  0  0  0  0  0  0  0  0999 V2000
    9.6405    9.2815   23.0045 O   0  0  0  0  0  0  0  0  0  0  0  0
    8.9774   10.0961   23.6376 C   0  0  0  0  0  0  0  0  0  0  0  0
    9.2113   11.6097   23.5758 C   0  0  0  0  0  0  0  0  0  0  0  0
    8.5727   12.4730   24.5029 O   0  0  0  0  0  0  0  0  0  0  0  0
    7.4012   11.9892   25.0059 C   0  0  0  0  0  0  0  0  0  0  0  0
    6.5493   12.9256   25.5775 C   0  0  0  0  0  0  0  0  0  0  0  0
    5.3857   12.4799   26.1667 C   0  0  0  0  0  0  0  0  0  0  0  0
    4.4098   13.4519   26.7743 C   0  0  0  0  0  0  0  0  0  0  0  0
    4.6225   14.5954   26.7560 O   0  0  0  0  0  0  0  0  0  0  0  0
    3.1974   12.6741   27.3022 N   0  0  0  0  0  0  0  0  0  0  0  0
    2.0242   13.1317   28.0089 C   0  0  1  0  0  0  0  0  0  0  0  0
    0.9330   13.5677   27.0119 C   0  0  0  0  0  0  0  0  0  0  0  0
   -0.2204   14.1015   27.6599 O   0  0  0  0  0  0  0  0  0  0  0  0
    1.5545   12.0150   28.9215 C   0  0  0  0  0  0  0  0  0  0  0  0
    1.1124   10.8219   28.2501 O   0  0  0  0  0  0  0  0  0  0  0  0
    2.2463   11.7866   30.2427 C   0  0  0  0  0  0  0  0  0  0  0  0
    0.8440   12.3237   30.2139 C   0  0  0  0  0  0  0  0  0  0  0  0
    5.0522   11.1678   26.2423 N   0  0  0  0  0  0  0  0  0  0  0  0
    5.9072   10.2888   25.6663 C   0  0  0  0  0  0  0  0  0  0  0  0
    7.0797   10.6451   25.0240 C   0  0  0  0  0  0  0  0  0  0  0  0
    7.9077    9.7113   24.4019 N   0  0  0  0  0  0  0  0  0  0  0  0
  1  2  2  0
  2  3  1  0
  3  4  1  0
  4  5  1  0
  5  6  2  0
  6  7  1  0
  7  8  1  0
  8  9  2  0
  8 10  1  0
 10 11  1  0
 11 12  1  6
 12 13  1  0
 11 14  1  0
 14 15  1  0
 14 16  1  0
 16 17  1  0
  7 18  2  0
 18 19  1  0
 19 20  2  0
 20 21  1  0
 21  2  1  0
 20  5  1  0
 17 14  1  0
M  END
>  <energy_score>  (717) 
-16.224984

>  <inchikey>  (717) 
None

>  <smiles>  (717) 
None

>  <ref_pdb>  (717) 
A3618a

>  <alias>  (717) 
None

>  <HIPPO Pose ID>  (717) 
499390

>  <name>  (717) 
P499390

>  <HIPPO Compound ID>  (717) 
302305

>  <ref_mols>  (717) 
A0310a,A3618a

>  <distance_score>  (717) 
1.958443

>  <inspiration_score>  (717) 
None

$$$$
P499392
     RDKit          3D

 21 23  0  0  0  0  0  0  0  0999 V2000
    0.2187   13.5548   24.7992 C   0  0  0  0  0  0  0  0  0  0  0  0
    0.6565   13.3888   26.0551 C   0  0  0  0  0  0  0  0  0  0  0  0
    1.1775   14.5261   26.8956 C   0  0  0  0  0  0  0  0  0  0  0  0
    2.3969   14.2523   27.8064 C   0  0  2  0  0  0  0  0  0  0  0  0
    3.4793   13.5859   27.1141 N   0  0  0  0  0  0  0  0  0  0  0  0
    3.7388   12.0889   26.8711 C   0  0  0  0  0  0  0  0  0  0  0  0
    3.0844   11.1589   27.1222 O   0  0  0  0  0  0  0  0  0  0  0  0
    5.0677   11.9148   26.1715 C   0  0  0  0  0  0  0  0  0  0  0  0
    5.5715   10.6434   25.9405 C   0  0  0  0  0  0  0  0  0  0  0  0
    6.7487   10.5393   25.2085 C   0  0  0  0  0  0  0  0  0  0  0  0
    7.3824   11.6785   24.7323 C   0  0  0  0  0  0  0  0  0  0  0  0
    6.8325   12.9097   25.0523 C   0  0  0  0  0  0  0  0  0  0  0  0
    5.6998   13.0621   25.7781 N   0  0  0  0  0  0  0  0  0  0  0  0
    8.5230   11.5667   23.9392 N   0  0  0  0  0  0  0  0  0  0  0  0
    8.9755   10.3531   23.5081 C   0  0  0  0  0  0  0  0  0  0  0  0
    9.8955   10.2560   22.7098 O   0  0  0  0  0  0  0  0  0  0  0  0
    8.2220    9.1518   23.9912 C   0  0  0  0  0  0  0  0  0  0  0  0
    7.2303    9.2860   24.9951 O   0  0  0  0  0  0  0  0  0  0  0  0
    2.1274   13.5494   29.1177 C   0  0  0  0  0  0  0  0  0  0  0  0
    1.1825   14.1461   30.1359 C   0  0  0  0  0  0  0  0  0  0  0  0
    0.8403   12.8409   29.4747 C   0  0  0  0  0  0  0  0  0  0  0  0
  1  2  2  0
  2  3  1  0
  4  3  1  6
  4  5  1  0
  5  6  1  0
  6  7  2  0
  6  8  1  0
  8  9  2  0
  9 10  1  0
 10 11  2  0
 11 12  1  0
 12 13  2  0
 11 14  1  0
 14 15  1  0
 15 16  2  0
 15 17  1  0
 17 18  1  0
  4 19  1  0
 19 20  1  0
 20 21  1  0
 13  8  1  0
 21 19  1  0
 18 10  1  0
M  END
>  <energy_score>  (718) 
-4.384234

>  <inchikey>  (718) 
None

>  <smiles>  (718) 
None

>  <ref_pdb>  (718) 
A3618a

>  <alias>  (718) 
None

>  <HIPPO Pose ID>  (718) 
499392

>  <name>  (718) 
P499392

>  <HIPPO Compound ID>  (718) 
302313

>  <ref_mols>  (718) 
A0310a,A3618a

>  <distance_score>  (718) 
1.558084

>  <inspiration_score>  (718) 
None

$$$$
P499394
     RDKit          3D

 21 23  0  0  0  0  0  0  0  0999 V2000
   -0.3667   13.1191   24.6644 C   0  0  0  0  0  0  0  0  0  0  0  0
    0.1581   13.2483   25.7374 C   0  0  0  0  0  0  0  0  0  0  0  0
    0.7784   13.5014   27.0552 C   0  0  0  0  0  0  0  0  0  0  0  0
    2.0651   14.3489   26.9841 C   0  0  1  0  0  0  0  0  0  0  0  0
    3.2105   13.5703   26.5676 N   0  0  0  0  0  0  0  0  0  0  0  0
    4.7033   13.7371   26.8937 C   0  0  0  0  0  0  0  0  0  0  0  0
    5.2583   14.5726   27.4870 O   0  0  0  0  0  0  0  0  0  0  0  0
    5.5035   12.6649   26.2249 C   0  0  0  0  0  0  0  0  0  0  0  0
    6.7223   12.9939   25.6736 C   0  0  0  0  0  0  0  0  0  0  0  0
    7.4630   11.9951   25.0632 C   0  0  0  0  0  0  0  0  0  0  0  0
    7.0056   10.6908   25.0468 C   0  0  0  0  0  0  0  0  0  0  0  0
    5.7759   10.4514   25.6433 C   0  0  0  0  0  0  0  0  0  0  0  0
    4.9930   11.4142   26.2020 N   0  0  0  0  0  0  0  0  0  0  0  0
    7.7764    9.6918   24.4442 N   0  0  0  0  0  0  0  0  0  0  0  0
    8.8835    9.9963   23.6895 C   0  0  0  0  0  0  0  0  0  0  0  0
    9.5185    9.1394   23.0836 O   0  0  0  0  0  0  0  0  0  0  0  0
    9.1790   11.4936   23.5798 C   0  0  0  0  0  0  0  0  0  0  0  0
    8.6784   12.3732   24.5726 O   0  0  0  0  0  0  0  0  0  0  0  0
    1.8670   15.5897   26.1381 C   0  0  0  0  0  0  0  0  0  0  0  0
    2.2814   15.6424   24.6851 C   0  0  0  0  0  0  0  0  0  0  0  0
    2.9919   16.4968   25.6985 C   0  0  0  0  0  0  0  0  0  0  0  0
  1  2  3  0
  2  3  1  0
  4  3  1  6
  4  5  1  0
  5  6  1  0
  6  7  2  0
  6  8  1  0
  8  9  2  0
  9 10  1  0
 10 11  2  0
 11 12  1  0
 12 13  2  0
 11 14  1  0
 14 15  1  0
 15 16  2  0
 15 17  1  0
 17 18  1  0
  4 19  1  0
 19 20  1  0
 20 21  1  0
 13  8  1  0
 21 19  1  0
 18 10  1  0
M  END
>  <energy_score>  (719) 
-9.672156

>  <inchikey>  (719) 
None

>  <smiles>  (719) 
None

>  <ref_pdb>  (719) 
A3618a

>  <alias>  (719) 
None

>  <HIPPO Pose ID>  (719) 
499394

>  <name>  (719) 
P499394

>  <HIPPO Compound ID>  (719) 
302315

>  <ref_mols>  (719) 
A0310a,A3618a

>  <distance_score>  (719) 
1.985501

>  <inspiration_score>  (719) 
None

$$$$
P499395
     RDKit          3D

 21 23  0  0  0  0  0  0  0  0999 V2000
    1.9865   16.2453   26.1582 C   0  0  0  0  0  0  0  0  0  0  0  0
    1.6825   14.9141   25.7615 O   0  0  0  0  0  0  0  0  0  0  0  0
    1.1623   14.1086   26.8303 C   0  0  0  0  0  0  0  0  0  0  0  0
    2.2496   13.6553   27.8286 C   0  0  2  0  0  0  0  0  0  0  0  0
    3.3560   13.0560   27.1041 N   0  0  0  0  0  0  0  0  0  0  0  0
    4.3419   11.9488   27.5206 C   0  0  0  0  0  0  0  0  0  0  0  0
    4.3753   11.2886   28.4807 O   0  0  0  0  0  0  0  0  0  0  0  0
    5.3850   11.7758   26.4612 C   0  0  0  0  0  0  0  0  0  0  0  0
    5.8586   10.5087   26.1691 C   0  0  0  0  0  0  0  0  0  0  0  0
    6.8904   10.4068   25.2465 C   0  0  0  0  0  0  0  0  0  0  0  0
    7.4279   11.5527   24.6734 C   0  0  0  0  0  0  0  0  0  0  0  0
    6.8638   12.7762   25.0026 C   0  0  0  0  0  0  0  0  0  0  0  0
    5.8417   12.9191   25.8765 N   0  0  0  0  0  0  0  0  0  0  0  0
    8.5104   11.4580   23.8027 N   0  0  0  0  0  0  0  0  0  0  0  0
    8.9950   10.2492   23.3984 C   0  0  0  0  0  0  0  0  0  0  0  0
    9.8842   10.1568   22.5659 O   0  0  0  0  0  0  0  0  0  0  0  0
    8.2941    9.0388   23.9316 C   0  0  0  0  0  0  0  0  0  0  0  0
    7.3487    9.1525   24.9812 O   0  0  0  0  0  0  0  0  0  0  0  0
    1.7569   12.7443   28.9244 C   0  0  0  0  0  0  0  0  0  0  0  0
    1.1615   11.3912   28.6188 C   0  0  0  0  0  0  0  0  0  0  0  0
    0.2995   12.4623   29.2225 C   0  0  0  0  0  0  0  0  0  0  0  0
  1  2  1  0
  2  3  1  0
  4  3  1  6
  4  5  1  0
  5  6  1  0
  6  7  2  0
  6  8  1  0
  8  9  2  0
  9 10  1  0
 10 11  2  0
 11 12  1  0
 12 13  2  0
 11 14  1  0
 14 15  1  0
 15 16  2  0
 15 17  1  0
 17 18  1  0
  4 19  1  0
 19 20  1  0
 20 21  1  0
 13  8  1  0
 21 19  1  0
 18 10  1  0
M  END
>  <energy_score>  (720) 
-3.925019

>  <inchikey>  (720) 
None

>  <smiles>  (720) 
None

>  <ref_pdb>  (720) 
A3618a

>  <alias>  (720) 
None

>  <HIPPO Pose ID>  (720) 
499395

>  <name>  (720) 
P499395

>  <HIPPO Compound ID>  (720) 
302316

>  <ref_mols>  (720) 
A0310a,A3618a

>  <distance_score>  (720) 
1.591561

>  <inspiration_score>  (720) 
None

$$$$
P499396
     RDKit          3D

 21 23  0  0  0  0  0  0  0  0999 V2000
    0.9576   13.5980   26.9836 C   0  0  0  0  0  0  0  0  0  0  0  0
    1.9382   13.0012   28.0115 C   0  0  2  0  0  0  0  0  0  0  0  0
    2.2960   14.0702   29.0870 C   0  0  0  0  0  0  0  0  0  0  0  0
    2.5823   15.3592   28.5406 O   0  0  0  0  0  0  0  0  0  0  0  0
    3.1415   12.5688   27.3046 N   0  0  0  0  0  0  0  0  0  0  0  0
    4.3085   13.3855   26.7276 C   0  0  0  0  0  0  0  0  0  0  0  0
    4.4606   14.5380   26.6556 O   0  0  0  0  0  0  0  0  0  0  0  0
    5.3269   12.4402   26.1464 C   0  0  0  0  0  0  0  0  0  0  0  0
    6.4829   12.9110   25.5605 C   0  0  0  0  0  0  0  0  0  0  0  0
    7.3626   11.9913   25.0010 C   0  0  0  0  0  0  0  0  0  0  0  0
    7.0731   10.6402   25.0270 C   0  0  0  0  0  0  0  0  0  0  0  0
    5.9094   10.2603   25.6701 C   0  0  0  0  0  0  0  0  0  0  0  0
    5.0321   11.1217   26.2360 N   0  0  0  0  0  0  0  0  0  0  0  0
    7.9182    9.7213   24.4066 N   0  0  0  0  0  0  0  0  0  0  0  0
    8.9783   10.1243   23.6397 C   0  0  0  0  0  0  0  0  0  0  0  0
    9.6508    9.3208   23.0024 O   0  0  0  0  0  0  0  0  0  0  0  0
    9.1934   11.6414   23.5847 C   0  0  0  0  0  0  0  0  0  0  0  0
    8.5233   12.4988   24.4959 O   0  0  0  0  0  0  0  0  0  0  0  0
    1.3246   11.7256   28.5826 C   0  0  0  0  0  0  0  0  0  0  0  0
    1.7718   11.1284   29.8959 C   0  0  0  0  0  0  0  0  0  0  0  0
    0.3797   11.6861   29.7610 C   0  0  0  0  0  0  0  0  0  0  0  0
  2  1  1  6
  2  3  1  0
  3  4  1  0
  2  5  1  0
  5  6  1  0
  6  7  2  0
  6  8  1  0
  8  9  2  0
  9 10  1  0
 10 11  2  0
 11 12  1  0
 12 13  2  0
 11 14  1  0
 14 15  1  0
 15 16  2  0
 15 17  1  0
 17 18  1  0
  2 19  1  0
 19 20  1  0
 20 21  1  0
 13  8  1  0
 21 19  1  0
 18 10  1  0
M  END
>  <energy_score>  (721) 
-37.52787

>  <inchikey>  (721) 
None

>  <smiles>  (721) 
None

>  <ref_pdb>  (721) 
A3618a

>  <alias>  (721) 
None

>  <HIPPO Pose ID>  (721) 
499396

>  <name>  (721) 
P499396

>  <HIPPO Compound ID>  (721) 
302318

>  <ref_mols>  (721) 
A0310a,A3618a

>  <distance_score>  (721) 
1.927515

>  <inspiration_score>  (721) 
None

$$$$
P499397
     RDKit          3D

 21 23  0  0  0  0  0  0  0  0999 V2000
    9.7396    9.6932   22.9024 O   0  0  0  0  0  0  0  0  0  0  0  0
    9.0043   10.4330   23.5428 C   0  0  0  0  0  0  0  0  0  0  0  0
    9.0544   11.9661   23.5094 C   0  0  0  0  0  0  0  0  0  0  0  0
    7.8197   12.6673   23.6868 O   0  0  0  0  0  0  0  0  0  0  0  0
    6.9885   12.0828   24.6119 C   0  0  0  0  0  0  0  0  0  0  0  0
    5.9088   12.8428   25.0776 C   0  0  0  0  0  0  0  0  0  0  0  0
    5.0141   12.2564   25.9604 C   0  0  0  0  0  0  0  0  0  0  0  0
    3.7087   12.8806   26.4188 C   0  0  0  0  0  0  0  0  0  0  0  0
    2.8304   12.1492   26.6577 O   0  0  0  0  0  0  0  0  0  0  0  0
    3.7820   14.4175   26.5118 N   0  0  0  0  0  0  0  0  0  0  0  0
    2.7574   15.3910   26.8284 C   0  0  2  0  0  0  0  0  0  0  0  0
    1.3261   14.8689   26.5696 C   0  0  0  0  0  0  0  0  0  0  0  0
    0.6218   14.3739   27.8316 C   0  0  0  0  0  0  0  0  0  0  0  0
    1.3720   13.4208   28.5607 O   0  0  0  0  0  0  0  0  0  0  0  0
    3.0425   16.6170   26.0000 C   0  0  0  0  0  0  0  0  0  0  0  0
    2.6801   17.9868   26.5171 C   0  0  0  0  0  0  0  0  0  0  0  0
    4.1252   17.5843   26.4139 C   0  0  0  0  0  0  0  0  0  0  0  0
    5.1853   10.9941   26.3999 N   0  0  0  0  0  0  0  0  0  0  0  0
    6.1858   10.2678   25.8732 C   0  0  0  0  0  0  0  0  0  0  0  0
    7.1157   10.7567   24.9890 C   0  0  0  0  0  0  0  0  0  0  0  0
    8.0790    9.9330   24.4142 N   0  0  0  0  0  0  0  0  0  0  0  0
  1  2  2  0
  2  3  1  0
  3  4  1  0
  4  5  1  0
  5  6  2  0
  6  7  1  0
  7  8  1  0
  8  9  2  0
  8 10  1  0
 10 11  1  0
 11 12  1  6
 12 13  1  0
 13 14  1  0
 11 15  1  0
 15 16  1  0
 16 17  1  0
  7 18  2  0
 18 19  1  0
 19 20  2  0
 20 21  1  0
 21  2  1  0
 20  5  1  0
 17 15  1  0
M  END
>  <energy_score>  (722) 
-2.018458

>  <inchikey>  (722) 
None

>  <smiles>  (722) 
None

>  <ref_pdb>  (722) 
A3618a

>  <alias>  (722) 
None

>  <HIPPO Pose ID>  (722) 
499397

>  <name>  (722) 
P499397

>  <HIPPO Compound ID>  (722) 
302319

>  <ref_mols>  (722) 
A0310a,A3618a

>  <distance_score>  (722) 
1.961532

>  <inspiration_score>  (722) 
None

$$$$
P499398
     RDKit          3D

 21 24  0  0  0  0  0  0  0  0999 V2000
    9.6945    9.3909   22.9546 O   0  0  0  0  0  0  0  0  0  0  0  0
    9.0264   10.1887   23.6036 C   0  0  0  0  0  0  0  0  0  0  0  0
    9.2482   11.7075   23.5756 C   0  0  0  0  0  0  0  0  0  0  0  0
    8.5527   12.5618   24.4722 O   0  0  0  0  0  0  0  0  0  0  0  0
    7.4014   12.0344   24.9836 C   0  0  0  0  0  0  0  0  0  0  0  0
    6.5144   12.9366   25.5623 C   0  0  0  0  0  0  0  0  0  0  0  0
    5.3638   12.4467   26.1461 C   0  0  0  0  0  0  0  0  0  0  0  0
    4.3423   13.3718   26.7523 C   0  0  0  0  0  0  0  0  0  0  0  0
    4.5417   14.5173   26.8166 O   0  0  0  0  0  0  0  0  0  0  0  0
    3.1236   12.5459   27.1952 N   0  0  0  0  0  0  0  0  0  0  0  0
    1.9344   12.9405   27.8954 C   0  0  0  0  0  0  0  0  0  0  0  0
    0.9475   13.4755   26.8922 C   0  0  0  0  0  0  0  0  0  0  0  0
   -0.0970   14.4845   27.3017 C   0  0  0  0  0  0  0  0  0  0  0  0
    1.0410   14.9036   26.4133 C   0  0  0  0  0  0  0  0  0  0  0  0
    1.3818   11.7439   28.6186 C   0  0  0  0  0  0  0  0  0  0  0  0
    0.5593   11.9083   29.8721 C   0  0  0  0  0  0  0  0  0  0  0  0
    1.9472   11.3354   29.9563 C   0  0  0  0  0  0  0  0  0  0  0  0
    5.0807   11.1239   26.2161 N   0  0  0  0  0  0  0  0  0  0  0  0
    5.9659   10.2798   25.6399 C   0  0  0  0  0  0  0  0  0  0  0  0
    7.1230   10.6802   24.9974 C   0  0  0  0  0  0  0  0  0  0  0  0
    7.9699    9.7727   24.3657 N   0  0  0  0  0  0  0  0  0  0  0  0
  1  2  2  0
  2  3  1  0
  3  4  1  0
  4  5  1  0
  5  6  2  0
  6  7  1  0
  7  8  1  0
  8  9  2  0
  8 10  1  0
 10 11  1  0
 11 12  1  0
 12 13  1  0
 13 14  1  0
 11 15  1  0
 15 16  1  0
 16 17  1  0
  7 18  2  0
 18 19  1  0
 19 20  2  0
 20 21  1  0
 21  2  1  0
 20  5  1  0
 14 12  1  0
 17 15  1  0
M  END
>  <energy_score>  (723) 
-15.016207

>  <inchikey>  (723) 
None

>  <smiles>  (723) 
None

>  <ref_pdb>  (723) 
A3618a

>  <alias>  (723) 
None

>  <HIPPO Pose ID>  (723) 
499398

>  <name>  (723) 
P499398

>  <HIPPO Compound ID>  (723) 
302320

>  <ref_mols>  (723) 
A0310a,A3618a

>  <distance_score>  (723) 
1.958877

>  <inspiration_score>  (723) 
None

$$$$
P499400
     RDKit          3D

 21 23  0  0  0  0  0  0  0  0999 V2000
    1.4333   14.6404   26.3055 C   0  0  0  0  0  0  0  0  0  0  0  0
    2.8153   15.2398   26.5785 C   0  0  1  0  0  0  0  0  0  0  0  0
    3.8413   14.2607   26.3245 N   0  0  0  0  0  0  0  0  0  0  0  0
    4.1688   12.9519   27.0488 C   0  0  0  0  0  0  0  0  0  0  0  0
    3.7128   12.4894   28.0143 O   0  0  0  0  0  0  0  0  0  0  0  0
    5.2063   12.1708   26.2978 C   0  0  0  0  0  0  0  0  0  0  0  0
    5.2445   10.8076   26.4998 C   0  0  0  0  0  0  0  0  0  0  0  0
    6.1911   10.0735   25.8100 C   0  0  0  0  0  0  0  0  0  0  0  0
    7.0953   10.6980   24.9846 C   0  0  0  0  0  0  0  0  0  0  0  0
    6.9771   12.0676   24.8185 C   0  0  0  0  0  0  0  0  0  0  0  0
    6.0392   12.8217   25.4442 N   0  0  0  0  0  0  0  0  0  0  0  0
    7.7696   12.7456   23.9273 O   0  0  0  0  0  0  0  0  0  0  0  0
    8.9822   12.0731   23.5918 C   0  0  0  0  0  0  0  0  0  0  0  0
    8.9788   10.5398   23.5153 C   0  0  0  0  0  0  0  0  0  0  0  0
    9.7485    9.8678   22.8425 O   0  0  0  0  0  0  0  0  0  0  0  0
    8.0477    9.9443   24.3110 N   0  0  0  0  0  0  0  0  0  0  0  0
    3.0703   16.4679   25.7703 C   0  0  2  0  0  0  0  0  0  0  0  0
    4.1921   17.4191   26.1469 C   0  0  0  0  0  0  0  0  0  0  0  0
    2.7754   17.7925   26.3715 C   0  0  0  0  0  0  0  0  0  0  0  0
    2.1949   18.7881   25.6242 F   0  0  0  0  0  0  0  0  0  0  0  0
    2.2794   17.8962   27.6494 F   0  0  0  0  0  0  0  0  0  0  0  0
  2  1  1  6
  2  3  1  0
  3  4  1  0
  4  5  2  0
  4  6  1  0
  6  7  2  0
  7  8  1  0
  8  9  2  0
  9 10  1  0
 10 11  2  0
 10 12  1  0
 12 13  1  0
 13 14  1  0
 14 15  2  0
 14 16  1  0
  2 17  1  0
 17 18  1  1
 18 19  1  0
 19 20  1  0
 19 21  1  0
 11  6  1  0
 19 17  1  0
 16  9  1  0
M  END
>  <energy_score>  (724) 
-18.805623

>  <inchikey>  (724) 
None

>  <smiles>  (724) 
None

>  <ref_pdb>  (724) 
A3618a

>  <alias>  (724) 
None

>  <HIPPO Pose ID>  (724) 
499400

>  <name>  (724) 
P499400

>  <HIPPO Compound ID>  (724) 
302322

>  <ref_mols>  (724) 
A0310a,A3618a

>  <distance_score>  (724) 
1.89828

>  <inspiration_score>  (724) 
None

$$$$
P499403
     RDKit          3D

 21 23  0  0  0  0  0  0  0  0999 V2000
    9.7846    9.6166   22.8805 O   0  0  0  0  0  0  0  0  0  0  0  0
    9.0424   10.3647   23.5015 C   0  0  0  0  0  0  0  0  0  0  0  0
    9.0993   11.8979   23.4631 C   0  0  0  0  0  0  0  0  0  0  0  0
    7.8550   12.5859   23.5867 O   0  0  0  0  0  0  0  0  0  0  0  0
    7.0528   12.0528   24.5700 C   0  0  0  0  0  0  0  0  0  0  0  0
    6.1071   12.8881   25.0510 N   0  0  0  0  0  0  0  0  0  0  0  0
    5.2831   12.3845   26.0024 C   0  0  0  0  0  0  0  0  0  0  0  0
    4.2069   13.2596   26.5488 C   0  0  0  0  0  0  0  0  0  0  0  0
    3.9883   13.2470   27.6923 O   0  0  0  0  0  0  0  0  0  0  0  0
    3.5019   14.0075   25.4089 N   0  0  0  0  0  0  0  0  0  0  0  0
    2.3064   14.8341   25.4191 C   0  0  1  0  0  0  0  0  0  0  0  0
    1.0565   14.1089   25.9772 C   0  0  0  0  0  0  0  0  0  0  0  0
    1.2381   13.6095   27.2204 F   0  0  0  0  0  0  0  0  0  0  0  0
    0.7493   13.0376   25.1844 F   0  0  0  0  0  0  0  0  0  0  0  0
    2.6615   16.1550   26.0577 C   0  0  0  0  0  0  0  0  0  0  0  0
    2.6868   16.3493   27.5542 C   0  0  0  0  0  0  0  0  0  0  0  0
    1.6620   17.0730   26.7235 C   0  0  0  0  0  0  0  0  0  0  0  0
    5.3258   11.0785   26.4434 C   0  0  0  0  0  0  0  0  0  0  0  0
    6.2601   10.2324   25.8693 C   0  0  0  0  0  0  0  0  0  0  0  0
    7.1594   10.7192   24.9431 C   0  0  0  0  0  0  0  0  0  0  0  0
    8.0952    9.8732   24.3559 N   0  0  0  0  0  0  0  0  0  0  0  0
  1  2  2  0
  2  3  1  0
  3  4  1  0
  4  5  1  0
  5  6  2  0
  6  7  1  0
  7  8  1  0
  8  9  2  0
  8 10  1  0
 11 10  1  1
 11 12  1  0
 12 13  1  0
 12 14  1  0
 11 15  1  0
 15 16  1  0
 16 17  1  0
  7 18  2  0
 18 19  1  0
 19 20  2  0
 20 21  1  0
 21  2  1  0
 20  5  1  0
 17 15  1  0
M  END
>  <energy_score>  (725) 
-0.220288

>  <inchikey>  (725) 
None

>  <smiles>  (725) 
None

>  <ref_pdb>  (725) 
A3618a

>  <alias>  (725) 
None

>  <HIPPO Pose ID>  (725) 
499403

>  <name>  (725) 
P499403

>  <HIPPO Compound ID>  (725) 
302329

>  <ref_mols>  (725) 
A0310a,A3618a

>  <distance_score>  (725) 
1.949017

>  <inspiration_score>  (725) 
None

$$$$
P499406
     RDKit          3D

 21 23  0  0  0  0  0  0  0  0999 V2000
    0.9328   13.4418   26.7166 C   0  0  0  0  0  0  0  0  0  0  0  0
    1.4323   14.7798   26.1545 C   0  0  0  0  0  0  0  0  0  0  0  0
    0.3945   15.8614   26.4786 C   0  0  0  0  0  0  0  0  0  0  0  0
    2.8504   15.1500   26.6812 C   0  0  1  0  0  0  0  0  0  0  0  0
    3.7956   14.1105   26.3487 N   0  0  0  0  0  0  0  0  0  0  0  0
    4.2543   12.8913   27.1494 C   0  0  0  0  0  0  0  0  0  0  0  0
    3.8901   12.4821   28.1756 O   0  0  0  0  0  0  0  0  0  0  0  0
    5.2738   12.1223   26.3700 C   0  0  0  0  0  0  0  0  0  0  0  0
    5.2984   10.7563   26.5346 C   0  0  0  0  0  0  0  0  0  0  0  0
    6.2223   10.0365   25.8019 C   0  0  0  0  0  0  0  0  0  0  0  0
    7.1207   10.6755   24.9810 C   0  0  0  0  0  0  0  0  0  0  0  0
    7.0121   12.0482   24.8516 C   0  0  0  0  0  0  0  0  0  0  0  0
    6.0918   12.7898   25.5141 N   0  0  0  0  0  0  0  0  0  0  0  0
    7.7981   12.7447   23.9703 O   0  0  0  0  0  0  0  0  0  0  0  0
    8.9972   12.0718   23.5908 C   0  0  0  0  0  0  0  0  0  0  0  0
    8.9924   10.5389   23.4965 C   0  0  0  0  0  0  0  0  0  0  0  0
    9.7589    9.8733   22.8138 O   0  0  0  0  0  0  0  0  0  0  0  0
    8.0623    9.9320   24.2834 N   0  0  0  0  0  0  0  0  0  0  0  0
    3.3426   16.5015   26.2109 C   0  0  0  0  0  0  0  0  0  0  0  0
    3.9883   16.7367   24.8654 C   0  0  0  0  0  0  0  0  0  0  0  0
    4.8182   16.8296   26.1169 C   0  0  0  0  0  0  0  0  0  0  0  0
  1  2  1  0
  2  3  1  0
  2  4  1  0
  4  5  1  6
  5  6  1  0
  6  7  2  0
  6  8  1  0
  8  9  2  0
  9 10  1  0
 10 11  2  0
 11 12  1  0
 12 13  2  0
 12 14  1  0
 14 15  1  0
 15 16  1  0
 16 17  2  0
 16 18  1  0
  4 19  1  0
 19 20  1  0
 20 21  1  0
 13  8  1  0
 21 19  1  0
 18 11  1  0
M  END
>  <energy_score>  (726) 
-5.620071

>  <inchikey>  (726) 
None

>  <smiles>  (726) 
None

>  <ref_pdb>  (726) 
A3618a

>  <alias>  (726) 
None

>  <HIPPO Pose ID>  (726) 
499406

>  <name>  (726) 
P499406

>  <HIPPO Compound ID>  (726) 
302334

>  <ref_mols>  (726) 
A0310a,A3618a

>  <distance_score>  (726) 
1.910275

>  <inspiration_score>  (726) 
None

$$$$
P499409
     RDKit          3D

 22 24  0  0  0  0  0  0  0  0999 V2000
   -0.9241   13.4839   24.8435 C   0  0  0  0  0  0  0  0  0  0  0  0
    0.1818   13.9317   24.2348 C   0  0  0  0  0  0  0  0  0  0  0  0
    1.4243   14.4977   24.8779 C   0  0  0  0  0  0  0  0  0  0  0  0
    1.4311   14.5607   26.4123 C   0  0  0  0  0  0  0  0  0  0  0  0
    2.7753   15.0361   27.0033 C   0  0  1  0  0  0  0  0  0  0  0  0
    3.8205   14.0953   26.6940 N   0  0  0  0  0  0  0  0  0  0  0  0
    4.0823   12.6890   27.2324 C   0  0  0  0  0  0  0  0  0  0  0  0
    3.5418   12.0893   28.0696 O   0  0  0  0  0  0  0  0  0  0  0  0
    5.1600   12.0074   26.4380 C   0  0  0  0  0  0  0  0  0  0  0  0
    5.2130   10.6328   26.5051 C   0  0  0  0  0  0  0  0  0  0  0  0
    6.1777    9.9832   25.7621 C   0  0  0  0  0  0  0  0  0  0  0  0
    7.0807   10.6899   25.0088 C   0  0  0  0  0  0  0  0  0  0  0  0
    6.9489   12.0653   24.9693 C   0  0  0  0  0  0  0  0  0  0  0  0
    5.9978   12.7470   25.6614 N   0  0  0  0  0  0  0  0  0  0  0  0
    7.7484   12.8348   24.1653 O   0  0  0  0  0  0  0  0  0  0  0  0
    8.9180   12.1872   23.6664 C   0  0  0  0  0  0  0  0  0  0  0  0
    8.9562   10.6586   23.5275 C   0  0  0  0  0  0  0  0  0  0  0  0
    9.7389   10.0360   22.8227 O   0  0  0  0  0  0  0  0  0  0  0  0
    8.0447   10.0005   24.2891 N   0  0  0  0  0  0  0  0  0  0  0  0
    3.1168   16.4593   26.6693 C   0  0  0  0  0  0  0  0  0  0  0  0
    4.4990   17.0000   26.9587 C   0  0  0  0  0  0  0  0  0  0  0  0
    4.0180   16.8913   25.5389 C   0  0  0  0  0  0  0  0  0  0  0  0
  1  2  2  0
  2  3  1  0
  3  4  1  0
  5  4  1  6
  5  6  1  0
  6  7  1  0
  7  8  2  0
  7  9  1  0
  9 10  2  0
 10 11  1  0
 11 12  2  0
 12 13  1  0
 13 14  2  0
 13 15  1  0
 15 16  1  0
 16 17  1  0
 17 18  2  0
 17 19  1  0
  5 20  1  0
 20 21  1  0
 21 22  1  0
 14  9  1  0
 22 20  1  0
 19 12  1  0
M  END
>  <energy_score>  (727) 
-30.511094

>  <inchikey>  (727) 
None

>  <smiles>  (727) 
None

>  <ref_pdb>  (727) 
A3618a

>  <alias>  (727) 
None

>  <HIPPO Pose ID>  (727) 
499409

>  <name>  (727) 
P499409

>  <HIPPO Compound ID>  (727) 
302377

>  <ref_mols>  (727) 
A0310a,A3618a

>  <distance_score>  (727) 
1.88484

>  <inspiration_score>  (727) 
None

$$$$
P499410
     RDKit          3D

 22 24  0  0  0  0  0  0  0  0999 V2000
    0.0246   13.8873   25.0312 C   0  0  0  0  0  0  0  0  0  0  0  0
    0.9478   13.1502   25.8318 O   0  0  0  0  0  0  0  0  0  0  0  0
    0.6700   13.1673   27.1693 C   0  0  0  0  0  0  0  0  0  0  0  0
   -0.3684   13.6238   27.6396 O   0  0  0  0  0  0  0  0  0  0  0  0
    1.7534   12.4523   28.0014 C   0  0  1  0  0  0  0  0  0  0  0  0
    2.9706   12.1629   27.2763 N   0  0  0  0  0  0  0  0  0  0  0  0
    4.1093   13.0945   26.8204 C   0  0  0  0  0  0  0  0  0  0  0  0
    4.2104   14.2531   26.8893 O   0  0  0  0  0  0  0  0  0  0  0  0
    5.2005   12.2507   26.2127 C   0  0  0  0  0  0  0  0  0  0  0  0
    6.3554   12.7933   25.6862 C   0  0  0  0  0  0  0  0  0  0  0  0
    7.2802   11.9308   25.0991 C   0  0  0  0  0  0  0  0  0  0  0  0
    7.0358   10.5710   25.0478 C   0  0  0  0  0  0  0  0  0  0  0  0
    5.8763   10.1214   25.6436 C   0  0  0  0  0  0  0  0  0  0  0  0
    4.9610   10.9204   26.2288 N   0  0  0  0  0  0  0  0  0  0  0  0
    7.9183    9.7095   24.3984 N   0  0  0  0  0  0  0  0  0  0  0  0
    8.9579   10.1852   23.6471 C   0  0  0  0  0  0  0  0  0  0  0  0
    9.6638    9.4351   22.9818 O   0  0  0  0  0  0  0  0  0  0  0  0
    9.0925   11.7128   23.6382 C   0  0  0  0  0  0  0  0  0  0  0  0
    8.4489   12.4798   24.6504 O   0  0  0  0  0  0  0  0  0  0  0  0
    2.0903   13.1796   29.2741 C   0  0  0  0  0  0  0  0  0  0  0  0
    2.7755   12.4589   30.4116 C   0  0  0  0  0  0  0  0  0  0  0  0
    1.3434   12.8922   30.5542 C   0  0  0  0  0  0  0  0  0  0  0  0
  1  2  1  0
  2  3  1  0
  3  4  2  0
  3  5  1  0
  5  6  1  6
  6  7  1  0
  7  8  2  0
  7  9  1  0
  9 10  2  0
 10 11  1  0
 11 12  2  0
 12 13  1  0
 13 14  2  0
 12 15  1  0
 15 16  1  0
 16 17  2  0
 16 18  1  0
 18 19  1  0
  5 20  1  0
 20 21  1  0
 21 22  1  0
 14  9  1  0
 22 20  1  0
 19 11  1  0
M  END
>  <energy_score>  (728) 
-21.478733

>  <inchikey>  (728) 
None

>  <smiles>  (728) 
None

>  <ref_pdb>  (728) 
A3618a

>  <alias>  (728) 
None

>  <HIPPO Pose ID>  (728) 
499410

>  <name>  (728) 
P499410

>  <HIPPO Compound ID>  (728) 
302381

>  <ref_mols>  (728) 
A0310a,A3618a

>  <distance_score>  (728) 
1.918868

>  <inspiration_score>  (728) 
None

$$$$
P499414
     RDKit          3D

 22 24  0  0  0  0  0  0  0  0999 V2000
    0.6501   13.4801   25.8199 C   0  0  0  0  0  0  0  0  0  0  0  0
    1.0822   14.1804   27.1163 C   0  0  0  0  0  0  0  0  0  0  0  0
   -0.1889   14.6045   27.8849 C   0  0  0  0  0  0  0  0  0  0  0  0
    1.8275   15.4752   26.7261 C   0  0  0  0  0  0  0  0  0  0  0  0
    1.9870   13.2798   28.0295 C   0  0  2  0  0  0  0  0  0  0  0  0
    3.1758   12.7647   27.3843 N   0  0  0  0  0  0  0  0  0  0  0  0
    4.4937   13.4655   27.0106 C   0  0  0  0  0  0  0  0  0  0  0  0
    4.8621   14.5487   27.2311 O   0  0  0  0  0  0  0  0  0  0  0  0
    5.3840   12.4975   26.2746 C   0  0  0  0  0  0  0  0  0  0  0  0
    6.5593   12.9281   25.6946 C   0  0  0  0  0  0  0  0  0  0  0  0
    7.3746   11.9920   25.0692 C   0  0  0  0  0  0  0  0  0  0  0  0
    7.0183   10.6569   25.0456 C   0  0  0  0  0  0  0  0  0  0  0  0
    5.8278   10.3155   25.6643 C   0  0  0  0  0  0  0  0  0  0  0  0
    4.9929   11.2010   26.2633 N   0  0  0  0  0  0  0  0  0  0  0  0
    7.8382    9.7191   24.4158 N   0  0  0  0  0  0  0  0  0  0  0  0
    8.9189   10.0996   23.6628 C   0  0  0  0  0  0  0  0  0  0  0  0
    9.5808    9.2845   23.0288 O   0  0  0  0  0  0  0  0  0  0  0  0
    9.1527   11.6126   23.6012 C   0  0  0  0  0  0  0  0  0  0  0  0
    8.5566   12.4598   24.5723 O   0  0  0  0  0  0  0  0  0  0  0  0
    1.2614   12.0807   28.6035 C   0  0  0  0  0  0  0  0  0  0  0  0
    0.6194   12.1289   29.9695 C   0  0  0  0  0  0  0  0  0  0  0  0
    1.8680   11.3225   29.7620 C   0  0  0  0  0  0  0  0  0  0  0  0
  1  2  1  0
  2  3  1  0
  2  4  1  0
  2  5  1  0
  5  6  1  6
  6  7  1  0
  7  8  2  0
  7  9  1  0
  9 10  2  0
 10 11  1  0
 11 12  2  0
 12 13  1  0
 13 14  2  0
 12 15  1  0
 15 16  1  0
 16 17  2  0
 16 18  1  0
 18 19  1  0
  5 20  1  0
 20 21  1  0
 21 22  1  0
 14  9  1  0
 22 20  1  0
 19 11  1  0
M  END
>  <energy_score>  (729) 
-25.381134

>  <inchikey>  (729) 
None

>  <smiles>  (729) 
None

>  <ref_pdb>  (729) 
A3618a

>  <alias>  (729) 
None

>  <HIPPO Pose ID>  (729) 
499414

>  <name>  (729) 
P499414

>  <HIPPO Compound ID>  (729) 
302386

>  <ref_mols>  (729) 
A0310a,A3618a

>  <distance_score>  (729) 
1.934682

>  <inspiration_score>  (729) 
None

$$$$
P499415
     RDKit          3D

 22 24  0  0  0  0  0  0  0  0999 V2000
    0.8103   14.9181   23.9605 C   0  0  0  0  0  0  0  0  0  0  0  0
    1.3627   14.2572   25.1036 N   0  0  0  0  0  0  0  0  0  0  0  0
    0.7595   13.1612   26.0240 C   0  0  0  0  0  0  0  0  0  0  0  0
   -0.2503   12.5752   25.9438 O   0  0  0  0  0  0  0  0  0  0  0  0
    1.7625   12.8999   27.1968 C   0  0  1  0  0  0  0  0  0  0  0  0
    3.0713   12.5392   26.6981 N   0  0  0  0  0  0  0  0  0  0  0  0
    4.1918   13.4124   26.1101 C   0  0  0  0  0  0  0  0  0  0  0  0
    4.2109   14.5504   25.8624 O   0  0  0  0  0  0  0  0  0  0  0  0
    5.3560   12.5229   25.7575 C   0  0  0  0  0  0  0  0  0  0  0  0
    6.3562   12.9639   24.9142 C   0  0  0  0  0  0  0  0  0  0  0  0
    7.3101   12.0477   24.4854 C   0  0  0  0  0  0  0  0  0  0  0  0
    7.2389   10.7273   24.8955 C   0  0  0  0  0  0  0  0  0  0  0  0
    6.2156   10.3853   25.7600 C   0  0  0  0  0  0  0  0  0  0  0  0
    5.2863   11.2512   26.2229 N   0  0  0  0  0  0  0  0  0  0  0  0
    8.1133    9.7787   24.3707 N   0  0  0  0  0  0  0  0  0  0  0  0
    9.1199   10.1300   23.5120 C   0  0  0  0  0  0  0  0  0  0  0  0
    9.7969    9.2822   22.9429 O   0  0  0  0  0  0  0  0  0  0  0  0
    9.3370   11.6413   23.3745 C   0  0  0  0  0  0  0  0  0  0  0  0
    8.2193   12.5006   23.5694 O   0  0  0  0  0  0  0  0  0  0  0  0
    1.8536   14.0314   28.1825 C   0  0  0  0  0  0  0  0  0  0  0  0
    2.3478   13.7791   29.5870 C   0  0  0  0  0  0  0  0  0  0  0  0
    0.9006   14.1102   29.3501 C   0  0  0  0  0  0  0  0  0  0  0  0
  1  2  1  0
  2  3  1  0
  3  4  2  0
  3  5  1  0
  5  6  1  6
  6  7  1  0
  7  8  2  0
  7  9  1  0
  9 10  2  0
 10 11  1  0
 11 12  2  0
 12 13  1  0
 13 14  2  0
 12 15  1  0
 15 16  1  0
 16 17  2  0
 16 18  1  0
 18 19  1  0
  5 20  1  0
 20 21  1  0
 21 22  1  0
 14  9  1  0
 22 20  1  0
 19 11  1  0
M  END
>  <energy_score>  (730) 
-9.647723

>  <inchikey>  (730) 
None

>  <smiles>  (730) 
None

>  <ref_pdb>  (730) 
A3618a

>  <alias>  (730) 
None

>  <HIPPO Pose ID>  (730) 
499415

>  <name>  (730) 
P499415

>  <HIPPO Compound ID>  (730) 
302388

>  <ref_mols>  (730) 
A0310a,A3618a

>  <distance_score>  (730) 
1.999576

>  <inspiration_score>  (730) 
None

$$$$
P499419
     RDKit          3D

 22 24  0  0  0  0  0  0  0  0999 V2000
    9.6400    9.3216   23.0209 O   0  0  0  0  0  0  0  0  0  0  0  0
    8.9629   10.1228   23.6564 C   0  0  0  0  0  0  0  0  0  0  0  0
    9.1675   11.6409   23.5947 C   0  0  0  0  0  0  0  0  0  0  0  0
    8.5114   12.4908   24.5236 O   0  0  0  0  0  0  0  0  0  0  0  0
    7.3407   11.9876   25.0115 C   0  0  0  0  0  0  0  0  0  0  0  0
    6.4509   12.9084   25.5530 C   0  0  0  0  0  0  0  0  0  0  0  0
    5.2771   12.4405   26.1066 C   0  0  0  0  0  0  0  0  0  0  0  0
    4.2393   13.3913   26.6437 C   0  0  0  0  0  0  0  0  0  0  0  0
    4.4375   14.5387   26.6483 O   0  0  0  0  0  0  0  0  0  0  0  0
    2.9987   12.5931   27.0738 N   0  0  0  0  0  0  0  0  0  0  0  0
    1.7701   13.0306   27.6912 C   0  0  2  0  0  0  0  0  0  0  0  0
    1.1907   11.8715   28.4549 C   0  0  0  0  0  0  0  0  0  0  0  0
    1.8417   11.4112   29.7372 C   0  0  0  0  0  0  0  0  0  0  0  0
    0.4906   12.0667   29.7775 C   0  0  0  0  0  0  0  0  0  0  0  0
    0.8005   13.6306   26.6445 C   0  0  1  0  0  0  0  0  0  0  0  0
    0.2481   12.6358   25.7487 O   0  0  0  0  0  0  0  0  0  0  0  0
   -0.3727   14.3700   27.2966 C   0  0  0  0  0  0  0  0  0  0  0  0
   -1.2198   14.8647   26.2525 O   0  0  0  0  0  0  0  0  0  0  0  0
    4.9823   11.1221   26.1938 N   0  0  0  0  0  0  0  0  0  0  0  0
    5.8751   10.2583   25.6570 C   0  0  0  0  0  0  0  0  0  0  0  0
    7.0501   10.6365   25.0340 C   0  0  0  0  0  0  0  0  0  0  0  0
    7.9035    9.7175   24.4239 N   0  0  0  0  0  0  0  0  0  0  0  0
  1  2  2  0
  2  3  1  0
  3  4  1  0
  4  5  1  0
  5  6  2  0
  6  7  1  0
  7  8  1  0
  8  9  2  0
  8 10  1  0
 11 10  1  6
 11 12  1  0
 12 13  1  0
 13 14  1  0
 11 15  1  0
 15 16  1  1
 15 17  1  0
 17 18  1  0
  7 19  2  0
 19 20  1  0
 20 21  2  0
 21 22  1  0
 22  2  1  0
 21  5  1  0
 14 12  1  0
M  END
>  <energy_score>  (731) 
-36.756413

>  <inchikey>  (731) 
None

>  <smiles>  (731) 
None

>  <ref_pdb>  (731) 
A3618a

>  <alias>  (731) 
None

>  <HIPPO Pose ID>  (731) 
499419

>  <name>  (731) 
P499419

>  <HIPPO Compound ID>  (731) 
302392

>  <ref_mols>  (731) 
A0310a,A3618a

>  <distance_score>  (731) 
1.928891

>  <inspiration_score>  (731) 
None

$$$$
P499421
     RDKit          3D

 22 25  0  0  0  0  0  0  0  0999 V2000
    9.8741   10.2376   22.6001 O   0  0  0  0  0  0  0  0  0  0  0  0
    8.9744   10.2934   23.4245 C   0  0  0  0  0  0  0  0  0  0  0  0
    8.2981    9.0577   23.9332 C   0  0  0  0  0  0  0  0  0  0  0  0
    7.3515    9.1376   24.9851 O   0  0  0  0  0  0  0  0  0  0  0  0
    6.8559   10.3756   25.2596 C   0  0  0  0  0  0  0  0  0  0  0  0
    5.8108   10.4385   26.1703 C   0  0  0  0  0  0  0  0  0  0  0  0
    5.2923   11.6864   26.4672 C   0  0  0  0  0  0  0  0  0  0  0  0
    4.2143   11.8069   27.5003 C   0  0  0  0  0  0  0  0  0  0  0  0
    4.2274   11.1114   28.4350 O   0  0  0  0  0  0  0  0  0  0  0  0
    3.2408   12.9327   27.1079 N   0  0  0  0  0  0  0  0  0  0  0  0
    2.0135   13.3815   27.7405 C   0  0  1  0  0  0  0  0  0  0  0  0
    1.2684   14.3365   26.7860 C   0  0  0  0  0  0  0  0  0  0  0  0
    0.1147   15.0538   27.4285 C   0  0  0  0  0  0  0  0  0  0  0  0
   -1.3022   14.5767   27.2348 C   0  0  0  0  0  0  0  0  0  0  0  0
   -0.8391   15.8382   26.5635 C   0  0  0  0  0  0  0  0  0  0  0  0
    1.1512   12.1970   28.0945 C   0  0  0  0  0  0  0  0  0  0  0  0
    1.3834   11.4142   29.3657 C   0  0  0  0  0  0  0  0  0  0  0  0
    0.1647   12.2754   29.2394 C   0  0  0  0  0  0  0  0  0  0  0  0
    5.7207   12.8488   25.8978 N   0  0  0  0  0  0  0  0  0  0  0  0
    6.7621   12.7449   25.0397 C   0  0  0  0  0  0  0  0  0  0  0  0
    7.3661   11.5418   24.7044 C   0  0  0  0  0  0  0  0  0  0  0  0
    8.4578   11.4848   23.8422 N   0  0  0  0  0  0  0  0  0  0  0  0
  1  2  2  0
  2  3  1  0
  3  4  1  0
  4  5  1  0
  5  6  2  0
  6  7  1  0
  7  8  1  0
  8  9  2  0
  8 10  1  0
 10 11  1  0
 11 12  1  6
 12 13  1  0
 13 14  1  0
 14 15  1  0
 11 16  1  0
 16 17  1  0
 17 18  1  0
  7 19  2  0
 19 20  1  0
 20 21  2  0
 21 22  1  0
 22  2  1  0
 21  5  1  0
 15 13  1  0
 18 16  1  0
M  END
>  <energy_score>  (732) 
-13.474712

>  <inchikey>  (732) 
None

>  <smiles>  (732) 
None

>  <ref_pdb>  (732) 
A3618a

>  <alias>  (732) 
None

>  <HIPPO Pose ID>  (732) 
499421

>  <name>  (732) 
P499421

>  <HIPPO Compound ID>  (732) 
302395

>  <ref_mols>  (732) 
A0310a,A3618a

>  <distance_score>  (732) 
1.650784

>  <inspiration_score>  (732) 
None

$$$$
P499422
     RDKit          3D

 22 25  0  0  0  0  0  0  0  0999 V2000
    9.7419    9.8517   22.8752 O   0  0  0  0  0  0  0  0  0  0  0  0
    8.9702   10.5338   23.5359 C   0  0  0  0  0  0  0  0  0  0  0  0
    8.9747   12.0678   23.5918 C   0  0  0  0  0  0  0  0  0  0  0  0
    7.7550   12.7414   23.8952 O   0  0  0  0  0  0  0  0  0  0  0  0
    6.9516   12.0800   24.7888 C   0  0  0  0  0  0  0  0  0  0  0  0
    5.9941   12.8428   25.3732 N   0  0  0  0  0  0  0  0  0  0  0  0
    5.1302   12.2054   26.2051 C   0  0  0  0  0  0  0  0  0  0  0  0
    4.0532   12.9968   26.8915 C   0  0  0  0  0  0  0  0  0  0  0  0
    3.5101   12.5199   27.8039 O   0  0  0  0  0  0  0  0  0  0  0  0
    3.8628   14.3626   26.2252 N   0  0  0  0  0  0  0  0  0  0  0  0
    2.8962   15.4019   26.4784 C   0  0  2  0  0  0  0  0  0  0  0  0
    1.4499   14.9178   26.2108 C   0  0  0  0  0  0  0  0  0  0  0  0
    0.9987   15.0370   24.7770 C   0  0  0  0  0  0  0  0  0  0  0  0
    0.2293   13.9112   24.1350 C   0  0  0  0  0  0  0  0  0  0  0  0
    1.6234   14.2274   23.6714 C   0  0  0  0  0  0  0  0  0  0  0  0
    3.2804   16.6473   25.7349 C   0  0  0  0  0  0  0  0  0  0  0  0
    2.9378   18.0089   26.2853 C   0  0  0  0  0  0  0  0  0  0  0  0
    4.3686   17.5465   26.2667 C   0  0  0  0  0  0  0  0  0  0  0  0
    5.1796   10.8480   26.4478 C   0  0  0  0  0  0  0  0  0  0  0  0
    6.1576   10.1040   25.8124 C   0  0  0  0  0  0  0  0  0  0  0  0
    7.0741   10.7146   24.9889 C   0  0  0  0  0  0  0  0  0  0  0  0
    8.0376    9.9510   24.3409 N   0  0  0  0  0  0  0  0  0  0  0  0
  1  2  2  0
  2  3  1  0
  3  4  1  0
  4  5  1  0
  5  6  2  0
  6  7  1  0
  7  8  1  0
  8  9  2  0
  8 10  1  0
 10 11  1  0
 11 12  1  6
 12 13  1  0
 13 14  1  0
 14 15  1  0
 11 16  1  0
 16 17  1  0
 17 18  1  0
  7 19  2  0
 19 20  1  0
 20 21  2  0
 21 22  1  0
 22  2  1  0
 21  5  1  0
 15 13  1  0
 18 16  1  0
M  END
>  <energy_score>  (733) 
-17.413202

>  <inchikey>  (733) 
None

>  <smiles>  (733) 
None

>  <ref_pdb>  (733) 
A3618a

>  <alias>  (733) 
None

>  <HIPPO Pose ID>  (733) 
499422

>  <name>  (733) 
P499422

>  <HIPPO Compound ID>  (733) 
302402

>  <ref_mols>  (733) 
A0310a,A3618a

>  <distance_score>  (733) 
1.928272

>  <inspiration_score>  (733) 
None

$$$$
P499426
     RDKit          3D

 22 24  0  0  0  0  0  0  0  0999 V2000
    0.7869   13.5277   26.8382 C   0  0  0  0  0  0  0  0  0  0  0  0
    1.4294   14.8698   26.5459 C   0  0  0  0  0  0  0  0  0  0  0  0
    1.4311   15.0583   25.1972 F   0  0  0  0  0  0  0  0  0  0  0  0
    0.6162   15.8372   27.0608 F   0  0  0  0  0  0  0  0  0  0  0  0
    2.8656   15.0543   27.1144 C   0  0  1  0  0  0  0  0  0  0  0  0
    3.7882   14.0307   26.6640 N   0  0  0  0  0  0  0  0  0  0  0  0
    4.0123   12.6072   27.1658 C   0  0  0  0  0  0  0  0  0  0  0  0
    3.4426   11.9940   27.9721 O   0  0  0  0  0  0  0  0  0  0  0  0
    5.1233   11.9473   26.4011 C   0  0  0  0  0  0  0  0  0  0  0  0
    5.1921   10.5741   26.4541 C   0  0  0  0  0  0  0  0  0  0  0  0
    6.1850    9.9499   25.7282 C   0  0  0  0  0  0  0  0  0  0  0  0
    7.0931   10.6771   25.0015 C   0  0  0  0  0  0  0  0  0  0  0  0
    6.9529   12.0512   24.9852 C   0  0  0  0  0  0  0  0  0  0  0  0
    5.9811   12.7103   25.6705 N   0  0  0  0  0  0  0  0  0  0  0  0
    7.7682   12.8447   24.2235 O   0  0  0  0  0  0  0  0  0  0  0  0
    8.9189   12.2048   23.6733 C   0  0  0  0  0  0  0  0  0  0  0  0
    8.9698   10.6775   23.5245 C   0  0  0  0  0  0  0  0  0  0  0  0
    9.7522   10.0651   22.8108 O   0  0  0  0  0  0  0  0  0  0  0  0
    8.0683   10.0047   24.2831 N   0  0  0  0  0  0  0  0  0  0  0  0
    3.4042   16.4510   26.9028 C   0  0  0  0  0  0  0  0  0  0  0  0
    4.8625   16.7682   27.1546 C   0  0  0  0  0  0  0  0  0  0  0  0
    4.3023   16.8654   25.7620 C   0  0  0  0  0  0  0  0  0  0  0  0
  1  2  1  0
  2  3  1  0
  2  4  1  0
  2  5  1  0
  5  6  1  6
  6  7  1  0
  7  8  2  0
  7  9  1  0
  9 10  2  0
 10 11  1  0
 11 12  2  0
 12 13  1  0
 13 14  2  0
 13 15  1  0
 15 16  1  0
 16 17  1  0
 17 18  2  0
 17 19  1  0
  5 20  1  0
 20 21  1  0
 21 22  1  0
 14  9  1  0
 22 20  1  0
 19 12  1  0
M  END
>  <energy_score>  (734) 
-17.855962

>  <inchikey>  (734) 
None

>  <smiles>  (734) 
None

>  <ref_pdb>  (734) 
A3618a

>  <alias>  (734) 
None

>  <HIPPO Pose ID>  (734) 
499426

>  <name>  (734) 
P499426

>  <HIPPO Compound ID>  (734) 
302406

>  <ref_mols>  (734) 
A0310a,A3618a

>  <distance_score>  (734) 
1.885095

>  <inspiration_score>  (734) 
None

$$$$
P499428
     RDKit          3D

 22 25  0  0  0  0  0  0  0  0999 V2000
    9.7518    9.8246   22.8284 O   0  0  0  0  0  0  0  0  0  0  0  0
    9.0030   10.5209   23.4999 C   0  0  0  0  0  0  0  0  0  0  0  0
    9.0297   12.0556   23.5552 C   0  0  0  0  0  0  0  0  0  0  0  0
    7.8126   12.7435   23.8452 O   0  0  0  0  0  0  0  0  0  0  0  0
    7.0106   12.0941   24.7530 C   0  0  0  0  0  0  0  0  0  0  0  0
    6.0663   12.8671   25.3421 N   0  0  0  0  0  0  0  0  0  0  0  0
    5.2235   12.2478   26.2097 C   0  0  0  0  0  0  0  0  0  0  0  0
    4.1677   13.0577   26.9045 C   0  0  0  0  0  0  0  0  0  0  0  0
    3.6749   12.6292   27.8683 O   0  0  0  0  0  0  0  0  0  0  0  0
    3.8564   14.3308   26.1118 N   0  0  0  0  0  0  0  0  0  0  0  0
    2.9363   15.3992   26.3854 C   0  0  2  0  0  0  0  0  0  0  0  0
    1.5618   15.0458   25.8118 C   0  0  0  0  0  0  0  0  0  0  0  0
    0.8440   13.7058   26.1528 C   0  0  0  0  0  0  0  0  0  0  0  0
    0.1942   13.7937   24.7540 C   0  0  0  0  0  0  0  0  0  0  0  0
    1.4182   14.6273   24.3181 C   0  0  0  0  0  0  0  0  0  0  0  0
    3.4693   16.6732   25.8030 C   0  0  0  0  0  0  0  0  0  0  0  0
    4.5940   17.4106   26.4867 C   0  0  0  0  0  0  0  0  0  0  0  0
    3.2067   17.9897   26.4914 C   0  0  0  0  0  0  0  0  0  0  0  0
    5.2647   10.8936   26.4692 C   0  0  0  0  0  0  0  0  0  0  0  0
    6.2168   10.1329   25.8151 C   0  0  0  0  0  0  0  0  0  0  0  0
    7.1233   10.7291   24.9681 C   0  0  0  0  0  0  0  0  0  0  0  0
    8.0712    9.9517   24.3155 N   0  0  0  0  0  0  0  0  0  0  0  0
  1  2  2  0
  2  3  1  0
  3  4  1  0
  4  5  1  0
  5  6  2  0
  6  7  1  0
  7  8  1  0
  8  9  2  0
  8 10  1  0
 11 10  1  6
 11 12  1  0
 12 13  1  0
 13 14  1  0
 14 15  1  0
 11 16  1  0
 16 17  1  0
 17 18  1  0
  7 19  2  0
 19 20  1  0
 20 21  2  0
 21 22  1  0
 22  2  1  0
 21  5  1  0
 15 12  1  0
 18 16  1  0
M  END
>  <energy_score>  (735) 
-18.5135

>  <inchikey>  (735) 
None

>  <smiles>  (735) 
None

>  <ref_pdb>  (735) 
A3618a

>  <alias>  (735) 
None

>  <HIPPO Pose ID>  (735) 
499428

>  <name>  (735) 
P499428

>  <HIPPO Compound ID>  (735) 
302443

>  <ref_mols>  (735) 
A0310a,A3618a

>  <distance_score>  (735) 
1.937456

>  <inspiration_score>  (735) 
None

$$$$
P499429
     RDKit          3D

 23 27  0  0  0  0  0  0  0  0999 V2000
    9.6229    9.4752   22.9817 O   0  0  0  0  0  0  0  0  0  0  0  0
    8.9376   10.2596   23.6298 C   0  0  0  0  0  0  0  0  0  0  0  0
    9.1336   11.7814   23.6048 C   0  0  0  0  0  0  0  0  0  0  0  0
    8.4714   12.6131   24.5472 O   0  0  0  0  0  0  0  0  0  0  0  0
    7.3361   12.0744   25.0855 C   0  0  0  0  0  0  0  0  0  0  0  0
    6.5062   12.9546   25.7777 C   0  0  0  0  0  0  0  0  0  0  0  0
    5.4204   12.4364   26.4544 C   0  0  0  0  0  0  0  0  0  0  0  0
    4.5968   13.2979   27.3544 C   0  0  0  0  0  0  0  0  0  0  0  0
    4.5692   13.0642   28.5094 O   0  0  0  0  0  0  0  0  0  0  0  0
    3.8780   14.3592   26.5544 N   0  0  0  0  0  0  0  0  0  0  0  0
    2.9802   15.5122   27.0068 C   0  0  0  0  0  0  0  0  0  0  0  0
    1.8049   14.6267   27.0685 C   0  0  0  0  0  0  0  0  0  0  0  0
    0.4223   15.2046   26.9308 C   0  0  0  0  0  0  0  0  0  0  0  0
    0.2818   15.0250   28.4626 C   0  0  0  0  0  0  0  0  0  0  0  0
    1.4367   13.9958   28.3957 C   0  0  0  0  0  0  0  0  0  0  0  0
    2.4563   13.8330   26.0246 C   0  0  1  0  0  0  0  0  0  0  0  0
    2.3998   14.0669   24.5314 C   0  0  0  0  0  0  0  0  0  0  0  0
    1.1456   13.9324   23.7067 C   0  0  0  0  0  0  0  0  0  0  0  0
    1.8320   15.2616   23.8258 C   0  0  0  0  0  0  0  0  0  0  0  0
    5.1049   11.1254   26.4396 N   0  0  0  0  0  0  0  0  0  0  0  0
    5.9183   10.3053   25.7363 C   0  0  0  0  0  0  0  0  0  0  0  0
    7.0479   10.7216   25.0558 C   0  0  0  0  0  0  0  0  0  0  0  0
    7.8801    9.8287   24.3822 N   0  0  0  0  0  0  0  0  0  0  0  0
  1  2  2  0
  2  3  1  0
  3  4  1  0
  4  5  1  0
  5  6  2  0
  6  7  1  0
  7  8  1  0
  8  9  2  0
  8 10  1  0
 10 11  1  0
 11 12  1  0
 12 13  1  0
 13 14  1  0
 14 15  1  0
 12 16  1  0
 16 17  1  6
 17 18  1  0
 18 19  1  0
  7 20  2  0
 20 21  1  0
 21 22  2  0
 22 23  1  0
 23  2  1  0
 22  5  1  0
 16 10  1  0
 19 17  1  0
 15 12  1  0
M  END
>  <energy_score>  (736) 
-18.325349

>  <inchikey>  (736) 
None

>  <smiles>  (736) 
None

>  <ref_pdb>  (736) 
A3618a

>  <alias>  (736) 
None

>  <HIPPO Pose ID>  (736) 
499429

>  <name>  (736) 
P499429

>  <HIPPO Compound ID>  (736) 
302461

>  <ref_mols>  (736) 
A0310a,A3618a

>  <distance_score>  (736) 
1.988064

>  <inspiration_score>  (736) 
None

$$$$
P499430
     RDKit          3D

 23 25  0  0  0  0  0  0  0  0999 V2000
    9.6558    9.3214   22.9848 O   0  0  0  0  0  0  0  0  0  0  0  0
    8.9915   10.1254   23.6300 C   0  0  0  0  0  0  0  0  0  0  0  0
    9.2131   11.6424   23.5851 C   0  0  0  0  0  0  0  0  0  0  0  0
    8.5370   12.4985   24.4945 O   0  0  0  0  0  0  0  0  0  0  0  0
    7.3773   11.9889   24.9995 C   0  0  0  0  0  0  0  0  0  0  0  0
    6.4967   12.9068   25.5617 C   0  0  0  0  0  0  0  0  0  0  0  0
    5.3346   12.4336   26.1323 C   0  0  0  0  0  0  0  0  0  0  0  0
    4.2965   13.3729   26.6891 C   0  0  0  0  0  0  0  0  0  0  0  0
    4.4655   14.5238   26.6743 O   0  0  0  0  0  0  0  0  0  0  0  0
    3.0812   12.5511   27.1421 N   0  0  0  0  0  0  0  0  0  0  0  0
    1.8425   12.9687   27.7662 C   0  0  2  0  0  0  0  0  0  0  0  0
    1.3121   11.7797   28.5332 C   0  0  0  0  0  0  0  0  0  0  0  0
    1.9399   11.3811   29.8469 C   0  0  0  0  0  0  0  0  0  0  0  0
    0.5534   11.9615   29.8241 C   0  0  0  0  0  0  0  0  0  0  0  0
    0.7913   13.5097   26.7645 C   0  0  0  0  0  0  0  0  0  0  0  0
   -0.3782   13.7512   27.4244 F   0  0  0  0  0  0  0  0  0  0  0  0
    0.4895   12.5489   25.8337 F   0  0  0  0  0  0  0  0  0  0  0  0
    1.2197   14.7805   26.0250 C   0  0  0  0  0  0  0  0  0  0  0  0
    0.1756   15.2807   25.1739 O   0  0  0  0  0  0  0  0  0  0  0  0
    5.0349   11.1154   26.2078 N   0  0  0  0  0  0  0  0  0  0  0  0
    5.9188   10.2554   25.6512 C   0  0  0  0  0  0  0  0  0  0  0  0
    7.0866   10.6379   25.0179 C   0  0  0  0  0  0  0  0  0  0  0  0
    7.9313    9.7210   24.3956 N   0  0  0  0  0  0  0  0  0  0  0  0
  1  2  2  0
  2  3  1  0
  3  4  1  0
  4  5  1  0
  5  6  2  0
  6  7  1  0
  7  8  1  0
  8  9  2  0
  8 10  1  0
 11 10  1  6
 11 12  1  0
 12 13  1  0
 13 14  1  0
 11 15  1  0
 15 16  1  0
 15 17  1  0
 15 18  1  0
 18 19  1  0
  7 20  2  0
 20 21  1  0
 21 22  2  0
 22 23  1  0
 23  2  1  0
 22  5  1  0
 14 12  1  0
M  END
>  <energy_score>  (737) 
-30.558455

>  <inchikey>  (737) 
None

>  <smiles>  (737) 
None

>  <ref_pdb>  (737) 
A3618a

>  <alias>  (737) 
None

>  <HIPPO Pose ID>  (737) 
499430

>  <name>  (737) 
P499430

>  <HIPPO Compound ID>  (737) 
302462

>  <ref_mols>  (737) 
A0310a,A3618a

>  <distance_score>  (737) 
1.925137

>  <inspiration_score>  (737) 
None

$$$$
P499431
     RDKit          3D

 23 24  0  0  0  0  0  0  0  0999 V2000
   12.4233   15.7031   21.4578 C   0  0  0  0  0  0  0  0  0  0  0  0
   11.9142   14.5278   21.8261 C   0  0  0  0  0  0  0  0  0  0  0  0
   11.0735   14.5079   23.0330 C   0  0  0  0  0  0  0  0  0  0  0  0
   10.9967   15.4169   23.7587 O   0  0  0  0  0  0  0  0  0  0  0  0
   10.3160   13.1632   23.0304 N   0  0  0  0  0  0  0  0  0  0  0  0
    9.2850   12.7155   23.8278 C   0  0  0  0  0  0  0  0  0  0  0  0
    8.7261   13.6366   24.7024 C   0  0  0  0  0  0  0  0  0  0  0  0
    7.4760   13.4127   25.2236 C   0  0  0  0  0  0  0  0  0  0  0  0
    6.8325   12.2465   24.8627 C   0  0  0  0  0  0  0  0  0  0  0  0
    5.3807   12.0917   25.2009 C   0  0  0  0  0  0  0  0  0  0  0  0
    4.9921   11.0130   25.4297 O   0  0  0  0  0  0  0  0  0  0  0  0
    4.6341   13.4615   25.2278 N   0  0  0  0  0  0  0  0  0  0  0  0
    3.2846   13.7874   25.6338 C   0  0  0  0  0  0  0  0  0  0  0  0
    3.1017   14.0423   27.1444 C   0  0  0  0  0  0  0  0  0  0  0  0
    2.4323   12.9670   27.8828 N   0  0  0  0  0  0  0  0  0  0  0  0
    2.0174   13.4328   29.2059 C   0  0  0  0  0  0  0  0  0  0  0  0
    3.1773   11.6956   27.8959 C   0  0  2  0  0  0  0  0  0  0  0  0
    2.2583   10.5338   28.2773 C   0  0  0  0  0  0  0  0  0  0  0  0
    4.3677   11.6800   28.8115 C   0  0  0  0  0  0  0  0  0  0  0  0
    5.5007   10.7405   28.5000 C   0  0  0  0  0  0  0  0  0  0  0  0
    5.7281   12.2299   28.4826 C   0  0  0  0  0  0  0  0  0  0  0  0
    7.4444   11.2355   24.1820 N   0  0  0  0  0  0  0  0  0  0  0  0
    8.6658   11.4905   23.6672 C   0  0  0  0  0  0  0  0  0  0  0  0
  1  2  2  0
  2  3  1  0
  3  4  2  0
  3  5  1  0
  5  6  1  0
  6  7  2  0
  7  8  1  0
  8  9  2  0
  9 10  1  0
 10 11  2  0
 10 12  1  0
 12 13  1  0
 13 14  1  0
 14 15  1  0
 15 16  1  0
 15 17  1  0
 17 18  1  1
 17 19  1  0
 19 20  1  0
 20 21  1  0
  9 22  1  0
 22 23  2  0
 23  6  1  0
 21 19  1  0
M  END
>  <energy_score>  (738) 
-14.600396

>  <inchikey>  (738) 
None

>  <smiles>  (738) 
None

>  <ref_pdb>  (738) 
A3618a

>  <alias>  (738) 
None

>  <HIPPO Pose ID>  (738) 
499431

>  <name>  (738) 
P499431

>  <HIPPO Compound ID>  (738) 
302483

>  <ref_mols>  (738) 
A0310a,A3618a

>  <distance_score>  (738) 
1.979554

>  <inspiration_score>  (738) 
None

$$$$
P499432
     RDKit          3D

 23 25  0  0  0  0  0  0  0  0999 V2000
    0.0700   15.2092   27.9896 C   0  0  0  0  0  0  0  0  0  0  0  0
    0.9248   14.3739   27.0052 C   0  0  0  0  0  0  0  0  0  0  0  0
    1.7452   15.3747   26.1588 C   0  0  0  0  0  0  0  0  0  0  0  0
   -0.0634   13.6118   26.0950 C   0  0  0  0  0  0  0  0  0  0  0  0
    0.5809   12.7886   25.1314 O   0  0  0  0  0  0  0  0  0  0  0  0
    1.8906   13.4606   27.8283 C   0  0  2  0  0  0  0  0  0  0  0  0
    3.0228   12.9592   27.0844 N   0  0  0  0  0  0  0  0  0  0  0  0
    4.5355   13.2497   27.2390 C   0  0  0  0  0  0  0  0  0  0  0  0
    5.0942   13.9971   27.9401 O   0  0  0  0  0  0  0  0  0  0  0  0
    5.3612   12.3174   26.3907 C   0  0  0  0  0  0  0  0  0  0  0  0
    5.0559   10.9703   26.3640 C   0  0  0  0  0  0  0  0  0  0  0  0
    5.9071   10.1133   25.6742 C   0  0  0  0  0  0  0  0  0  0  0  0
    7.0326   10.6059   25.0408 C   0  0  0  0  0  0  0  0  0  0  0  0
    7.2642   11.9659   25.1206 C   0  0  0  0  0  0  0  0  0  0  0  0
    6.4617   12.8217   25.7883 N   0  0  0  0  0  0  0  0  0  0  0  0
    8.3947   12.5410   24.6137 O   0  0  0  0  0  0  0  0  0  0  0  0
    9.0626   11.7732   23.6261 C   0  0  0  0  0  0  0  0  0  0  0  0
    8.9426   10.2444   23.6228 C   0  0  0  0  0  0  0  0  0  0  0  0
    9.6575    9.5014   22.9606 O   0  0  0  0  0  0  0  0  0  0  0  0
    7.9011    9.7552   24.3612 N   0  0  0  0  0  0  0  0  0  0  0  0
    1.2270   12.2612   28.4645 C   0  0  0  0  0  0  0  0  0  0  0  0
    1.8854   11.5794   29.6417 C   0  0  0  0  0  0  0  0  0  0  0  0
    0.6033   12.3366   29.8362 C   0  0  0  0  0  0  0  0  0  0  0  0
  1  2  1  0
  2  3  1  0
  2  4  1  0
  4  5  1  0
  2  6  1  0
  6  7  1  6
  7  8  1  0
  8  9  2  0
  8 10  1  0
 10 11  2  0
 11 12  1  0
 12 13  2  0
 13 14  1  0
 14 15  2  0
 14 16  1  0
 16 17  1  0
 17 18  1  0
 18 19  2  0
 18 20  1  0
  6 21  1  0
 21 22  1  0
 22 23  1  0
 15 10  1  0
 23 21  1  0
 20 13  1  0
M  END
>  <energy_score>  (739) 
-12.78264

>  <inchikey>  (739) 
None

>  <smiles>  (739) 
None

>  <ref_pdb>  (739) 
A3618a

>  <alias>  (739) 
None

>  <HIPPO Pose ID>  (739) 
499432

>  <name>  (739) 
P499432

>  <HIPPO Compound ID>  (739) 
302487

>  <ref_mols>  (739) 
A0310a,A3618a

>  <distance_score>  (739) 
1.892448

>  <inspiration_score>  (739) 
None

$$$$
P499433
     RDKit          3D

 23 27  0  0  0  0  0  0  0  0999 V2000
    9.9632    9.8445   22.5576 O   0  0  0  0  0  0  0  0  0  0  0  0
    9.0979   10.1062   23.3795 C   0  0  0  0  0  0  0  0  0  0  0  0
    8.2380    9.0343   23.9713 C   0  0  0  0  0  0  0  0  0  0  0  0
    7.2895    9.3115   24.9808 O   0  0  0  0  0  0  0  0  0  0  0  0
    6.9343   10.6219   25.1044 C   0  0  0  0  0  0  0  0  0  0  0  0
    5.8233   10.8254   25.8347 N   0  0  0  0  0  0  0  0  0  0  0  0
    5.3912   12.1050   26.0004 C   0  0  0  0  0  0  0  0  0  0  0  0
    4.0707   12.2553   26.7461 C   0  0  0  0  0  0  0  0  0  0  0  0
    3.5083   11.2675   27.0614 O   0  0  0  0  0  0  0  0  0  0  0  0
    3.7135   13.7098   26.9943 N   0  0  0  0  0  0  0  0  0  0  0  0
    2.5902   14.3264   27.8020 C   0  0  0  0  0  0  0  0  0  0  0  0
    1.6027   14.0649   26.6896 C   0  0  1  0  0  0  0  0  0  0  0  0
    0.3488   14.8950   26.5385 C   0  0  0  0  0  0  0  0  0  0  0  0
   -0.6802   14.6260   25.4729 C   0  0  0  0  0  0  0  0  0  0  0  0
   -1.0182   14.3898   26.9183 C   0  0  0  0  0  0  0  0  0  0  0  0
    2.8182   14.2954   25.8238 C   0  0  1  0  0  0  0  0  0  0  0  0
    3.2955   15.6444   25.2967 C   0  0  0  0  0  0  0  0  0  0  0  0
    3.0100   17.0041   25.8859 C   0  0  0  0  0  0  0  0  0  0  0  0
    4.4126   16.4802   25.8731 C   0  0  0  0  0  0  0  0  0  0  0  0
    6.1043   13.1885   25.4990 C   0  0  0  0  0  0  0  0  0  0  0  0
    7.2600   12.9581   24.7504 C   0  0  0  0  0  0  0  0  0  0  0  0
    7.6704   11.6520   24.5317 C   0  0  0  0  0  0  0  0  0  0  0  0
    8.7800   11.3854   23.7310 N   0  0  0  0  0  0  0  0  0  0  0  0
  1  2  2  0
  2  3  1  0
  3  4  1  0
  4  5  1  0
  5  6  2  0
  6  7  1  0
  7  8  1  0
  8  9  2  0
  8 10  1  0
 10 11  1  0
 11 12  1  0
 12 13  1  6
 13 14  1  0
 14 15  1  0
 12 16  1  0
 16 17  1  1
 17 18  1  0
 18 19  1  0
  7 20  2  0
 20 21  1  0
 21 22  2  0
 22 23  1  0
 23  2  1  0
 22  5  1  0
 16 10  1  0
 19 17  1  0
 15 13  1  0
M  END
>  <energy_score>  (740) 
-11.018242

>  <inchikey>  (740) 
None

>  <smiles>  (740) 
None

>  <ref_pdb>  (740) 
A3618a

>  <alias>  (740) 
None

>  <HIPPO Pose ID>  (740) 
499433

>  <name>  (740) 
P499433

>  <HIPPO Compound ID>  (740) 
302488

>  <ref_mols>  (740) 
A0310a,A3618a

>  <distance_score>  (740) 
1.634459

>  <inspiration_score>  (740) 
None

$$$$
P499434
     RDKit          3D

 23 25  0  0  0  0  0  0  0  0999 V2000
    5.4857    9.2979   25.3166 O   0  0  0  0  0  0  0  0  0  0  0  0
    6.0580   10.2602   25.6248 C   0  0  0  0  0  0  0  0  0  0  0  0
    5.8713   11.1850   26.8380 N   0  0  0  0  0  0  0  0  0  0  0  0
    4.8993   11.1731   27.8553 C   0  0  2  0  0  0  0  0  0  0  0  0
    3.5160   11.7447   27.6025 C   0  0  0  0  0  0  0  0  0  0  0  0
    3.1305   12.0894   26.3378 F   0  0  0  0  0  0  0  0  0  0  0  0
    2.3890   11.3651   28.2715 F   0  0  0  0  0  0  0  0  0  0  0  0
    4.5122   12.5198   28.3031 C   0  0  0  0  0  0  0  0  0  0  0  0
    5.0986   13.8516   28.1052 C   0  0  0  0  0  0  0  0  0  0  0  0
    4.6417   13.3538   29.4872 C   0  0  0  0  0  0  0  0  0  0  0  0
    7.1035   10.8729   24.7623 C   0  0  0  0  0  0  0  0  0  0  0  0
    6.9473   12.2271   24.4716 C   0  0  0  0  0  0  0  0  0  0  0  0
    7.9472   12.8634   23.7779 C   0  0  0  0  0  0  0  0  0  0  0  0
    9.0496   12.1309   23.3700 C   0  0  0  0  0  0  0  0  0  0  0  0
   10.1091   12.8048   22.7944 N   0  0  0  0  0  0  0  0  0  0  0  0
   10.3389   14.3469   22.5720 C   0  0  0  0  0  0  0  0  0  0  0  0
    9.6273   15.2586   22.7755 O   0  0  0  0  0  0  0  0  0  0  0  0
   11.7903   14.4624   22.1066 C   0  0  0  0  0  0  0  0  0  0  0  0
   12.3495   15.6656   22.3648 F   0  0  0  0  0  0  0  0  0  0  0  0
   12.5331   13.5448   22.7970 F   0  0  0  0  0  0  0  0  0  0  0  0
   11.9496   14.1885   20.7928 F   0  0  0  0  0  0  0  0  0  0  0  0
    9.0795   10.7574   23.6194 C   0  0  0  0  0  0  0  0  0  0  0  0
    8.1352   10.1161   24.3415 N   0  0  0  0  0  0  0  0  0  0  0  0
  1  2  2  0
  2  3  1  0
  4  3  1  6
  4  5  1  0
  5  6  1  0
  5  7  1  0
  5  8  1  0
  8  9  1  0
  9 10  1  0
  2 11  1  0
 11 12  2  0
 12 13  1  0
 13 14  2  0
 14 15  1  0
 15 16  1  0
 16 17  2  0
 16 18  1  0
 18 19  1  0
 18 20  1  0
 18 21  1  0
 14 22  1  0
 22 23  2  0
  8  4  1  0
 23 11  1  0
 10  8  1  0
M  END
>  <energy_score>  (741) 
-18.890556

>  <inchikey>  (741) 
None

>  <smiles>  (741) 
None

>  <ref_pdb>  (741) 
A3618a

>  <alias>  (741) 
None

>  <HIPPO Pose ID>  (741) 
499434

>  <name>  (741) 
P499434

>  <HIPPO Compound ID>  (741) 
302515

>  <ref_mols>  (741) 
A0310a,A3618a

>  <distance_score>  (741) 
1.65856

>  <inspiration_score>  (741) 
None

$$$$
P499435
     RDKit          3D

 23 25  0  0  0  0  0  0  0  0999 V2000
    9.6918    9.4987   22.9068 O   0  0  0  0  0  0  0  0  0  0  0  0
    8.9893   10.2412   23.5823 C   0  0  0  0  0  0  0  0  0  0  0  0
    9.1228   11.7694   23.6041 C   0  0  0  0  0  0  0  0  0  0  0  0
    8.4650   12.5329   24.6020 O   0  0  0  0  0  0  0  0  0  0  0  0
    7.3402   11.9566   25.1187 C   0  0  0  0  0  0  0  0  0  0  0  0
    6.5536   12.8087   25.8098 N   0  0  0  0  0  0  0  0  0  0  0  0
    5.4690   12.2955   26.4267 C   0  0  0  0  0  0  0  0  0  0  0  0
    4.6115   13.2239   27.2406 C   0  0  0  0  0  0  0  0  0  0  0  0
    5.1125   13.9067   28.0413 O   0  0  0  0  0  0  0  0  0  0  0  0
    3.1209   13.0091   26.9000 N   0  0  0  0  0  0  0  0  0  0  0  0
    1.9226   13.5223   27.5424 C   0  0  2  0  0  0  0  0  0  0  0  0
    1.2210   12.3362   28.1659 C   0  0  0  0  0  0  0  0  0  0  0  0
    0.4300   12.4851   29.4414 C   0  0  0  0  0  0  0  0  0  0  0  0
    1.7395   11.7472   29.4563 C   0  0  0  0  0  0  0  0  0  0  0  0
    1.0085   14.3668   26.6243 C   0  0  0  0  0  0  0  0  0  0  0  0
   -0.1683   14.6303   27.2693 F   0  0  0  0  0  0  0  0  0  0  0  0
    1.5863   15.5836   26.4128 F   0  0  0  0  0  0  0  0  0  0  0  0
    0.6584   13.7678   25.2577 C   0  0  0  0  0  0  0  0  0  0  0  0
   -0.1451   12.5788   25.3321 O   0  0  0  0  0  0  0  0  0  0  0  0
    5.1555   10.9502   26.3917 C   0  0  0  0  0  0  0  0  0  0  0  0
    5.9842   10.1009   25.6708 C   0  0  0  0  0  0  0  0  0  0  0  0
    7.0990   10.5985   25.0242 C   0  0  0  0  0  0  0  0  0  0  0  0
    7.9498    9.7512   24.3210 N   0  0  0  0  0  0  0  0  0  0  0  0
  1  2  2  0
  2  3  1  0
  3  4  1  0
  4  5  1  0
  5  6  2  0
  6  7  1  0
  7  8  1  0
  8  9  2  0
  8 10  1  0
 11 10  1  6
 11 12  1  0
 12 13  1  0
 13 14  1  0
 11 15  1  0
 15 16  1  0
 15 17  1  0
 15 18  1  0
 18 19  1  0
  7 20  2  0
 20 21  1  0
 21 22  2  0
 22 23  1  0
 23  2  1  0
 22  5  1  0
 14 12  1  0
M  END
>  <energy_score>  (742) 
-0.308536

>  <inchikey>  (742) 
None

>  <smiles>  (742) 
None

>  <ref_pdb>  (742) 
A3618a

>  <alias>  (742) 
None

>  <HIPPO Pose ID>  (742) 
499435

>  <name>  (742) 
P499435

>  <HIPPO Compound ID>  (742) 
302543

>  <ref_mols>  (742) 
A0310a,A3618a

>  <distance_score>  (742) 
1.891879

>  <inspiration_score>  (742) 
None

$$$$
P499436
     RDKit          3D

 23 26  0  0  0  0  0  0  0  0999 V2000
    0.1768   12.9735   25.9861 N   0  0  0  0  0  0  0  0  0  0  0  0
    1.0223   13.7329   25.7264 C   0  0  0  0  0  0  0  0  0  0  0  0
    2.1378   14.6200   25.2895 C   0  0  0  0  0  0  0  0  0  0  0  0
    3.3794   13.8840   25.3310 N   0  0  0  0  0  0  0  0  0  0  0  0
    4.0786   13.1758   26.4965 C   0  0  0  0  0  0  0  0  0  0  0  0
    3.8071   13.1357   27.6273 O   0  0  0  0  0  0  0  0  0  0  0  0
    5.2220   12.3550   26.0040 C   0  0  0  0  0  0  0  0  0  0  0  0
    5.2937   11.0539   26.4596 C   0  0  0  0  0  0  0  0  0  0  0  0
    6.2452   10.2199   25.8975 C   0  0  0  0  0  0  0  0  0  0  0  0
    7.1361   10.7127   24.9694 C   0  0  0  0  0  0  0  0  0  0  0  0
    7.0058   12.0417   24.5887 C   0  0  0  0  0  0  0  0  0  0  0  0
    6.0388   12.8647   25.0532 N   0  0  0  0  0  0  0  0  0  0  0  0
    7.8008   12.5772   23.6036 O   0  0  0  0  0  0  0  0  0  0  0  0
    9.0570   11.9099   23.4851 C   0  0  0  0  0  0  0  0  0  0  0  0
    9.0198   10.3771   23.5236 C   0  0  0  0  0  0  0  0  0  0  0  0
    9.7702    9.6386   22.9012 O   0  0  0  0  0  0  0  0  0  0  0  0
    8.0817    9.8765   24.3832 N   0  0  0  0  0  0  0  0  0  0  0  0
    1.8738   15.0607   23.8602 C   0  0  0  0  0  0  0  0  0  0  0  0
    0.4985   15.1599   23.2233 C   0  0  0  0  0  0  0  0  0  0  0  0
    1.4709   14.1158   22.7466 C   0  0  0  0  0  0  0  0  0  0  0  0
    2.2253   15.8182   26.2103 C   0  0  0  0  0  0  0  0  0  0  0  0
    1.0157   16.5805   26.7124 C   0  0  0  0  0  0  0  0  0  0  0  0
    1.8695   15.8075   27.6829 C   0  0  0  0  0  0  0  0  0  0  0  0
  1  2  3  0
  2  3  1  0
  3  4  1  0
  4  5  1  0
  5  6  2  0
  5  7  1  0
  7  8  2  0
  8  9  1  0
  9 10  2  0
 10 11  1  0
 11 12  2  0
 11 13  1  0
 13 14  1  0
 14 15  1  0
 15 16  2  0
 15 17  1  0
  3 18  1  0
 18 19  1  0
 19 20  1  0
  3 21  1  0
 21 22  1  0
 22 23  1  0
 12  7  1  0
 20 18  1  0
 23 21  1  0
 17 10  1  0
M  END
>  <energy_score>  (743) 
-25.102245

>  <inchikey>  (743) 
None

>  <smiles>  (743) 
None

>  <ref_pdb>  (743) 
A3618a

>  <alias>  (743) 
None

>  <HIPPO Pose ID>  (743) 
499436

>  <name>  (743) 
P499436

>  <HIPPO Compound ID>  (743) 
302555

>  <ref_mols>  (743) 
A0310a,A3618a

>  <distance_score>  (743) 
1.936584

>  <inspiration_score>  (743) 
None

$$$$
P499437
     RDKit          3D

 24 26  0  0  0  0  0  0  0  0999 V2000
    2.2248   13.0378   26.8608 C   0  0  0  0  0  0  0  0  0  0  0  0
    2.4850   12.0293   27.8828 N   0  0  0  0  0  0  0  0  0  0  0  0
    3.3358   10.9199   27.3722 C   0  0  0  0  0  0  0  0  0  0  0  0
    4.7717   11.1341   27.8964 C   0  0  1  0  0  0  0  0  0  0  0  0
    5.7715   11.1858   26.8792 N   0  0  0  0  0  0  0  0  0  0  0  0
    5.9969   10.2874   25.6570 C   0  0  0  0  0  0  0  0  0  0  0  0
    5.4520    9.3174   25.3252 O   0  0  0  0  0  0  0  0  0  0  0  0
    7.0398   10.9226   24.8019 C   0  0  0  0  0  0  0  0  0  0  0  0
    6.9053   12.2806   24.5307 C   0  0  0  0  0  0  0  0  0  0  0  0
    7.9128   12.9068   23.8337 C   0  0  0  0  0  0  0  0  0  0  0  0
    9.0032   12.1629   23.4100 C   0  0  0  0  0  0  0  0  0  0  0  0
   10.0702   12.8210   22.8279 N   0  0  0  0  0  0  0  0  0  0  0  0
   10.3226   14.3589   22.6048 C   0  0  0  0  0  0  0  0  0  0  0  0
    9.6265   15.2814   22.8131 O   0  0  0  0  0  0  0  0  0  0  0  0
   11.7743   14.4546   22.1300 C   0  0  0  0  0  0  0  0  0  0  0  0
   12.3508   15.6499   22.3875 F   0  0  0  0  0  0  0  0  0  0  0  0
   12.5125   13.5251   22.8094 F   0  0  0  0  0  0  0  0  0  0  0  0
   11.9198   14.1849   20.8135 F   0  0  0  0  0  0  0  0  0  0  0  0
    9.0163   10.7890   23.6504 C   0  0  0  0  0  0  0  0  0  0  0  0
    8.0628   10.1569   24.3673 N   0  0  0  0  0  0  0  0  0  0  0  0
    4.6662   12.4666   28.5898 C   0  0  0  0  0  0  0  0  0  0  0  0
    5.4354   13.7257   28.1941 C   0  0  0  0  0  0  0  0  0  0  0  0
    5.7740   13.0008   29.4702 C   0  0  0  0  0  0  0  0  0  0  0  0
    3.2305   12.6111   29.0020 C   0  0  0  0  0  0  0  0  0  0  0  0
  1  2  1  0
  2  3  1  0
  3  4  1  0
  4  5  1  6
  5  6  1  0
  6  7  2  0
  6  8  1  0
  8  9  2  0
  9 10  1  0
 10 11  2  0
 11 12  1  0
 12 13  1  0
 13 14  2  0
 13 15  1  0
 15 16  1  0
 15 17  1  0
 15 18  1  0
 11 19  1  0
 19 20  2  0
  4 21  1  0
 21 22  1  0
 22 23  1  0
 21 24  1  0
 24  2  1  0
 20  8  1  0
 23 21  1  0
M  END
>  <energy_score>  (744) 
-4.198798

>  <inchikey>  (744) 
None

>  <smiles>  (744) 
None

>  <ref_pdb>  (744) 
A3618a

>  <alias>  (744) 
None

>  <HIPPO Pose ID>  (744) 
499437

>  <name>  (744) 
P499437

>  <HIPPO Compound ID>  (744) 
302583

>  <ref_mols>  (744) 
A0310a,A3618a

>  <distance_score>  (744) 
1.925334

>  <inspiration_score>  (744) 
None

$$$$
P499438
     RDKit          3D

 24 26  0  0  0  0  0  0  0  0999 V2000
   12.2921   15.7529   21.6399 C   0  0  0  0  0  0  0  0  0  0  0  0
   11.6266   14.5996   21.5372 C   0  0  0  0  0  0  0  0  0  0  0  0
   10.3636   14.4720   22.2953 C   0  0  0  0  0  0  0  0  0  0  0  0
    9.7263   15.4018   22.5949 O   0  0  0  0  0  0  0  0  0  0  0  0
   10.1783   12.9750   22.6421 N   0  0  0  0  0  0  0  0  0  0  0  0
    9.1585   12.3288   23.3227 C   0  0  0  0  0  0  0  0  0  0  0  0
    8.1164   13.1040   23.8159 C   0  0  0  0  0  0  0  0  0  0  0  0
    7.0933   12.5145   24.5209 C   0  0  0  0  0  0  0  0  0  0  0  0
    7.1754   11.1519   24.7652 C   0  0  0  0  0  0  0  0  0  0  0  0
    6.1267   10.5215   25.6219 C   0  0  0  0  0  0  0  0  0  0  0  0
    5.6699    9.4908   25.3308 O   0  0  0  0  0  0  0  0  0  0  0  0
    5.7931   11.4685   26.7961 N   0  0  0  0  0  0  0  0  0  0  0  0
    4.7799   11.3882   27.7842 C   0  0  0  0  0  0  0  0  0  0  0  0
    3.3658   11.5316   27.2602 C   0  0  2  0  0  0  0  0  0  0  0  0
    3.2820   12.6251   26.3187 N   0  0  0  0  0  0  0  0  0  0  0  0
    2.2253   13.4599   26.5821 C   0  0  0  0  0  0  0  0  0  0  0  0
    1.8111   14.3279   25.8372 O   0  0  0  0  0  0  0  0  0  0  0  0
    1.7037   13.1221   27.7778 N   0  0  0  0  0  0  0  0  0  0  0  0
    2.2724   11.9740   28.2330 C   0  0  0  0  0  0  0  0  0  0  0  0
    1.9101   11.3974   29.2484 O   0  0  0  0  0  0  0  0  0  0  0  0
    4.9997   10.4334   28.9239 C   0  0  0  0  0  0  0  0  0  0  0  0
    5.1588   11.9135   29.1468 C   0  0  0  0  0  0  0  0  0  0  0  0
    8.1574   10.3554   24.2810 N   0  0  0  0  0  0  0  0  0  0  0  0
    9.1199   10.9565   23.5428 C   0  0  0  0  0  0  0  0  0  0  0  0
  1  2  2  0
  2  3  1  0
  3  4  2  0
  3  5  1  0
  5  6  1  0
  6  7  2  0
  7  8  1  0
  8  9  2  0
  9 10  1  0
 10 11  2  0
 10 12  1  0
 12 13  1  0
 14 13  1  1
 14 15  1  0
 15 16  1  0
 16 17  2  0
 16 18  1  0
 18 19  1  0
 19 20  2  0
 13 21  1  0
 21 22  1  0
  9 23  1  0
 23 24  2  0
 24  6  1  0
 22 13  1  0
 19 14  1  0
M  END
>  <energy_score>  (745) 
-21.908919

>  <inchikey>  (745) 
None

>  <smiles>  (745) 
None

>  <ref_pdb>  (745) 
A3618a

>  <alias>  (745) 
None

>  <HIPPO Pose ID>  (745) 
499438

>  <name>  (745) 
P499438

>  <HIPPO Compound ID>  (745) 
302617

>  <ref_mols>  (745) 
A0310a,A3618a

>  <distance_score>  (745) 
1.773597

>  <inspiration_score>  (745) 
None

$$$$
P499439
     RDKit          3D

 24 25  0  0  0  0  0  0  0  0999 V2000
    3.3692   14.2217   26.1843 C   0  0  0  0  0  0  0  0  0  0  0  0
    2.6089   13.1801   26.8660 N   0  0  0  0  0  0  0  0  0  0  0  0
    1.5685   13.7904   27.6926 C   0  0  0  0  0  0  0  0  0  0  0  0
    3.4089   12.2064   27.6494 C   0  0  1  0  0  0  0  0  0  0  0  0
    3.7785   10.9734   26.8136 C   0  0  0  0  0  0  0  0  0  0  0  0
    4.7878   11.1875   25.8198 N   0  0  0  0  0  0  0  0  0  0  0  0
    6.1935   10.6111   25.6956 C   0  0  0  0  0  0  0  0  0  0  0  0
    6.7361    9.8117   26.3338 O   0  0  0  0  0  0  0  0  0  0  0  0
    7.0419   11.2452   24.6491 C   0  0  0  0  0  0  0  0  0  0  0  0
    6.9339   12.5990   24.3742 C   0  0  0  0  0  0  0  0  0  0  0  0
    7.9477   13.1979   23.6548 C   0  0  0  0  0  0  0  0  0  0  0  0
    9.0333   12.4392   23.2465 C   0  0  0  0  0  0  0  0  0  0  0  0
   10.1169   13.0572   22.6637 N   0  0  0  0  0  0  0  0  0  0  0  0
   10.3389   14.5603   22.2619 C   0  0  0  0  0  0  0  0  0  0  0  0
    9.6023   15.4730   22.2982 O   0  0  0  0  0  0  0  0  0  0  0  0
   11.8200   14.6290   21.8870 C   0  0  0  0  0  0  0  0  0  0  0  0
   12.3975   15.8176   22.1682 F   0  0  0  0  0  0  0  0  0  0  0  0
   12.0418   14.3331   20.5864 F   0  0  0  0  0  0  0  0  0  0  0  0
   12.4993   13.6970   22.6230 F   0  0  0  0  0  0  0  0  0  0  0  0
    9.0380   11.0762   23.5025 C   0  0  0  0  0  0  0  0  0  0  0  0
    8.0640   10.4716   24.1969 N   0  0  0  0  0  0  0  0  0  0  0  0
    4.5045   12.8264   28.4741 C   0  0  0  0  0  0  0  0  0  0  0  0
    5.8795   13.2130   27.9863 C   0  0  0  0  0  0  0  0  0  0  0  0
    5.7114   12.0311   28.9008 C   0  0  0  0  0  0  0  0  0  0  0  0
  1  2  1  0
  2  3  1  0
  2  4  1  0
  4  5  1  6
  5  6  1  0
  6  7  1  0
  7  8  2  0
  7  9  1  0
  9 10  2  0
 10 11  1  0
 11 12  2  0
 12 13  1  0
 13 14  1  0
 14 15  2  0
 14 16  1  0
 16 17  1  0
 16 18  1  0
 16 19  1  0
 12 20  1  0
 20 21  2  0
  4 22  1  0
 22 23  1  0
 23 24  1  0
 21  9  1  0
 24 22  1  0
M  END
>  <energy_score>  (746) 
-3.580284

>  <inchikey>  (746) 
None

>  <smiles>  (746) 
None

>  <ref_pdb>  (746) 
A3618a

>  <alias>  (746) 
None

>  <HIPPO Pose ID>  (746) 
499439

>  <name>  (746) 
P499439

>  <HIPPO Compound ID>  (746) 
302652

>  <ref_mols>  (746) 
A0310a,A3618a

>  <distance_score>  (746) 
1.730338

>  <inspiration_score>  (746) 
None

$$$$
P499444
     RDKit          3D

 24 28  0  0  0  0  0  0  0  0999 V2000
    4.4700   10.8175   28.8833 O   0  0  0  0  0  0  0  0  0  0  0  0
    4.3995   11.1863   27.7232 C   0  0  0  0  0  0  0  0  0  0  0  0
    3.4643   12.2723   27.2295 C   0  0  0  0  0  0  0  0  0  0  0  0
    4.0006   13.2247   26.3361 O   0  0  0  0  0  0  0  0  0  0  0  0
    5.0563   12.7672   25.5967 C   0  0  0  0  0  0  0  0  0  0  0  0
    5.5248   13.6613   24.7137 N   0  0  0  0  0  0  0  0  0  0  0  0
    6.6212   13.2653   23.9998 C   0  0  0  0  0  0  0  0  0  0  0  0
    7.0916   14.1406   22.8833 C   0  0  0  0  0  0  0  0  0  0  0  0
    6.4425   14.2335   21.9041 O   0  0  0  0  0  0  0  0  0  0  0  0
    8.3841   14.8262   23.2696 N   0  0  0  0  0  0  0  0  0  0  0  0
    9.1744   15.9034   22.5678 C   0  0  0  0  0  0  0  0  0  0  0  0
    9.9278   14.9532   21.6931 C   0  0  2  0  0  0  0  0  0  0  0  0
   11.3487   15.3643   21.3654 C   0  0  0  0  0  0  0  0  0  0  0  0
   11.1469   16.0317   20.0349 C   0  0  0  0  0  0  0  0  0  0  0  0
   10.1733   15.1552   19.3379 C   0  0  0  0  0  0  0  0  0  0  0  0
    9.3289   14.6912   20.4006 O   0  0  0  0  0  0  0  0  0  0  0  0
    9.6542   13.9824   22.8036 C   0  0  1  0  0  0  0  0  0  0  0  0
   10.5124   13.7139   24.0206 C   0  0  0  0  0  0  0  0  0  0  0  0
   11.9783   13.4012   23.9715 C   0  0  0  0  0  0  0  0  0  0  0  0
   11.5063   14.6754   24.6008 C   0  0  0  0  0  0  0  0  0  0  0  0
    7.2813   12.0463   24.1631 C   0  0  0  0  0  0  0  0  0  0  0  0
    6.7808   11.1360   25.0669 C   0  0  0  0  0  0  0  0  0  0  0  0
    5.6557   11.5025   25.7847 C   0  0  0  0  0  0  0  0  0  0  0  0
    5.2129   10.6481   26.7811 N   0  0  0  0  0  0  0  0  0  0  0  0
  1  2  2  0
  2  3  1  0
  3  4  1  0
  4  5  1  0
  5  6  2  0
  6  7  1  0
  7  8  1  0
  8  9  2  0
  8 10  1  0
 10 11  1  0
 12 11  1  1
 12 13  1  0
 13 14  1  0
 14 15  1  0
 15 16  1  0
 12 17  1  0
 17 18  1  1
 18 19  1  0
 19 20  1  0
  7 21  2  0
 21 22  1  0
 22 23  2  0
 23 24  1  0
 24  2  1  0
 23  5  1  0
 17 10  1  0
 20 18  1  0
 12 16  1  0
M  END
>  <energy_score>  (747) 
-17.345577

>  <inchikey>  (747) 
None

>  <smiles>  (747) 
None

>  <ref_pdb>  (747) 
A3618a

>  <alias>  (747) 
None

>  <HIPPO Pose ID>  (747) 
499444

>  <name>  (747) 
P499444

>  <HIPPO Compound ID>  (747) 
302669

>  <ref_mols>  (747) 
A0310a,A3618a

>  <distance_score>  (747) 
1.940433

>  <inspiration_score>  (747) 
None

$$$$
P499445
     RDKit          3D

 24 28  0  0  0  0  0  0  0  0999 V2000
    4.8258   10.6879   28.8627 O   0  0  0  0  0  0  0  0  0  0  0  0
    4.5453   11.0053   27.7182 C   0  0  0  0  0  0  0  0  0  0  0  0
    3.4537   11.9889   27.3395 C   0  0  0  0  0  0  0  0  0  0  0  0
    3.7924   12.9823   26.3859 O   0  0  0  0  0  0  0  0  0  0  0  0
    4.8896   12.6766   25.6289 C   0  0  0  0  0  0  0  0  0  0  0  0
    5.3170   13.6475   24.7452 C   0  0  0  0  0  0  0  0  0  0  0  0
    6.4923   13.3718   24.0447 C   0  0  0  0  0  0  0  0  0  0  0  0
    7.0411   14.3466   23.0735 C   0  0  0  0  0  0  0  0  0  0  0  0
    6.4259   14.6290   22.1088 O   0  0  0  0  0  0  0  0  0  0  0  0
    8.3870   14.8416   23.5557 N   0  0  0  0  0  0  0  0  0  0  0  0
    9.2883   15.9028   23.0096 C   0  0  0  0  0  0  0  0  0  0  0  0
    9.9179   14.9995   21.9897 C   0  0  1  0  0  0  0  0  0  0  0  0
    9.2046   15.0486   20.6656 C   0  0  0  0  0  0  0  0  0  0  0  0
   10.3073   15.2133   19.6336 C   0  0  0  0  0  0  0  0  0  0  0  0
   11.3805   15.8900   20.4269 C   0  0  0  0  0  0  0  0  0  0  0  0
   11.3092   15.2400   21.6845 O   0  0  0  0  0  0  0  0  0  0  0  0
    9.5781   13.9368   22.9952 C   0  0  1  0  0  0  0  0  0  0  0  0
   10.5241   13.5937   24.1297 C   0  0  0  0  0  0  0  0  0  0  0  0
   11.9620   13.2088   23.9223 C   0  0  0  0  0  0  0  0  0  0  0  0
   11.6422   14.4998   24.5925 C   0  0  0  0  0  0  0  0  0  0  0  0
    7.2334   12.2296   24.1430 N   0  0  0  0  0  0  0  0  0  0  0  0
    6.7599   11.2862   24.9617 C   0  0  0  0  0  0  0  0  0  0  0  0
    5.6166   11.4719   25.7197 C   0  0  0  0  0  0  0  0  0  0  0  0
    5.2742   10.5272   26.6769 N   0  0  0  0  0  0  0  0  0  0  0  0
  1  2  2  0
  2  3  1  0
  3  4  1  0
  4  5  1  0
  5  6  2  0
  6  7  1  0
  7  8  1  0
  8  9  2  0
  8 10  1  0
 10 11  1  0
 12 11  1  1
 12 13  1  0
 13 14  1  0
 14 15  1  0
 15 16  1  0
 12 17  1  0
 17 18  1  1
 18 19  1  0
 19 20  1  0
  7 21  2  0
 21 22  1  0
 22 23  2  0
 23 24  1  0
 24  2  1  0
 23  5  1  0
 17 10  1  0
 20 18  1  0
 12 16  1  0
M  END
>  <energy_score>  (748) 
-22.497407

>  <inchikey>  (748) 
None

>  <smiles>  (748) 
None

>  <ref_pdb>  (748) 
A3618a

>  <alias>  (748) 
None

>  <HIPPO Pose ID>  (748) 
499445

>  <name>  (748) 
P499445

>  <HIPPO Compound ID>  (748) 
302681

>  <ref_mols>  (748) 
A0310a,A3618a

>  <distance_score>  (748) 
1.988674

>  <inspiration_score>  (748) 
None

$$$$
P499446
     RDKit          3D

 25 28  0  0  0  0  0  0  0  0999 V2000
    0.2019   13.7898   25.4622 C   0  0  0  0  0  0  0  0  0  0  0  0
    1.2665   13.2814   26.2640 O   0  0  0  0  0  0  0  0  0  0  0  0
    1.2710   13.7586   27.5488 C   0  0  0  0  0  0  0  0  0  0  0  0
    0.3579   14.4352   28.0170 O   0  0  0  0  0  0  0  0  0  0  0  0
    2.5248   13.2733   28.3671 C   0  0  0  0  0  0  0  0  0  0  0  0
    3.5563   12.7808   27.4634 N   0  0  0  0  0  0  0  0  0  0  0  0
    4.4655   13.5348   26.4803 C   0  0  0  0  0  0  0  0  0  0  0  0
    4.4831   14.6593   26.1793 O   0  0  0  0  0  0  0  0  0  0  0  0
    5.4601   12.5656   25.8965 C   0  0  0  0  0  0  0  0  0  0  0  0
    6.4064   12.9796   24.9801 C   0  0  0  0  0  0  0  0  0  0  0  0
    7.3115   12.0429   24.4946 C   0  0  0  0  0  0  0  0  0  0  0  0
    7.2287   10.7215   24.8985 C   0  0  0  0  0  0  0  0  0  0  0  0
    6.2320   10.3956   25.7992 C   0  0  0  0  0  0  0  0  0  0  0  0
    5.3708   11.2866   26.3405 N   0  0  0  0  0  0  0  0  0  0  0  0
    8.0828    9.7646   24.3544 N   0  0  0  0  0  0  0  0  0  0  0  0
    9.0976   10.1120   23.5028 C   0  0  0  0  0  0  0  0  0  0  0  0
    9.7760    9.2623   22.9378 O   0  0  0  0  0  0  0  0  0  0  0  0
    9.3221   11.6224   23.3679 C   0  0  0  0  0  0  0  0  0  0  0  0
    8.2036   12.4826   23.5554 O   0  0  0  0  0  0  0  0  0  0  0  0
    2.1928   12.0876   29.2839 C   0  0  0  0  0  0  0  0  0  0  0  0
    0.8100   11.7833   29.8190 C   0  0  0  0  0  0  0  0  0  0  0  0
    1.4199   10.8927   28.7732 C   0  0  0  0  0  0  0  0  0  0  0  0
    3.1100   14.4663   29.1237 C   0  0  0  0  0  0  0  0  0  0  0  0
    2.8959   14.7121   30.6014 C   0  0  0  0  0  0  0  0  0  0  0  0
    4.2641   14.3414   30.0966 C   0  0  0  0  0  0  0  0  0  0  0  0
  1  2  1  0
  2  3  1  0
  3  4  2  0
  3  5  1  0
  5  6  1  0
  6  7  1  0
  7  8  2  0
  7  9  1  0
  9 10  2  0
 10 11  1  0
 11 12  2  0
 12 13  1  0
 13 14  2  0
 12 15  1  0
 15 16  1  0
 16 17  2  0
 16 18  1  0
 18 19  1  0
  5 20  1  0
 20 21  1  0
 21 22  1  0
  5 23  1  0
 23 24  1  0
 24 25  1  0
 14  9  1  0
 22 20  1  0
 25 23  1  0
 19 11  1  0
M  END
>  <energy_score>  (749) 
-48.108951

>  <inchikey>  (749) 
None

>  <smiles>  (749) 
None

>  <ref_pdb>  (749) 
A3618a

>  <alias>  (749) 
None

>  <HIPPO Pose ID>  (749) 
499446

>  <name>  (749) 
P499446

>  <HIPPO Compound ID>  (749) 
302699

>  <ref_mols>  (749) 
A0310a,A3618a

>  <distance_score>  (749) 
1.978709

>  <inspiration_score>  (749) 
None

$$$$
P499447
     RDKit          3D

 25 28  0  0  0  0  0  0  0  0999 V2000
    0.4697   12.6368   27.6679 C   0  0  0  0  0  0  0  0  0  0  0  0
    1.5019   11.8015   27.8628 C   0  0  0  0  0  0  0  0  0  0  0  0
    2.8628   12.3739   27.7033 C   0  0  0  0  0  0  0  0  0  0  0  0
    3.0936   13.4774   28.0047 O   0  0  0  0  0  0  0  0  0  0  0  0
    3.7587   11.3123   27.0173 N   0  0  0  0  0  0  0  0  0  0  0  0
    5.0409   11.4163   26.4959 C   0  0  0  0  0  0  0  0  0  0  0  0
    5.6820   10.3550   25.8604 C   0  0  0  0  0  0  0  0  0  0  0  0
    6.8336   10.6056   25.0967 C   0  0  0  0  0  0  0  0  0  0  0  0
    7.2618   11.9203   24.9943 C   0  0  0  0  0  0  0  0  0  0  0  0
    8.1953   12.3913   23.9054 C   0  0  0  0  0  0  0  0  0  0  0  0
    9.1945   11.8224   23.6590 O   0  0  0  0  0  0  0  0  0  0  0  0
    7.5845   13.6243   23.2661 N   0  0  0  0  0  0  0  0  0  0  0  0
    8.0569   14.9011   23.9614 C   0  0  2  0  0  0  0  0  0  0  0  0
    7.2124   16.0480   23.4552 C   0  0  0  0  0  0  0  0  0  0  0  0
    7.2806   15.7565   22.0059 C   0  0  0  0  0  0  0  0  0  0  0  0
    8.0244   14.4346   22.0514 C   0  0  1  0  0  0  0  0  0  0  0  0
    9.5031   14.4608   21.7573 C   0  0  1  0  0  0  0  0  0  0  0  0
   10.3664   15.7002   21.7167 C   0  0  0  0  0  0  0  0  0  0  0  0
   10.3818   14.7767   22.9224 C   0  0  2  0  0  0  0  0  0  0  0  0
   11.5661   13.8977   23.1803 C   0  0  0  0  0  0  0  0  0  0  0  0
   12.0725   13.4252   22.0298 F   0  0  0  0  0  0  0  0  0  0  0  0
   12.5368   14.6505   23.7557 F   0  0  0  0  0  0  0  0  0  0  0  0
    9.5854   15.1125   24.1477 C   0  0  0  0  0  0  0  0  0  0  0  0
    6.7514   12.9211   25.7465 N   0  0  0  0  0  0  0  0  0  0  0  0
    5.6487   12.6594   26.4583 C   0  0  0  0  0  0  0  0  0  0  0  0
  1  2  2  0
  2  3  1  0
  3  4  2  0
  3  5  1  0
  5  6  1  0
  6  7  2  0
  7  8  1  0
  8  9  2  0
  9 10  1  0
 10 11  2  0
 10 12  1  0
 12 13  1  0
 13 14  1  6
 14 15  1  0
 16 15  1  1
 16 17  1  0
 17 18  1  6
 18 19  1  0
 19 20  1  1
 20 21  1  0
 20 22  1  0
 19 23  1  0
  9 24  1  0
 24 25  2  0
 25  6  1  0
 16 12  1  0
 19 17  1  0
 23 13  1  0
M  END
>  <energy_score>  (750) 
-16.706302

>  <inchikey>  (750) 
None

>  <smiles>  (750) 
None

>  <ref_pdb>  (750) 
A3618a

>  <alias>  (750) 
None

>  <HIPPO Pose ID>  (750) 
499447

>  <name>  (750) 
P499447

>  <HIPPO Compound ID>  (750) 
302760

>  <ref_mols>  (750) 
A0310a,A3618a

>  <distance_score>  (750) 
1.736078

>  <inspiration_score>  (750) 
None

$$$$
P499448
     RDKit          3D

 25 27  0  0  0  0  0  0  0  0999 V2000
   12.2444   15.4521   21.5431 C   0  0  0  0  0  0  0  0  0  0  0  0
   11.6450   14.3040   21.8782 C   0  0  0  0  0  0  0  0  0  0  0  0
   10.6984   14.3317   23.0143 C   0  0  0  0  0  0  0  0  0  0  0  0
   10.5779   15.2904   23.6702 O   0  0  0  0  0  0  0  0  0  0  0  0
    9.9259   12.9862   23.0488 N   0  0  0  0  0  0  0  0  0  0  0  0
    8.8289   12.5971   23.8037 C   0  0  0  0  0  0  0  0  0  0  0  0
    8.1333   13.6349   24.4119 C   0  0  0  0  0  0  0  0  0  0  0  0
    7.1198   13.3705   25.2959 C   0  0  0  0  0  0  0  0  0  0  0  0
    6.8325   12.0465   25.5649 C   0  0  0  0  0  0  0  0  0  0  0  0
    5.9427   11.8285   26.7432 C   0  0  0  0  0  0  0  0  0  0  0  0
    5.9217   12.6364   27.5792 O   0  0  0  0  0  0  0  0  0  0  0  0
    5.1251   10.5536   26.5801 N   0  0  0  0  0  0  0  0  0  0  0  0
    4.0958   10.0669   27.3157 N   0  0  0  0  0  0  0  0  0  0  0  0
    2.9638   10.8393   27.4201 C   0  0  0  0  0  0  0  0  0  0  0  0
    2.6537   11.8423   26.7895 O   0  0  0  0  0  0  0  0  0  0  0  0
    2.2128   10.3651   28.4765 N   0  0  0  0  0  0  0  0  0  0  0  0
    2.9718    9.4299   29.2790 C   0  0  2  0  0  0  0  0  0  0  0  0
    2.3907    8.0236   29.1565 C   0  0  0  0  0  0  0  0  0  0  0  0
    3.0839    9.8591   30.7232 C   0  0  0  0  0  0  0  0  0  0  0  0
    1.8942   10.3559   31.5131 C   0  0  0  0  0  0  0  0  0  0  0  0
    3.0121   11.3033   31.1677 C   0  0  0  0  0  0  0  0  0  0  0  0
    4.3257    9.4921   28.5431 C   0  0  0  0  0  0  0  0  0  0  0  0
    5.3993    9.1556   29.0314 O   0  0  0  0  0  0  0  0  0  0  0  0
    7.4063   10.9793   24.9258 N   0  0  0  0  0  0  0  0  0  0  0  0
    8.4043   11.2907   24.0416 C   0  0  0  0  0  0  0  0  0  0  0  0
  1  2  2  0
  2  3  1  0
  3  4  2  0
  3  5  1  0
  5  6  1  0
  6  7  2  0
  7  8  1  0
  8  9  2  0
  9 10  1  0
 10 11  2  0
 10 12  1  0
 12 13  1  0
 13 14  1  0
 14 15  2  0
 14 16  1  0
 16 17  1  0
 17 18  1  1
 17 19  1  0
 19 20  1  0
 20 21  1  0
 17 22  1  0
 22 23  2  0
  9 24  1  0
 24 25  2  0
 25  6  1  0
 22 13  1  0
 21 19  1  0
M  END
>  <energy_score>  (751) 
-36.832305

>  <inchikey>  (751) 
None

>  <smiles>  (751) 
None

>  <ref_pdb>  (751) 
A3618a

>  <alias>  (751) 
None

>  <HIPPO Pose ID>  (751) 
499448

>  <name>  (751) 
P499448

>  <HIPPO Compound ID>  (751) 
302761

>  <ref_mols>  (751) 
A0310a,A3618a

>  <distance_score>  (751) 
1.807966

>  <inspiration_score>  (751) 
None

$$$$
P499449
     RDKit          3D

 25 27  0  0  0  0  0  0  0  0999 V2000
    1.4302   12.3179   27.2406 C   0  0  0  0  0  0  0  0  0  0  0  0
    2.8031   11.9945   27.5173 N   0  0  0  0  0  0  0  0  0  0  0  0
    3.3582   10.6573   27.3560 C   0  0  0  0  0  0  0  0  0  0  0  0
    4.8089   10.7543   27.8762 C   0  0  1  0  0  0  0  0  0  0  0  0
    5.7165   11.0233   26.8023 N   0  0  0  0  0  0  0  0  0  0  0  0
    6.0885   10.1814   25.5814 C   0  0  0  0  0  0  0  0  0  0  0  0
    5.6636    9.1685   25.2086 O   0  0  0  0  0  0  0  0  0  0  0  0
    7.1045   10.9069   24.7666 C   0  0  0  0  0  0  0  0  0  0  0  0
    6.9470   12.2682   24.5328 C   0  0  0  0  0  0  0  0  0  0  0  0
    7.9434   12.9251   23.8433 C   0  0  0  0  0  0  0  0  0  0  0  0
    9.0399   12.2066   23.3903 C   0  0  0  0  0  0  0  0  0  0  0  0
   10.0958   12.8786   22.8074 N   0  0  0  0  0  0  0  0  0  0  0  0
   10.3346   14.4195   22.5999 C   0  0  0  0  0  0  0  0  0  0  0  0
    9.6339   15.3339   22.8244 O   0  0  0  0  0  0  0  0  0  0  0  0
   11.7823   14.5204   22.1138 C   0  0  0  0  0  0  0  0  0  0  0  0
   12.3531   15.7233   22.3413 F   0  0  0  0  0  0  0  0  0  0  0  0
   12.5280   13.6079   22.8087 F   0  0  0  0  0  0  0  0  0  0  0  0
   11.9224   14.2186   20.8032 F   0  0  0  0  0  0  0  0  0  0  0  0
    9.0762   10.8304   23.5973 C   0  0  0  0  0  0  0  0  0  0  0  0
    8.1384   10.1716   24.3026 N   0  0  0  0  0  0  0  0  0  0  0  0
    4.7451   11.9665   28.7622 C   0  0  0  0  0  0  0  0  0  0  0  0
    5.3882   11.9385   30.1308 C   0  0  0  0  0  0  0  0  0  0  0  0
    5.9481   12.8426   29.0682 C   0  0  0  0  0  0  0  0  0  0  0  0
    3.4546   12.6449   28.5274 C   0  0  0  0  0  0  0  0  0  0  0  0
    3.0710   13.6038   29.1625 O   0  0  0  0  0  0  0  0  0  0  0  0
  1  2  1  0
  2  3  1  0
  3  4  1  0
  4  5  1  6
  5  6  1  0
  6  7  2  0
  6  8  1  0
  8  9  2  0
  9 10  1  0
 10 11  2  0
 11 12  1  0
 12 13  1  0
 13 14  2  0
 13 15  1  0
 15 16  1  0
 15 17  1  0
 15 18  1  0
 11 19  1  0
 19 20  2  0
  4 21  1  0
 21 22  1  0
 22 23  1  0
 21 24  1  0
 24 25  2  0
 24  2  1  0
 20  8  1  0
 23 21  1  0
M  END
>  <energy_score>  (752) 
-11.551524

>  <inchikey>  (752) 
None

>  <smiles>  (752) 
None

>  <ref_pdb>  (752) 
A3618a

>  <alias>  (752) 
None

>  <HIPPO Pose ID>  (752) 
499449

>  <name>  (752) 
P499449

>  <HIPPO Compound ID>  (752) 
302814

>  <ref_mols>  (752) 
A0310a,A3618a

>  <distance_score>  (752) 
1.770166

>  <inspiration_score>  (752) 
None

$$$$
P499450
     RDKit          3D

 26 29  0  0  0  0  0  0  0  0999 V2000
    0.5526   12.7688   27.6812 C   0  0  0  0  0  0  0  0  0  0  0  0
    1.5858   11.9243   27.8263 C   0  0  0  0  0  0  0  0  0  0  0  0
    2.9439   12.4866   27.6048 C   0  0  0  0  0  0  0  0  0  0  0  0
    3.1623   13.6166   27.7998 O   0  0  0  0  0  0  0  0  0  0  0  0
    3.8509   11.3751   27.0183 N   0  0  0  0  0  0  0  0  0  0  0  0
    5.1311   11.4446   26.4838 C   0  0  0  0  0  0  0  0  0  0  0  0
    5.7424   10.3731   25.8358 C   0  0  0  0  0  0  0  0  0  0  0  0
    6.8841   10.6063   25.0490 C   0  0  0  0  0  0  0  0  0  0  0  0
    7.3304   11.9141   24.9373 C   0  0  0  0  0  0  0  0  0  0  0  0
    8.2005   12.3896   23.7921 C   0  0  0  0  0  0  0  0  0  0  0  0
    9.1578   11.8045   23.4434 O   0  0  0  0  0  0  0  0  0  0  0  0
    7.5669   13.6519   23.2399 N   0  0  0  0  0  0  0  0  0  0  0  0
    8.1317   14.8979   23.9188 C   0  0  2  0  0  0  0  0  0  0  0  0
    7.2364   16.0528   23.5277 C   0  0  0  0  0  0  0  0  0  0  0  0
    7.1670   15.8036   22.0688 C   0  0  0  0  0  0  0  0  0  0  0  0
    7.9161   14.4817   22.0110 C   0  0  1  0  0  0  0  0  0  0  0  0
    9.3648   14.5318   21.5853 C   0  0  1  0  0  0  0  0  0  0  0  0
   10.1735   15.8057   21.4921 C   0  0  0  0  0  0  0  0  0  0  0  0
   10.3538   14.8452   22.6563 C   0  0  2  0  0  0  0  0  0  0  0  0
   11.6398   14.0892   22.7445 C   0  0  0  0  0  0  0  0  0  0  0  0
   12.5837   14.9000   23.2747 F   0  0  0  0  0  0  0  0  0  0  0  0
   11.5516   13.0179   23.5620 F   0  0  0  0  0  0  0  0  0  0  0  0
   12.0742   13.6817   21.5387 F   0  0  0  0  0  0  0  0  0  0  0  0
    9.6748   15.0994   23.9674 C   0  0  0  0  0  0  0  0  0  0  0  0
    6.8563   12.9175   25.7110 N   0  0  0  0  0  0  0  0  0  0  0  0
    5.7658   12.6733   26.4458 C   0  0  0  0  0  0  0  0  0  0  0  0
  1  2  2  0
  2  3  1  0
  3  4  2  0
  3  5  1  0
  5  6  1  0
  6  7  2  0
  7  8  1  0
  8  9  2  0
  9 10  1  0
 10 11  2  0
 10 12  1  0
 12 13  1  0
 13 14  1  6
 14 15  1  0
 16 15  1  1
 16 17  1  0
 17 18  1  6
 18 19  1  0
 19 20  1  1
 20 21  1  0
 20 22  1  0
 20 23  1  0
 19 24  1  0
  9 25  1  0
 25 26  2  0
 26  6  1  0
 16 12  1  0
 19 17  1  0
 24 13  1  0
M  END
>  <energy_score>  (753) 
-15.666149

>  <inchikey>  (753) 
None

>  <smiles>  (753) 
None

>  <ref_pdb>  (753) 
A3618a

>  <alias>  (753) 
None

>  <HIPPO Pose ID>  (753) 
499450

>  <name>  (753) 
P499450

>  <HIPPO Compound ID>  (753) 
302871

>  <ref_mols>  (753) 
A0310a,A3618a

>  <distance_score>  (753) 
1.736932

>  <inspiration_score>  (753) 
None

$$$$
P499452
     RDKit          3D

 18 21  0  0  0  0  0  0  0  0999 V2000
   10.3761   15.2832   20.9745 C   0  0  0  0  0  0  0  0  0  0  0  0
    9.8252   15.2736   22.3669 C   0  0  2  0  0  0  0  0  0  0  0  0
    8.4458   14.7134   22.5821 C   0  0  0  0  0  0  0  0  0  0  0  0
    7.6578   14.9658   21.7482 O   0  0  0  0  0  0  0  0  0  0  0  0
    8.2904   13.9391   23.8748 N   0  0  0  0  0  0  0  0  0  0  0  0
    7.0672   13.3532   24.5231 C   0  0  0  0  0  0  0  0  0  0  0  0
    6.7928   13.3478   26.0225 C   0  0  0  0  0  0  0  0  0  0  0  0
    6.1732   14.4003   25.1884 C   0  0  0  0  0  0  0  0  0  0  0  0
    8.5957   12.3342   23.6493 C   0  0  1  0  0  0  0  0  0  0  0  0
   10.1214   12.2224   23.2516 C   0  0  0  0  0  0  0  0  0  0  0  0
   10.7875   11.0024   23.7359 N   0  0  0  0  0  0  0  0  0  0  0  0
   10.0181    9.8102   23.3774 C   0  0  0  0  0  0  0  0  0  0  0  0
    8.7480    9.8013   24.1948 C   0  0  0  0  0  0  0  0  0  0  0  0
    8.4187   11.2147   24.7177 C   0  0  0  0  0  0  0  0  0  0  0  0
    9.5035   11.5215   25.7195 C   0  0  0  0  0  0  0  0  0  0  0  0
   10.8637   11.1049   25.1813 C   0  0  0  0  0  0  0  0  0  0  0  0
   10.2576   16.3797   23.2930 C   0  0  0  0  0  0  0  0  0  0  0  0
   10.8337   15.0909   23.3888 O   0  0  0  0  0  0  0  0  0  0  0  0
  2  1  1  6
  2  3  1  0
  3  4  2  0
  3  5  1  0
  5  6  1  0
  6  7  1  0
  7  8  1  0
  9  5  1  1
  9 10  1  0
 11 10  1  0
 11 12  1  0
 12 13  1  0
 13 14  1  0
 14 15  1  0
 15 16  1  0
  2 17  1  0
 17 18  1  0
 18  2  1  0
  8  6  1  0
 14  9  1  0
 16 11  1  0
M  END
>  <energy_score>  (754) 
-23.539419

>  <inchikey>  (754) 
None

>  <smiles>  (754) 
None

>  <ref_pdb>  (754) 
A4237b

>  <alias>  (754) 
None

>  <HIPPO Pose ID>  (754) 
499452

>  <name>  (754) 
P499452

>  <HIPPO Compound ID>  (754) 
303130

>  <ref_mols>  (754) 
A4237b,A3618a

>  <distance_score>  (754) 
1.599427

>  <inspiration_score>  (754) 
None

$$$$
P499453
     RDKit          3D

 19 21  0  0  0  0  0  0  0  0999 V2000
   11.0282   16.4459   23.0264 C   0  0  0  0  0  0  0  0  0  0  0  0
    9.6081   16.1071   23.4625 C   0  0  2  0  0  0  0  0  0  0  0  0
    9.7241   15.8094   24.8553 O   0  0  0  0  0  0  0  0  0  0  0  0
    9.0585   14.9880   22.5680 C   0  0  2  0  0  0  0  0  0  0  0  0
    8.7014   15.5745   21.2115 C   0  0  0  0  0  0  0  0  0  0  0  0
    7.8615   14.1362   23.0863 C   0  0  0  0  0  0  0  0  0  0  0  0
    7.0600   13.6832   22.3078 O   0  0  0  0  0  0  0  0  0  0  0  0
    7.8981   14.0876   24.5135 N   0  0  0  0  0  0  0  0  0  0  0  0
    6.8968   13.5563   25.5063 C   0  0  0  0  0  0  0  0  0  0  0  0
    6.9037   13.8499   26.9937 C   0  0  0  0  0  0  0  0  0  0  0  0
    6.0054   14.6374   26.1097 C   0  0  0  0  0  0  0  0  0  0  0  0
    8.7346   12.7693   25.0178 C   0  0  1  0  0  0  0  0  0  0  0  0
    8.1417   11.3436   24.7342 C   0  0  0  0  0  0  0  0  0  0  0  0
    9.1825   10.3113   24.5064 N   0  0  0  0  0  0  0  0  0  0  0  0
   10.2643   10.5378   25.4571 C   0  0  0  0  0  0  0  0  0  0  0  0
   11.0456   11.8402   25.2763 C   0  0  0  0  0  0  0  0  0  0  0  0
   10.1870   12.7197   24.3898 C   0  0  0  0  0  0  0  0  0  0  0  0
   10.1758   11.9794   23.0430 C   0  0  0  0  0  0  0  0  0  0  0  0
    9.8120   10.5031   23.2101 C   0  0  0  0  0  0  0  0  0  0  0  0
  2  1  1  6
  2  3  1  0
  2  4  1  0
  4  5  1  6
  4  6  1  0
  6  7  2  0
  6  8  1  0
  8  9  1  0
  9 10  1  0
 10 11  1  0
 12  8  1  6
 12 13  1  0
 14 13  1  0
 14 15  1  0
 15 16  1  0
 16 17  1  0
 17 18  1  0
 18 19  1  0
 11  9  1  0
 17 12  1  0
 19 14  1  0
M  END
>  <energy_score>  (755) 
-11.078851

>  <inchikey>  (755) 
None

>  <smiles>  (755) 
None

>  <ref_pdb>  (755) 
A4237b

>  <alias>  (755) 
None

>  <HIPPO Pose ID>  (755) 
499453

>  <name>  (755) 
P499453

>  <HIPPO Compound ID>  (755) 
303148

>  <ref_mols>  (755) 
A4237b,A3618a

>  <distance_score>  (755) 
1.87259

>  <inspiration_score>  (755) 
None

$$$$
P499454
     RDKit          3D

 19 21  0  0  0  0  0  0  0  0999 V2000
    6.6369   14.2077   22.8572 O   0  0  0  0  0  0  0  0  0  0  0  0
    7.2854   14.5640   23.8086 C   0  0  0  0  0  0  0  0  0  0  0  0
    8.1932   15.8360   23.6913 C   0  0  0  0  0  0  0  0  0  0  0  0
    9.1293   16.2187   24.8491 C   0  0  0  0  0  0  0  0  0  0  0  0
   11.0455   16.1200   24.5514 Br  0  0  0  0  0  0  0  0  0  0  0  0
    8.5219   16.2778   22.2665 C   0  0  0  0  0  0  0  0  0  0  0  0
    9.8038   15.2043   21.2961 Br  0  0  0  0  0  0  0  0  0  0  0  0
    7.3175   14.0652   25.1543 N   0  0  0  0  0  0  0  0  0  0  0  0
    6.4916   13.0376   25.8241 C   0  0  0  0  0  0  0  0  0  0  0  0
    6.4139   12.8433   27.3280 C   0  0  0  0  0  0  0  0  0  0  0  0
    5.3569   13.6372   26.6551 C   0  0  0  0  0  0  0  0  0  0  0  0
    8.4926   12.8592   25.3088 C   0  0  1  0  0  0  0  0  0  0  0  0
    8.2147   11.2839   25.2680 C   0  0  0  0  0  0  0  0  0  0  0  0
    9.4056   10.4879   24.8424 N   0  0  0  0  0  0  0  0  0  0  0  0
   10.6397   11.0772   25.3661 C   0  0  0  0  0  0  0  0  0  0  0  0
   10.9453   12.4878   24.8921 C   0  0  0  0  0  0  0  0  0  0  0  0
    9.6583   13.0055   24.2773 C   0  0  0  0  0  0  0  0  0  0  0  0
    9.4084   12.1236   23.0580 C   0  0  0  0  0  0  0  0  0  0  0  0
    9.5064   10.6329   23.3964 C   0  0  0  0  0  0  0  0  0  0  0  0
  1  2  2  0
  2  3  1  0
  3  4  1  0
  4  5  1  0
  3  6  1  0
  6  7  1  0
  2  8  1  0
  8  9  1  0
  9 10  1  0
 10 11  1  0
 12  8  1  6
 12 13  1  0
 14 13  1  0
 14 15  1  0
 15 16  1  0
 16 17  1  0
 17 18  1  0
 18 19  1  0
 11  9  1  0
 17 12  1  0
 19 14  1  0
M  END
>  <energy_score>  (756) 
-11.422114

>  <inchikey>  (756) 
None

>  <smiles>  (756) 
None

>  <ref_pdb>  (756) 
A4237b

>  <alias>  (756) 
None

>  <HIPPO Pose ID>  (756) 
499454

>  <name>  (756) 
P499454

>  <HIPPO Compound ID>  (756) 
303155

>  <ref_mols>  (756) 
A4237b,A3618a

>  <distance_score>  (756) 
1.78971

>  <inspiration_score>  (756) 
None

$$$$
P499455
     RDKit          3D

 23 25  0  0  0  0  0  0  0  0999 V2000
   10.5146    9.7886   24.5046 C   0  0  0  0  0  0  0  0  0  0  0  0
   10.6751   11.2322   24.6032 N   0  0  0  0  0  0  0  0  0  0  0  0
    9.6330   12.0599   24.0355 C   0  0  0  0  0  0  0  0  0  0  0  0
    9.2370   13.1528   25.0774 C   0  0  2  0  0  0  0  0  0  0  0  0
    8.0621   14.0749   24.6198 N   0  0  0  0  0  0  0  0  0  0  0  0
    7.9449   14.0461   23.1966 C   0  0  0  0  0  0  0  0  0  0  0  0
    7.2917   13.3359   22.4810 O   0  0  0  0  0  0  0  0  0  0  0  0
    8.7119   15.1756   22.5421 C   0  0  1  0  0  0  0  0  0  0  0  0
    9.7916   14.8796   21.5466 C   0  0  0  0  0  0  0  0  0  0  0  0
    8.0007   16.5128   22.4377 C   0  0  0  0  0  0  0  0  0  0  0  0
    9.0342   16.2925   23.3987 O   0  0  0  0  0  0  0  0  0  0  0  0
    7.2961   13.2796   25.7193 C   0  0  2  0  0  0  0  0  0  0  0  0
    7.0096   11.7612   25.5956 C   0  0  0  0  0  0  0  0  0  0  0  0
    6.0086   11.2518   26.6229 C   0  0  0  0  0  0  0  0  0  0  0  0
    4.7814   12.0893   26.8645 C   0  0  0  0  0  0  0  0  0  0  0  0
    3.7752   11.5840   27.3633 O   0  0  0  0  0  0  0  0  0  0  0  0
    4.9191   13.4481   26.6481 N   0  0  0  0  0  0  0  0  0  0  0  0
    3.7303   14.2588   26.8409 C   0  0  0  0  0  0  0  0  0  0  0  0
    5.8721   13.9366   25.6636 C   0  0  0  0  0  0  0  0  0  0  0  0
   10.5047   14.0376   25.3058 C   0  0  0  0  0  0  0  0  0  0  0  0
   11.8352   13.3648   24.9546 C   0  0  0  0  0  0  0  0  0  0  0  0
   11.8391   11.8481   25.0299 C   0  0  0  0  0  0  0  0  0  0  0  0
   12.8488   11.2249   25.3549 O   0  0  0  0  0  0  0  0  0  0  0  0
  1  2  1  0
  2  3  1  0
  3  4  1  0
  4  5  1  6
  5  6  1  0
  6  7  2  0
  6  8  1  0
  8  9  1  6
  8 10  1  0
 10 11  1  0
 12  5  1  6
 12 13  1  0
 13 14  1  0
 14 15  1  0
 15 16  2  0
 15 17  1  0
 17 18  1  0
 17 19  1  0
  4 20  1  0
 20 21  1  0
 21 22  1  0
 22 23  2  0
 22  2  1  0
 11  8  1  0
 19 12  1  0
M  END
>  <energy_score>  (757) 
-14.167994

>  <inchikey>  (757) 
None

>  <smiles>  (757) 
None

>  <ref_pdb>  (757) 
A4237b

>  <alias>  (757) 
None

>  <HIPPO Pose ID>  (757) 
499455

>  <name>  (757) 
P499455

>  <HIPPO Compound ID>  (757) 
303194

>  <ref_mols>  (757) 
A4237b,A3618a

>  <distance_score>  (757) 
1.693959

>  <inspiration_score>  (757) 
None

$$$$
P499457
     RDKit          3D

 23 25  0  0  0  0  0  0  0  0999 V2000
   10.4677    9.3479   24.2643 C   0  0  0  0  0  0  0  0  0  0  0  0
   10.5760   10.7579   24.6168 N   0  0  0  0  0  0  0  0  0  0  0  0
    9.5450   11.6259   24.0846 C   0  0  0  0  0  0  0  0  0  0  0  0
    9.2235   12.7484   25.1088 C   0  0  2  0  0  0  0  0  0  0  0  0
    8.0833   13.7199   24.7007 N   0  0  0  0  0  0  0  0  0  0  0  0
    7.9229   13.7144   23.2929 C   0  0  0  0  0  0  0  0  0  0  0  0
    7.2194   13.0443   22.5904 O   0  0  0  0  0  0  0  0  0  0  0  0
    8.7463   14.7684   22.6285 C   0  0  1  0  0  0  0  0  0  0  0  0
    8.0896   16.0714   22.2377 C   0  0  0  0  0  0  0  0  0  0  0  0
    9.1805   16.0664   23.2566 C   0  0  1  0  0  0  0  0  0  0  0  0
    8.8013   16.5512   24.8863 Cl  0  0  0  0  0  0  0  0  0  0  0  0
    7.3164   12.9443   25.8167 C   0  0  2  0  0  0  0  0  0  0  0  0
    6.9682   11.4424   25.6992 C   0  0  0  0  0  0  0  0  0  0  0  0
    5.9326   10.9595   26.7059 C   0  0  0  0  0  0  0  0  0  0  0  0
    4.7713   11.8689   27.0085 C   0  0  0  0  0  0  0  0  0  0  0  0
    3.7506   11.4155   27.5270 O   0  0  0  0  0  0  0  0  0  0  0  0
    4.9832   13.2208   26.8178 N   0  0  0  0  0  0  0  0  0  0  0  0
    3.8514   14.0961   27.0657 C   0  0  0  0  0  0  0  0  0  0  0  0
    5.9277   13.6725   25.8105 C   0  0  0  0  0  0  0  0  0  0  0  0
   10.5391   13.5819   25.1294 C   0  0  0  0  0  0  0  0  0  0  0  0
   11.7617   12.7601   25.5005 C   0  0  0  0  0  0  0  0  0  0  0  0
   11.7561   11.3037   25.0845 C   0  0  0  0  0  0  0  0  0  0  0  0
   12.7884   10.6361   25.2094 O   0  0  0  0  0  0  0  0  0  0  0  0
  1  2  1  0
  2  3  1  0
  3  4  1  0
  4  5  1  6
  5  6  1  0
  6  7  2  0
  8  6  1  1
  8  9  1  0
  9 10  1  0
 10 11  1  1
 12  5  1  6
 12 13  1  0
 13 14  1  0
 14 15  1  0
 15 16  2  0
 15 17  1  0
 17 18  1  0
 17 19  1  0
  4 20  1  0
 20 21  1  0
 21 22  1  0
 22 23  2  0
 22  2  1  0
 10  8  1  0
 19 12  1  0
M  END
>  <energy_score>  (758) 
-9.39887

>  <inchikey>  (758) 
None

>  <smiles>  (758) 
None

>  <ref_pdb>  (758) 
A4237b

>  <alias>  (758) 
None

>  <HIPPO Pose ID>  (758) 
499457

>  <name>  (758) 
P499457

>  <HIPPO Compound ID>  (758) 
303225

>  <ref_mols>  (758) 
A4237b,A3618a

>  <distance_score>  (758) 
1.745178

>  <inspiration_score>  (758) 
None

$$$$
P499458
     RDKit          3D

 24 26  0  0  0  0  0  0  0  0999 V2000
   10.4299    9.5607   24.3570 C   0  0  0  0  0  0  0  0  0  0  0  0
   10.4647   10.9753   24.7036 N   0  0  0  0  0  0  0  0  0  0  0  0
    9.4253   11.7934   24.1164 C   0  0  0  0  0  0  0  0  0  0  0  0
    9.0148   12.9448   25.0796 C   0  0  2  0  0  0  0  0  0  0  0  0
    7.8432   13.8323   24.5776 N   0  0  0  0  0  0  0  0  0  0  0  0
    7.8433   13.8793   23.1525 C   0  0  0  0  0  0  0  0  0  0  0  0
    7.2866   13.1828   22.3488 O   0  0  0  0  0  0  0  0  0  0  0  0
    8.6039   15.0801   22.6050 C   0  0  0  0  0  0  0  0  0  0  0  0
    9.4858   14.8206   21.4008 C   0  0  0  0  0  0  0  0  0  0  0  0
   10.5815   13.9908   21.7639 O   0  0  0  0  0  0  0  0  0  0  0  0
    7.8411   16.4004   22.5841 C   0  0  0  0  0  0  0  0  0  0  0  0
    9.0025   16.2369   23.5085 C   0  0  0  0  0  0  0  0  0  0  0  0
    7.0385   12.9499   25.5549 C   0  0  1  0  0  0  0  0  0  0  0  0
    6.9486   11.4021   25.6990 C   0  0  0  0  0  0  0  0  0  0  0  0
    5.8933   10.9343   26.7068 C   0  0  0  0  0  0  0  0  0  0  0  0
    4.9142   11.9729   27.2060 C   0  0  0  0  0  0  0  0  0  0  0  0
    3.7599   11.6593   27.4918 O   0  0  0  0  0  0  0  0  0  0  0  0
    5.4362   13.2399   27.4137 N   0  0  0  0  0  0  0  0  0  0  0  0
    4.5675   14.2907   27.9072 C   0  0  0  0  0  0  0  0  0  0  0  0
    6.7592   13.6214   26.9182 C   0  0  0  0  0  0  0  0  0  0  0  0
   10.3032   13.8215   25.1397 C   0  0  0  0  0  0  0  0  0  0  0  0
   11.5590   13.0485   25.5248 C   0  0  0  0  0  0  0  0  0  0  0  0
   11.6386   11.5928   25.0991 C   0  0  0  0  0  0  0  0  0  0  0  0
   12.7074   10.9835   25.1990 O   0  0  0  0  0  0  0  0  0  0  0  0
  1  2  1  0
  2  3  1  0
  3  4  1  0
  4  5  1  6
  5  6  1  0
  6  7  2  0
  6  8  1  0
  8  9  1  0
  9 10  1  0
  8 11  1  0
 11 12  1  0
 13  5  1  1
 13 14  1  0
 14 15  1  0
 15 16  1  0
 16 17  2  0
 16 18  1  0
 18 19  1  0
 18 20  1  0
  4 21  1  0
 21 22  1  0
 22 23  1  0
 23 24  2  0
 23  2  1  0
 12  8  1  0
 20 13  1  0
M  END
>  <energy_score>  (759) 
-8.451558

>  <inchikey>  (759) 
None

>  <smiles>  (759) 
None

>  <ref_pdb>  (759) 
A4237b

>  <alias>  (759) 
None

>  <HIPPO Pose ID>  (759) 
499458

>  <name>  (759) 
P499458

>  <HIPPO Compound ID>  (759) 
303348

>  <ref_mols>  (759) 
A4237b,A3618a

>  <distance_score>  (759) 
1.940501

>  <inspiration_score>  (759) 
None

$$$$
P499459
     RDKit          3D

 24 26  0  0  0  0  0  0  0  0999 V2000
   10.3196   10.2029   24.5518 C   0  0  0  0  0  0  0  0  0  0  0  0
   10.3048   11.6292   24.8511 N   0  0  0  0  0  0  0  0  0  0  0  0
    9.3851   12.4187   24.0575 C   0  0  0  0  0  0  0  0  0  0  0  0
    8.9575   13.7655   24.7442 C   0  0  1  0  0  0  0  0  0  0  0  0
    7.7125   14.4657   24.2442 N   0  0  0  0  0  0  0  0  0  0  0  0
    7.5573   14.2392   22.8488 C   0  0  0  0  0  0  0  0  0  0  0  0
    6.9680   13.3772   22.2589 O   0  0  0  0  0  0  0  0  0  0  0  0
    8.2858   15.3014   22.0716 C   0  0  2  0  0  0  0  0  0  0  0  0
    9.0604   14.9396   20.8258 C   0  0  0  0  0  0  0  0  0  0  0  0
    9.8106   15.3352   22.0373 C   0  0  1  0  0  0  0  0  0  0  0  0
   10.5586   16.6018   22.1093 C   0  0  0  0  0  0  0  0  0  0  0  0
   12.3601   16.2189   21.5220 Br  0  0  0  0  0  0  0  0  0  0  0  0
    7.0710   13.7394   25.4764 C   0  0  2  0  0  0  0  0  0  0  0  0
    7.0182   12.2065   25.6869 C   0  0  0  0  0  0  0  0  0  0  0  0
    6.1460   11.8032   26.8631 C   0  0  0  0  0  0  0  0  0  0  0  0
    4.7580   12.3752   26.8608 C   0  0  0  0  0  0  0  0  0  0  0  0
    3.8305   11.7622   27.3878 O   0  0  0  0  0  0  0  0  0  0  0  0
    4.6520   13.6704   26.3826 N   0  0  0  0  0  0  0  0  0  0  0  0
    3.3190   14.2451   26.3756 C   0  0  0  0  0  0  0  0  0  0  0  0
    5.5557   14.1524   25.3435 C   0  0  0  0  0  0  0  0  0  0  0  0
    9.7426   14.1472   26.0088 C   0  0  0  0  0  0  0  0  0  0  0  0
   11.2100   13.7162   25.8268 C   0  0  0  0  0  0  0  0  0  0  0  0
   11.4087   12.2624   25.3997 C   0  0  0  0  0  0  0  0  0  0  0  0
   12.4975   11.7076   25.5456 O   0  0  0  0  0  0  0  0  0  0  0  0
  1  2  1  0
  2  3  1  0
  3  4  1  0
  4  5  1  1
  5  6  1  0
  6  7  2  0
  8  6  1  1
  8  9  1  0
  9 10  1  0
 10 11  1  6
 11 12  1  0
 13  5  1  6
 13 14  1  0
 14 15  1  0
 15 16  1  0
 16 17  2  0
 16 18  1  0
 18 19  1  0
 18 20  1  0
  4 21  1  0
 21 22  1  0
 22 23  1  0
 23 24  2  0
 23  2  1  0
 10  8  1  0
 20 13  1  0
M  END
>  <energy_score>  (760) 
-5.966246

>  <inchikey>  (760) 
None

>  <smiles>  (760) 
None

>  <ref_pdb>  (760) 
A4237b

>  <alias>  (760) 
None

>  <HIPPO Pose ID>  (760) 
499459

>  <name>  (760) 
P499459

>  <HIPPO Compound ID>  (760) 
303353

>  <ref_mols>  (760) 
A4237b,A3618a

>  <distance_score>  (760) 
1.965273

>  <inspiration_score>  (760) 
None

$$$$
P499460
     RDKit          3D

 24 26  0  0  0  0  0  0  0  0999 V2000
   10.6275    9.6144   24.5531 C   0  0  0  0  0  0  0  0  0  0  0  0
   10.7518   11.0584   24.6758 N   0  0  0  0  0  0  0  0  0  0  0  0
    9.7099   11.8582   24.0741 C   0  0  0  0  0  0  0  0  0  0  0  0
    9.3126   13.0057   25.0520 C   0  0  2  0  0  0  0  0  0  0  0  0
    8.2229   13.9739   24.4850 N   0  0  0  0  0  0  0  0  0  0  0  0
    8.1001   13.8002   23.0786 C   0  0  0  0  0  0  0  0  0  0  0  0
    7.3848   13.0785   22.4418 O   0  0  0  0  0  0  0  0  0  0  0  0
    9.1003   14.5789   22.2817 C   0  0  1  0  0  0  0  0  0  0  0  0
    8.6810   15.8798   21.6455 C   0  0  0  0  0  0  0  0  0  0  0  0
    9.7532   15.8740   22.6934 C   0  0  2  0  0  0  0  0  0  0  0  0
   11.1701   16.1343   22.3000 C   0  0  0  0  0  0  0  0  0  0  0  0
   11.9634   15.8084   23.3539 F   0  0  0  0  0  0  0  0  0  0  0  0
    7.3886   13.3732   25.6627 C   0  0  2  0  0  0  0  0  0  0  0  0
    6.9872   11.8655   25.6302 C   0  0  0  0  0  0  0  0  0  0  0  0
    5.9796   11.4987   26.7033 C   0  0  0  0  0  0  0  0  0  0  0  0
    4.7766   12.3936   26.8056 C   0  0  0  0  0  0  0  0  0  0  0  0
    3.7178   11.9594   27.2589 O   0  0  0  0  0  0  0  0  0  0  0  0
    4.9992   13.7325   26.5207 N   0  0  0  0  0  0  0  0  0  0  0  0
    3.8408   14.6025   26.6079 C   0  0  0  0  0  0  0  0  0  0  0  0
    6.0134   14.1178   25.5449 C   0  0  0  0  0  0  0  0  0  0  0  0
   10.5903   13.8456   25.3715 C   0  0  0  0  0  0  0  0  0  0  0  0
   11.8993   13.2084   24.9137 C   0  0  0  0  0  0  0  0  0  0  0  0
   11.9234   11.6990   25.0554 C   0  0  0  0  0  0  0  0  0  0  0  0
   12.9462   11.0955   25.3757 O   0  0  0  0  0  0  0  0  0  0  0  0
  1  2  1  0
  2  3  1  0
  3  4  1  0
  4  5  1  6
  5  6  1  0
  6  7  2  0
  8  6  1  1
  8  9  1  0
  9 10  1  0
 10 11  1  6
 11 12  1  0
 13  5  1  6
 13 14  1  0
 14 15  1  0
 15 16  1  0
 16 17  2  0
 16 18  1  0
 18 19  1  0
 18 20  1  0
  4 21  1  0
 21 22  1  0
 22 23  1  0
 23 24  2  0
 23  2  1  0
 10  8  1  0
 20 13  1  0
M  END
>  <energy_score>  (761) 
-8.937834

>  <inchikey>  (761) 
None

>  <smiles>  (761) 
None

>  <ref_pdb>  (761) 
A4237b

>  <alias>  (761) 
None

>  <HIPPO Pose ID>  (761) 
499460

>  <name>  (761) 
P499460

>  <HIPPO Compound ID>  (761) 
303369

>  <ref_mols>  (761) 
A4237b,A3618a

>  <distance_score>  (761) 
1.750355

>  <inspiration_score>  (761) 
None

$$$$
P499461
     RDKit          3D

 25 26  0  0  0  0  0  0  0  0999 V2000
   10.7384   11.9263   25.5517 C   0  0  0  0  0  0  0  0  0  0  0  0
    9.7981   12.1998   24.3901 C   0  0  1  0  0  0  0  0  0  0  0  0
    9.6484   11.0137   23.3906 C   0  0  0  0  0  0  0  0  0  0  0  0
   10.1193    9.7793   23.9202 O   0  0  0  0  0  0  0  0  0  0  0  0
    8.8222   13.4110   24.3848 N   0  0  0  0  0  0  0  0  0  0  0  0
    8.4301   13.7138   23.0446 C   0  0  0  0  0  0  0  0  0  0  0  0
    7.4968   13.3212   22.3962 O   0  0  0  0  0  0  0  0  0  0  0  0
    9.4814   14.6865   22.4442 C   0  0  0  0  0  0  0  0  0  0  0  0
    9.8247   15.8345   23.3947 C   0  0  0  0  0  0  0  0  0  0  0  0
   11.4641   15.4704   24.3905 Br  0  0  0  0  0  0  0  0  0  0  0  0
    8.9600   15.2735   21.1425 C   0  0  0  0  0  0  0  0  0  0  0  0
   10.4556   15.7881   19.9884 Br  0  0  0  0  0  0  0  0  0  0  0  0
    8.1036   12.5624   25.4976 C   0  0  2  0  0  0  0  0  0  0  0  0
    7.4080   11.2113   25.2362 C   0  0  0  0  0  0  0  0  0  0  0  0
    6.3685   10.7744   26.2693 C   0  0  0  0  0  0  0  0  0  0  0  0
    5.3909   11.8479   26.6861 C   0  0  0  0  0  0  0  0  0  0  0  0
    6.0945   13.0767   27.0441 N   0  0  0  0  0  0  0  0  0  0  0  0
    5.1587   14.1079   27.5473 C   0  0  0  0  0  0  0  0  0  0  0  0
    3.8099   14.2369   26.8603 C   0  0  0  0  0  0  0  0  0  0  0  0
    2.6577   13.6943   27.4585 C   0  0  0  0  0  0  0  0  0  0  0  0
    1.4188   13.7620   26.8174 C   0  0  0  0  0  0  0  0  0  0  0  0
    1.3157   14.3698   25.5692 C   0  0  0  0  0  0  0  0  0  0  0  0
    2.4467   14.9194   24.9685 C   0  0  0  0  0  0  0  0  0  0  0  0
    3.6847   14.8631   25.6131 C   0  0  0  0  0  0  0  0  0  0  0  0
    6.9080   13.5452   25.9098 C   0  0  0  0  0  0  0  0  0  0  0  0
  2  1  1  1
  2  3  1  0
  3  4  1  0
  2  5  1  0
  5  6  1  0
  6  7  2  0
  6  8  1  0
  8  9  1  0
  9 10  1  0
  8 11  1  0
 11 12  1  0
 13  5  1  6
 13 14  1  0
 14 15  1  0
 15 16  1  0
 16 17  1  0
 17 18  1  0
 18 19  1  0
 19 20  2  0
 20 21  1  0
 21 22  2  0
 22 23  1  0
 23 24  2  0
 17 25  1  0
 25 13  1  0
 24 19  1  0
M  END
>  <energy_score>  (762) 
-34.241184

>  <inchikey>  (762) 
None

>  <smiles>  (762) 
None

>  <ref_pdb>  (762) 
A4237b

>  <alias>  (762) 
None

>  <HIPPO Pose ID>  (762) 
499461

>  <name>  (762) 
P499461

>  <HIPPO Compound ID>  (762) 
303434

>  <ref_mols>  (762) 
A4237b,A3618a

>  <distance_score>  (762) 
1.630928

>  <inspiration_score>  (762) 
None

$$$$
P499462
     RDKit          3D

 24 25  0  0  0  0  0  0  0  0999 V2000
    5.7769   14.5843   25.6569 C   0  0  0  0  0  0  0  0  0  0  0  0
    6.6511   13.6629   24.8165 C   0  0  1  0  0  0  0  0  0  0  0  0
    6.9903   14.1713   23.3635 C   0  0  0  0  0  0  0  0  0  0  0  0
    7.8298   15.4652   23.1757 C   0  0  0  0  0  0  0  0  0  0  0  0
    7.5984   16.4272   23.8016 O   0  0  0  0  0  0  0  0  0  0  0  0
    8.9473   15.1919   22.1116 N   0  0  0  0  0  0  0  0  0  0  0  0
    9.9549   16.0946   21.5319 C   0  0  0  0  0  0  0  0  0  0  0  0
   11.2404   15.4050   20.9461 C   0  0  0  0  0  0  0  0  0  0  0  0
   10.8286   14.7698   19.6165 C   0  0  0  0  0  0  0  0  0  0  0  0
   11.7294   14.2968   21.8766 C   0  0  0  0  0  0  0  0  0  0  0  0
   12.4445   16.3787   20.7707 C   0  0  0  0  0  0  0  0  0  0  0  0
   12.5958   17.0439   19.4211 C   0  0  0  0  0  0  0  0  0  0  0  0
   13.6444   17.9001   19.4420 F   0  0  0  0  0  0  0  0  0  0  0  0
   11.4974   17.7759   19.1303 F   0  0  0  0  0  0  0  0  0  0  0  0
   12.8426   16.1533   18.4450 F   0  0  0  0  0  0  0  0  0  0  0  0
    7.8024   13.2155   25.6358 N   0  0  0  0  0  0  0  0  0  0  0  0
    8.8776   14.2085   25.8835 C   0  0  0  0  0  0  0  0  0  0  0  0
   10.1048   13.8270   25.0459 C   0  0  0  0  0  0  0  0  0  0  0  0
    9.7120   12.4880   24.5334 C   0  0  0  0  0  0  0  0  0  0  0  0
   10.3661   11.6602   23.6548 C   0  0  0  0  0  0  0  0  0  0  0  0
    9.7728   10.4459   23.2857 C   0  0  0  0  0  0  0  0  0  0  0  0
    8.5597   10.0458   23.8343 C   0  0  0  0  0  0  0  0  0  0  0  0
    7.8854   10.9066   24.6872 C   0  0  0  0  0  0  0  0  0  0  0  0
    8.4531   12.1406   24.9861 C   0  0  0  0  0  0  0  0  0  0  0  0
  2  1  1  1
  2  3  1  0
  3  4  1  0
  4  5  2  0
  4  6  1  0
  6  7  1  0
  7  8  1  0
  8  9  1  0
  8 10  1  0
  8 11  1  0
 11 12  1  0
 12 13  1  0
 12 14  1  0
 12 15  1  0
  2 16  1  0
 16 17  1  0
 17 18  1  0
 18 19  1  0
 19 20  2  0
 20 21  1  0
 21 22  2  0
 22 23  1  0
 23 24  2  0
 24 16  1  0
 24 19  1  0
M  END
>  <energy_score>  (763) 
-15.951351

>  <inchikey>  (763) 
None

>  <smiles>  (763) 
None

>  <ref_pdb>  (763) 
A3371a

>  <alias>  (763) 
None

>  <HIPPO Pose ID>  (763) 
499462

>  <name>  (763) 
P499462

>  <HIPPO Compound ID>  (763) 
305667

>  <ref_mols>  (763) 
A1778a,A3371a

>  <distance_score>  (763) 
1.7514

>  <inspiration_score>  (763) 
None

$$$$
P499465
     RDKit          3D

 25 27  0  0  0  0  0  0  0  0999 V2000
    5.8045   14.4134   25.4587 C   0  0  0  0  0  0  0  0  0  0  0  0
    6.7997   13.5806   24.6615 C   0  0  1  0  0  0  0  0  0  0  0  0
    7.2303   14.1366   23.2305 C   0  0  0  0  0  0  0  0  0  0  0  0
    7.8343   15.5613   23.0870 C   0  0  0  0  0  0  0  0  0  0  0  0
    7.4267   16.4299   23.7616 O   0  0  0  0  0  0  0  0  0  0  0  0
    8.9115   15.5828   21.9395 N   0  0  0  0  0  0  0  0  0  0  0  0
    9.6262   16.6991   21.3361 C   0  0  0  0  0  0  0  0  0  0  0  0
   10.6939   16.4575   20.2873 C   0  0  2  0  0  0  0  0  0  0  0  0
   11.9522   15.5937   20.2856 C   0  0  2  0  0  0  0  0  0  0  0  0
   12.4271   14.6516   21.3147 C   0  0  0  0  0  0  0  0  0  0  0  0
   11.6242   14.7199   22.4609 O   0  0  0  0  0  0  0  0  0  0  0  0
   12.0962   17.0687   20.5581 C   0  0  1  0  0  0  0  0  0  0  0  0
   12.8437   17.9499   19.6211 C   0  0  0  0  0  0  0  0  0  0  0  0
   12.0199   18.9129   19.1431 F   0  0  0  0  0  0  0  0  0  0  0  0
   13.3819   17.2740   18.5883 F   0  0  0  0  0  0  0  0  0  0  0  0
   13.8617   18.5881   20.2564 F   0  0  0  0  0  0  0  0  0  0  0  0
    7.8993   13.1736   25.5815 N   0  0  0  0  0  0  0  0  0  0  0  0
    8.9355   14.2023   25.8350 C   0  0  0  0  0  0  0  0  0  0  0  0
   10.1370   13.9114   24.9318 C   0  0  0  0  0  0  0  0  0  0  0  0
    9.8103   12.5573   24.4127 C   0  0  0  0  0  0  0  0  0  0  0  0
   10.4014   11.8261   23.4126 C   0  0  0  0  0  0  0  0  0  0  0  0
    9.8336   10.5914   23.0588 C   0  0  0  0  0  0  0  0  0  0  0  0
    8.7288   10.0729   23.7292 C   0  0  0  0  0  0  0  0  0  0  0  0
    8.0917   10.8566   24.6752 C   0  0  0  0  0  0  0  0  0  0  0  0
    8.6113   12.1174   24.9491 C   0  0  0  0  0  0  0  0  0  0  0  0
  2  1  1  1
  2  3  1  0
  3  4  1  0
  4  5  2  0
  4  6  1  0
  6  7  1  0
  8  7  1  1
  8  9  1  0
  9 10  1  1
 10 11  1  0
  9 12  1  0
 12 13  1  6
 13 14  1  0
 13 15  1  0
 13 16  1  0
  2 17  1  0
 17 18  1  0
 18 19  1  0
 19 20  1  0
 20 21  2  0
 21 22  1  0
 22 23  2  0
 23 24  1  0
 24 25  2  0
 12  8  1  0
 25 17  1  0
 25 20  1  0
M  END
>  <energy_score>  (764) 
-2.77551

>  <inchikey>  (764) 
None

>  <smiles>  (764) 
None

>  <ref_pdb>  (764) 
A3371a

>  <alias>  (764) 
None

>  <HIPPO Pose ID>  (764) 
499465

>  <name>  (764) 
P499465

>  <HIPPO Compound ID>  (764) 
305671

>  <ref_mols>  (764) 
A1778a,A3371a

>  <distance_score>  (764) 
1.857064

>  <inspiration_score>  (764) 
None

$$$$
P499467
     RDKit          3D

 25 27  0  0  0  0  0  0  0  0999 V2000
    5.9168   14.3859   25.7122 C   0  0  0  0  0  0  0  0  0  0  0  0
    6.8127   13.5314   24.8233 C   0  0  1  0  0  0  0  0  0  0  0  0
    7.0819   14.0769   23.3646 C   0  0  0  0  0  0  0  0  0  0  0  0
    7.7205   15.4763   23.1790 C   0  0  0  0  0  0  0  0  0  0  0  0
    7.3217   16.3851   23.8009 O   0  0  0  0  0  0  0  0  0  0  0  0
    8.8250   15.4139   22.0671 N   0  0  0  0  0  0  0  0  0  0  0  0
    9.5933   16.4847   21.4316 C   0  0  0  0  0  0  0  0  0  0  0  0
   10.9572   16.1508   20.8111 C   0  0  1  0  0  0  0  0  0  0  0  0
   11.7770   15.2476   21.5639 C   0  0  0  0  0  0  0  0  0  0  0  0
   12.3479   14.4798   22.2139 N   0  0  0  0  0  0  0  0  0  0  0  0
   11.0414   16.0859   19.3007 C   0  0  0  0  0  0  0  0  0  0  0  0
   11.6388   17.2819   20.0081 C   0  0  2  0  0  0  0  0  0  0  0  0
   13.0858   17.5751   19.7955 C   0  0  0  0  0  0  0  0  0  0  0  0
   13.6321   18.2292   20.8440 F   0  0  0  0  0  0  0  0  0  0  0  0
   13.2161   18.4102   18.7330 F   0  0  0  0  0  0  0  0  0  0  0  0
   13.8085   16.4743   19.5369 F   0  0  0  0  0  0  0  0  0  0  0  0
    8.0234   13.1432   25.5972 N   0  0  0  0  0  0  0  0  0  0  0  0
    9.0794   14.1805   25.7434 C   0  0  0  0  0  0  0  0  0  0  0  0
   10.2379   13.8549   24.7908 C   0  0  0  0  0  0  0  0  0  0  0  0
    9.8372   12.5198   24.2816 C   0  0  0  0  0  0  0  0  0  0  0  0
   10.3722   11.7758   23.2617 C   0  0  0  0  0  0  0  0  0  0  0  0
    9.7959   10.5325   22.9629 C   0  0  0  0  0  0  0  0  0  0  0  0
    8.7230   10.0307   23.6946 C   0  0  0  0  0  0  0  0  0  0  0  0
    8.1348   10.8309   24.6599 C   0  0  0  0  0  0  0  0  0  0  0  0
    8.6722   12.0917   24.8962 C   0  0  0  0  0  0  0  0  0  0  0  0
  2  1  1  1
  2  3  1  0
  3  4  1  0
  4  5  2  0
  4  6  1  0
  6  7  1  0
  8  7  1  6
  8  9  1  0
  9 10  3  0
  8 11  1  0
 11 12  1  0
 12 13  1  1
 13 14  1  0
 13 15  1  0
 13 16  1  0
  2 17  1  0
 17 18  1  0
 18 19  1  0
 19 20  1  0
 20 21  2  0
 21 22  1  0
 22 23  2  0
 23 24  1  0
 24 25  2  0
 12  8  1  0
 25 17  1  0
 25 20  1  0
M  END
>  <energy_score>  (765) 
-10.170384

>  <inchikey>  (765) 
None

>  <smiles>  (765) 
None

>  <ref_pdb>  (765) 
A3371a

>  <alias>  (765) 
None

>  <HIPPO Pose ID>  (765) 
499467

>  <name>  (765) 
P499467

>  <HIPPO Compound ID>  (765) 
305672

>  <ref_mols>  (765) 
A1778a,A3371a

>  <distance_score>  (765) 
1.914881

>  <inspiration_score>  (765) 
None

$$$$
P499468
     RDKit          3D

 25 27  0  0  0  0  0  0  0  0999 V2000
    5.7296   13.1804   25.6211 C   0  0  0  0  0  0  0  0  0  0  0  0
    6.9663   13.9375   25.1322 C   0  0  2  0  0  0  0  0  0  0  0  0
    7.0591   14.1720   23.5773 C   0  0  0  0  0  0  0  0  0  0  0  0
    7.7029   15.5398   23.2280 C   0  0  0  0  0  0  0  0  0  0  0  0
    7.2947   16.5028   23.7544 O   0  0  0  0  0  0  0  0  0  0  0  0
    8.8322   15.3716   22.1618 N   0  0  0  0  0  0  0  0  0  0  0  0
    9.6229   16.3713   21.4573 C   0  0  0  0  0  0  0  0  0  0  0  0
   10.9503   16.0123   20.7713 C   0  0  1  0  0  0  0  0  0  0  0  0
   11.6391   14.7431   21.1735 C   0  0  0  0  0  0  0  0  0  0  0  0
   12.1946   14.8899   22.4590 O   0  0  0  0  0  0  0  0  0  0  0  0
   11.0689   16.3933   19.3102 C   0  0  0  0  0  0  0  0  0  0  0  0
   11.8210   17.2238   20.3199 C   0  0  2  0  0  0  0  0  0  0  0  0
   13.3127   17.2820   20.2663 C   0  0  0  0  0  0  0  0  0  0  0  0
   13.7984   16.6592   19.1713 F   0  0  0  0  0  0  0  0  0  0  0  0
   13.7489   18.5686   20.2198 F   0  0  0  0  0  0  0  0  0  0  0  0
   13.8553   16.7034   21.3611 F   0  0  0  0  0  0  0  0  0  0  0  0
    8.1864   13.3434   25.7468 N   0  0  0  0  0  0  0  0  0  0  0  0
    9.3126   14.3120   25.8668 C   0  0  0  0  0  0  0  0  0  0  0  0
   10.3827   13.9654   24.8320 C   0  0  0  0  0  0  0  0  0  0  0  0
    9.9062   12.6499   24.3405 C   0  0  0  0  0  0  0  0  0  0  0  0
   10.4168   11.8741   23.3281 C   0  0  0  0  0  0  0  0  0  0  0  0
    9.7909   10.6574   23.0364 C   0  0  0  0  0  0  0  0  0  0  0  0
    8.6993   10.2139   23.7776 C   0  0  0  0  0  0  0  0  0  0  0  0
    8.1534   11.0420   24.7506 C   0  0  0  0  0  0  0  0  0  0  0  0
    8.7305   12.2844   24.9802 C   0  0  0  0  0  0  0  0  0  0  0  0
  2  1  1  6
  2  3  1  0
  3  4  1  0
  4  5  2  0
  4  6  1  0
  6  7  1  0
  8  7  1  1
  8  9  1  0
  9 10  1  0
  8 11  1  0
 11 12  1  0
 12 13  1  6
 13 14  1  0
 13 15  1  0
 13 16  1  0
  2 17  1  0
 17 18  1  0
 18 19  1  0
 19 20  1  0
 20 21  2  0
 21 22  1  0
 22 23  2  0
 23 24  1  0
 24 25  2  0
 12  8  1  0
 25 17  1  0
 25 20  1  0
M  END
>  <energy_score>  (766) 
-14.298677

>  <inchikey>  (766) 
None

>  <smiles>  (766) 
None

>  <ref_pdb>  (766) 
A3371a

>  <alias>  (766) 
None

>  <HIPPO Pose ID>  (766) 
499468

>  <name>  (766) 
P499468

>  <HIPPO Compound ID>  (766) 
305674

>  <ref_mols>  (766) 
A1778a,A3371a

>  <distance_score>  (766) 
1.930104

>  <inspiration_score>  (766) 
None

$$$$
P499469
     RDKit          3D

 26 28  0  0  0  0  0  0  0  0999 V2000
    6.0930   15.1513   24.9398 C   0  0  0  0  0  0  0  0  0  0  0  0
    7.0319   14.2164   24.1969 C   0  0  1  0  0  0  0  0  0  0  0  0
    7.7818   14.8026   22.8952 C   0  0  0  0  0  0  0  0  0  0  0  0
    8.6320   16.1233   22.9192 C   0  0  0  0  0  0  0  0  0  0  0  0
    8.5481   16.8654   23.8259 O   0  0  0  0  0  0  0  0  0  0  0  0
    9.5766   16.1615   21.6481 N   0  0  0  0  0  0  0  0  0  0  0  0
   10.6823   17.0881   21.2985 C   0  0  2  0  0  0  0  0  0  0  0  0
   10.4998   18.0886   20.1439 C   0  0  0  0  0  0  0  0  0  0  0  0
   11.8238   18.8544   19.9222 C   0  0  0  0  0  0  0  0  0  0  0  0
   12.9193   17.9533   19.3555 C   0  0  0  0  0  0  0  0  0  0  0  0
   12.7271   16.5107   19.8041 C   0  0  0  0  0  0  0  0  0  0  0  0
   12.1332   16.4891   21.2234 C   0  0  2  0  0  0  0  0  0  0  0  0
   12.2981   15.1571   21.8975 C   0  0  0  0  0  0  0  0  0  0  0  0
   11.7707   14.0173   21.0961 C   0  0  0  0  0  0  0  0  0  0  0  0
   11.7389   12.9545   21.9185 F   0  0  0  0  0  0  0  0  0  0  0  0
   12.5828   13.7302   20.0568 F   0  0  0  0  0  0  0  0  0  0  0  0
   10.5224   14.2174   20.6282 F   0  0  0  0  0  0  0  0  0  0  0  0
    7.8447   13.5741   25.2516 N   0  0  0  0  0  0  0  0  0  0  0  0
    8.9921   14.3560   25.7599 C   0  0  0  0  0  0  0  0  0  0  0  0
   10.2361   13.8860   25.0098 C   0  0  0  0  0  0  0  0  0  0  0  0
    9.7751   12.5566   24.5381 C   0  0  0  0  0  0  0  0  0  0  0  0
   10.4565   11.6028   23.8436 C   0  0  0  0  0  0  0  0  0  0  0  0
    9.8069   10.4183   23.4717 C   0  0  0  0  0  0  0  0  0  0  0  0
    8.4752   10.2053   23.8070 C   0  0  0  0  0  0  0  0  0  0  0  0
    7.7701   11.2127   24.4494 C   0  0  0  0  0  0  0  0  0  0  0  0
    8.4291   12.3897   24.7711 C   0  0  0  0  0  0  0  0  0  0  0  0
  2  1  1  1
  2  3  1  0
  3  4  1  0
  4  5  2  0
  4  6  1  0
  7  6  1  6
  7  8  1  0
  8  9  1  0
  9 10  1  0
 10 11  1  0
 11 12  1  0
 12 13  1  6
 13 14  1  0
 14 15  1  0
 14 16  1  0
 14 17  1  0
  2 18  1  0
 18 19  1  0
 19 20  1  0
 20 21  1  0
 21 22  2  0
 22 23  1  0
 23 24  2  0
 24 25  1  0
 25 26  2  0
 12  7  1  0
 26 18  1  0
 26 21  1  0
M  END
>  <energy_score>  (767) 
-8.761874

>  <inchikey>  (767) 
None

>  <smiles>  (767) 
None

>  <ref_pdb>  (767) 
A3371a

>  <alias>  (767) 
None

>  <HIPPO Pose ID>  (767) 
499469

>  <name>  (767) 
P499469

>  <HIPPO Compound ID>  (767) 
305675

>  <ref_mols>  (767) 
A1778a,A3371a

>  <distance_score>  (767) 
1.941174

>  <inspiration_score>  (767) 
None

$$$$
P499470
     RDKit          3D

 27 29  0  0  0  0  0  0  0  0999 V2000
   12.8210   14.3239   22.9514 C   0  0  0  0  0  0  0  0  0  0  0  0
   11.6823   15.0192   22.4758 O   0  0  0  0  0  0  0  0  0  0  0  0
   11.5890   14.9490   21.1278 C   0  0  0  0  0  0  0  0  0  0  0  0
   12.2200   14.2079   20.3916 O   0  0  0  0  0  0  0  0  0  0  0  0
   10.6684   15.9911   20.6078 C   0  0  2  0  0  0  0  0  0  0  0  0
    9.1526   15.8282   20.7781 C   0  0  0  0  0  0  0  0  0  0  0  0
    8.5146   15.5146   22.0538 N   0  0  0  0  0  0  0  0  0  0  0  0
    7.4499   14.4135   22.4198 C   0  0  0  0  0  0  0  0  0  0  0  0
    6.9918   13.5514   21.7656 O   0  0  0  0  0  0  0  0  0  0  0  0
    6.9111   14.6526   23.8648 C   0  0  0  0  0  0  0  0  0  0  0  0
    6.7710   13.3606   24.7480 C   0  0  2  0  0  0  0  0  0  0  0  0
    5.5688   13.3639   25.6902 C   0  0  0  0  0  0  0  0  0  0  0  0
    7.9369   13.0452   25.6289 N   0  0  0  0  0  0  0  0  0  0  0  0
    8.9699   14.0865   25.8089 C   0  0  0  0  0  0  0  0  0  0  0  0
   10.0524   13.8722   24.7534 C   0  0  0  0  0  0  0  0  0  0  0  0
    9.7540   12.4970   24.2801 C   0  0  0  0  0  0  0  0  0  0  0  0
   10.2840   11.7671   23.2452 C   0  0  0  0  0  0  0  0  0  0  0  0
    9.7717   10.4864   22.9883 C   0  0  0  0  0  0  0  0  0  0  0  0
    8.7602    9.9341   23.7695 C   0  0  0  0  0  0  0  0  0  0  0  0
    8.1672   10.7130   24.7489 C   0  0  0  0  0  0  0  0  0  0  0  0
    8.6439   12.0062   24.9444 C   0  0  0  0  0  0  0  0  0  0  0  0
   10.9478   16.4657   19.1830 C   0  0  0  0  0  0  0  0  0  0  0  0
   11.4119   17.3511   20.2948 C   0  0  2  0  0  0  0  0  0  0  0  0
   12.9026   17.5777   20.3793 C   0  0  0  0  0  0  0  0  0  0  0  0
   13.5799   16.9557   19.3893 F   0  0  0  0  0  0  0  0  0  0  0  0
   13.3959   17.1529   21.5595 F   0  0  0  0  0  0  0  0  0  0  0  0
   13.1961   18.9025   20.2732 F   0  0  0  0  0  0  0  0  0  0  0  0
  1  2  1  0
  2  3  1  0
  3  4  2  0
  3  5  1  0
  5  6  1  6
  6  7  1  0
  7  8  1  0
  8  9  2  0
  8 10  1  0
 10 11  1  0
 11 12  1  1
 11 13  1  0
 13 14  1  0
 14 15  1  0
 15 16  1  0
 16 17  2  0
 17 18  1  0
 18 19  2  0
 19 20  1  0
 20 21  2  0
  5 22  1  0
 22 23  1  0
 23 24  1  1
 24 25  1  0
 24 26  1  0
 24 27  1  0
 23  5  1  0
 21 13  1  0
 21 16  1  0
M  END
>  <energy_score>  (768) 
-14.825473

>  <inchikey>  (768) 
None

>  <smiles>  (768) 
None

>  <ref_pdb>  (768) 
A3371a

>  <alias>  (768) 
None

>  <HIPPO Pose ID>  (768) 
499470

>  <name>  (768) 
P499470

>  <HIPPO Compound ID>  (768) 
305679

>  <ref_mols>  (768) 
A1778a,A3371a

>  <distance_score>  (768) 
1.934981

>  <inspiration_score>  (768) 
None

$$$$
P499471
     RDKit          3D

 31 33  0  0  0  0  0  0  0  0999 V2000
    5.5493   14.0711   25.7780 C   0  0  0  0  0  0  0  0  0  0  0  0
    6.6656   13.7818   24.7683 C   0  0  1  0  0  0  0  0  0  0  0  0
    6.9026   14.9898   23.7942 C   0  0  0  0  0  0  0  0  0  0  0  0
    7.7790   14.6567   22.5596 C   0  0  0  0  0  0  0  0  0  0  0  0
    7.5894   13.6813   21.9355 O   0  0  0  0  0  0  0  0  0  0  0  0
    8.9105   15.7427   22.4333 N   0  0  0  0  0  0  0  0  0  0  0  0
   10.1194   15.7884   21.5490 C   0  0  2  0  0  0  0  0  0  0  0  0
    9.9922   16.7727   20.3893 C   0  0  0  0  0  0  0  0  0  0  0  0
   11.3004   17.0882   19.7363 C   0  0  0  0  0  0  0  0  0  0  0  0
   11.0898   18.6316   19.7800 N   0  0  0  0  0  0  0  0  0  0  0  0
   12.3919   19.3579   19.9798 C   0  0  0  0  0  0  0  0  0  0  0  0
   12.9350   19.6850   20.9673 O   0  0  0  0  0  0  0  0  0  0  0  0
   12.8654   19.7022   18.7566 O   0  0  0  0  0  0  0  0  0  0  0  0
   14.0831   20.4802   18.6518 C   0  0  0  0  0  0  0  0  0  0  0  0
   14.2048   20.8236   17.1684 C   0  0  0  0  0  0  0  0  0  0  0  0
   14.0105   21.8108   19.4200 C   0  0  0  0  0  0  0  0  0  0  0  0
   15.2973   19.6416   19.0681 C   0  0  0  0  0  0  0  0  0  0  0  0
   10.0431   18.1946   20.7771 C   0  0  0  0  0  0  0  0  0  0  0  0
   10.5549   14.4438   20.9899 C   0  0  0  0  0  0  0  0  0  0  0  0
    9.6009   13.9662   20.1788 F   0  0  0  0  0  0  0  0  0  0  0  0
   11.7095   14.5319   20.2969 F   0  0  0  0  0  0  0  0  0  0  0  0
   10.7698   13.5929   22.0030 F   0  0  0  0  0  0  0  0  0  0  0  0
    7.8280   13.3529   25.5811 N   0  0  0  0  0  0  0  0  0  0  0  0
    8.9388   14.2939   25.8379 C   0  0  0  0  0  0  0  0  0  0  0  0
   10.1613   13.8613   25.0172 C   0  0  0  0  0  0  0  0  0  0  0  0
    9.7335   12.5215   24.5468 C   0  0  0  0  0  0  0  0  0  0  0  0
   10.3825   11.6488   23.7085 C   0  0  0  0  0  0  0  0  0  0  0  0
    9.7674   10.4390   23.3655 C   0  0  0  0  0  0  0  0  0  0  0  0
    8.5286   10.0966   23.8947 C   0  0  0  0  0  0  0  0  0  0  0  0
    7.8559   11.0099   24.6958 C   0  0  0  0  0  0  0  0  0  0  0  0
    8.4506   12.2377   24.9686 C   0  0  0  0  0  0  0  0  0  0  0  0
  2  1  1  1
  2  3  1  0
  3  4  1  0
  4  5  2  0
  4  6  1  0
  7  6  1  6
  7  8  1  0
  8  9  1  0
  9 10  1  0
 10 11  1  0
 11 12  2  0
 11 13  1  0
 13 14  1  0
 14 15  1  0
 14 16  1  0
 14 17  1  0
 10 18  1  0
  7 19  1  0
 19 20  1  0
 19 21  1  0
 19 22  1  0
  2 23  1  0
 23 24  1  0
 24 25  1  0
 25 26  1  0
 26 27  2  0
 27 28  1  0
 28 29  2  0
 29 30  1  0
 30 31  2  0
 18  8  1  0
 31 23  1  0
 31 26  1  0
M  END
>  <energy_score>  (769) 
-4.206158

>  <inchikey>  (769) 
None

>  <smiles>  (769) 
None

>  <ref_pdb>  (769) 
A3371a

>  <alias>  (769) 
None

>  <HIPPO Pose ID>  (769) 
499471

>  <name>  (769) 
P499471

>  <HIPPO Compound ID>  (769) 
305684

>  <ref_mols>  (769) 
A1778a,A3371a

>  <distance_score>  (769) 
1.914792

>  <inspiration_score>  (769) 
None

$$$$
P499472
     RDKit          3D

 19 20  0  0  0  0  0  0  0  0999 V2000
    9.9194   15.6989   20.0763 C   0  0  0  0  0  0  0  0  0  0  0  0
   10.3442   15.2012   21.3851 C   0  0  0  0  0  0  0  0  0  0  0  0
    9.7991   14.2703   22.1429 N   0  0  0  0  0  0  0  0  0  0  0  0
   10.8071   13.9725   23.0258 C   0  0  0  0  0  0  0  0  0  0  0  0
   10.7960   12.7461   23.8504 C   0  0  0  0  0  0  0  0  0  0  0  0
    9.9453   11.6241   23.2328 C   0  0  0  0  0  0  0  0  0  0  0  0
    8.6302   11.7588   23.7598 N   0  0  0  0  0  0  0  0  0  0  0  0
    7.8626   10.8828   24.7273 C   0  0  0  0  0  0  0  0  0  0  0  0
    8.1405    9.8635   25.1998 O   0  0  0  0  0  0  0  0  0  0  0  0
    6.5908   11.4968   25.2124 C   0  0  0  0  0  0  0  0  0  0  0  0
    5.7095   10.5763   25.8166 C   0  0  0  0  0  0  0  0  0  0  0  0
    4.6330   11.0046   26.5776 C   0  0  0  0  0  0  0  0  0  0  0  0
    4.4022   12.3639   26.7217 C   0  0  0  0  0  0  0  0  0  0  0  0
    5.2530   13.2916   26.1171 C   0  0  0  0  0  0  0  0  0  0  0  0
    6.3772   12.8886   25.3729 C   0  0  0  0  0  0  0  0  0  0  0  0
    7.2899   13.9899   24.8817 C   0  0  0  0  0  0  0  0  0  0  0  0
    7.3452   13.9641   23.4600 O   0  0  0  0  0  0  0  0  0  0  0  0
   11.8113   14.8996   22.9109 C   0  0  0  0  0  0  0  0  0  0  0  0
   11.5286   15.6927   21.8503 O   0  0  0  0  0  0  0  0  0  0  0  0
  1  2  1  0
  2  3  2  0
  3  4  1  0
  4  5  1  0
  5  6  1  0
  6  7  1  0
  7  8  1  0
  8  9  2  0
  8 10  1  0
 10 11  2  0
 11 12  1  0
 12 13  2  0
 13 14  1  0
 14 15  2  0
 15 16  1  0
 16 17  1  0
  4 18  2  0
 18 19  1  0
 19  2  1  0
 15 10  1  0
M  END
>  <energy_score>  (770) 
-6.486242

>  <inchikey>  (770) 
None

>  <smiles>  (770) 
None

>  <ref_pdb>  (770) 
A5594a

>  <alias>  (770) 
None

>  <HIPPO Pose ID>  (770) 
499472

>  <name>  (770) 
P499472

>  <HIPPO Compound ID>  (770) 
306227

>  <ref_mols>  (770) 
A3408a,A5594a

>  <distance_score>  (770) 
1.292322

>  <inspiration_score>  (770) 
None

$$$$
P499473
     RDKit          3D

 19 20  0  0  0  0  0  0  0  0999 V2000
    6.9388   14.2126   24.1242 C   0  0  0  0  0  0  0  0  0  0  0  0
    6.6279   13.0141   24.9686 C   0  0  0  0  0  0  0  0  0  0  0  0
    5.5048   13.0643   25.8078 C   0  0  0  0  0  0  0  0  0  0  0  0
    5.0903   11.9320   26.4995 C   0  0  0  0  0  0  0  0  0  0  0  0
    5.7788   10.7416   26.3305 C   0  0  0  0  0  0  0  0  0  0  0  0
    5.3744    9.6661   27.0107 F   0  0  0  0  0  0  0  0  0  0  0  0
    6.9056   10.6675   25.5235 C   0  0  0  0  0  0  0  0  0  0  0  0
    7.3735   11.8244   24.8928 C   0  0  0  0  0  0  0  0  0  0  0  0
    8.6824   11.7324   24.1777 C   0  0  0  0  0  0  0  0  0  0  0  0
    8.8969   10.7954   23.5205 O   0  0  0  0  0  0  0  0  0  0  0  0
    9.5829   12.9328   24.5300 N   0  0  0  0  0  0  0  0  0  0  0  0
   10.9098   13.2800   24.0681 C   0  0  2  0  0  0  0  0  0  0  0  0
   11.3838   14.5942   24.6846 C   0  0  0  0  0  0  0  0  0  0  0  0
   11.0004   13.2715   22.5439 C   0  0  0  0  0  0  0  0  0  0  0  0
   10.4448   14.4691   21.8912 C   0  0  0  0  0  0  0  0  0  0  0  0
   11.0576   15.2616   20.9526 C   0  0  0  0  0  0  0  0  0  0  0  0
   10.1956   16.2556   20.6217 O   0  0  0  0  0  0  0  0  0  0  0  0
    9.1108   16.0204   21.4051 C   0  0  0  0  0  0  0  0  0  0  0  0
    9.1941   14.9589   22.1728 N   0  0  0  0  0  0  0  0  0  0  0  0
  1  2  1  0
  2  3  2  0
  3  4  1  0
  4  5  2  0
  5  6  1  0
  5  7  1  0
  7  8  2  0
  8  9  1  0
  9 10  2  0
  9 11  1  0
 11 12  1  0
 12 13  1  6
 12 14  1  0
 14 15  1  0
 15 16  2  0
 16 17  1  0
 17 18  1  0
 18 19  2  0
  8  2  1  0
 19 15  1  0
M  END
>  <energy_score>  (771) 
-8.84379

>  <inchikey>  (771) 
None

>  <smiles>  (771) 
None

>  <ref_pdb>  (771) 
A5594a

>  <alias>  (771) 
None

>  <HIPPO Pose ID>  (771) 
499473

>  <name>  (771) 
P499473

>  <HIPPO Compound ID>  (771) 
306228

>  <ref_mols>  (771) 
A3408a,A5594a

>  <distance_score>  (771) 
1.655139

>  <inspiration_score>  (771) 
None

$$$$
P499474
     RDKit          3D

 19 20  0  0  0  0  0  0  0  0999 V2000
    9.8901   15.6437   19.9624 C   0  0  0  0  0  0  0  0  0  0  0  0
   10.3919   15.2544   21.2781 C   0  0  0  0  0  0  0  0  0  0  0  0
    9.9073   14.3766   22.1323 N   0  0  0  0  0  0  0  0  0  0  0  0
   10.9523   14.1901   23.0011 C   0  0  0  0  0  0  0  0  0  0  0  0
   10.9993   13.0547   23.9400 C   0  0  0  0  0  0  0  0  0  0  0  0
   10.0707   11.9297   23.5077 C   0  0  0  0  0  0  0  0  0  0  0  0
    8.8674   11.9487   24.2689 N   0  0  0  0  0  0  0  0  0  0  0  0
    7.8033   10.8794   24.4631 C   0  0  0  0  0  0  0  0  0  0  0  0
    7.7671    9.7801   24.0982 O   0  0  0  0  0  0  0  0  0  0  0  0
    6.6637   11.4080   25.2733 C   0  0  0  0  0  0  0  0  0  0  0  0
    6.0314   10.4400   26.0667 C   0  0  0  0  0  0  0  0  0  0  0  0
    5.0236   10.7888   26.9479 C   0  0  0  0  0  0  0  0  0  0  0  0
    4.6539   12.1215   27.0566 C   0  0  0  0  0  0  0  0  0  0  0  0
    5.2384   13.0929   26.2313 C   0  0  0  0  0  0  0  0  0  0  0  0
    4.5569   15.0683   26.5297 I   0  0  0  0  0  0  0  0  0  0  0  0
    6.2115   12.7494   25.2740 C   0  0  0  0  0  0  0  0  0  0  0  0
    6.6679   13.7621   24.2489 C   0  0  0  0  0  0  0  0  0  0  0  0
   11.9404   15.1021   22.7394 C   0  0  0  0  0  0  0  0  0  0  0  0
   11.5930   15.7936   21.6306 O   0  0  0  0  0  0  0  0  0  0  0  0
  1  2  1  0
  2  3  2  0
  3  4  1  0
  4  5  1  0
  5  6  1  0
  6  7  1  0
  7  8  1  0
  8  9  2  0
  8 10  1  0
 10 11  2  0
 11 12  1  0
 12 13  2  0
 13 14  1  0
 14 15  1  0
 14 16  2  0
 16 17  1  0
  4 18  2  0
 18 19  1  0
 19  2  1  0
 16 10  1  0
M  END
>  <energy_score>  (772) 
-2.826281

>  <inchikey>  (772) 
None

>  <smiles>  (772) 
None

>  <ref_pdb>  (772) 
A5594a

>  <alias>  (772) 
None

>  <HIPPO Pose ID>  (772) 
499474

>  <name>  (772) 
P499474

>  <HIPPO Compound ID>  (772) 
306230

>  <ref_mols>  (772) 
A3408a,A5594a

>  <distance_score>  (772) 
1.470694

>  <inspiration_score>  (772) 
None

$$$$
P499475
     RDKit          3D

 19 20  0  0  0  0  0  0  0  0999 V2000
    6.9162   14.1403   24.3187 C   0  0  0  0  0  0  0  0  0  0  0  0
    6.6204   12.8816   25.0851 C   0  0  0  0  0  0  0  0  0  0  0  0
    5.5299   12.7929   25.9685 C   0  0  0  0  0  0  0  0  0  0  0  0
    4.3823   14.4566   26.5575 I   0  0  0  0  0  0  0  0  0  0  0  0
    5.1426   11.5618   26.5075 C   0  0  0  0  0  0  0  0  0  0  0  0
    5.8296   10.4025   26.1693 C   0  0  0  0  0  0  0  0  0  0  0  0
    6.9606   10.4803   25.3641 C   0  0  0  0  0  0  0  0  0  0  0  0
    7.3917   11.7197   24.8708 C   0  0  0  0  0  0  0  0  0  0  0  0
    8.6816   11.7248   24.1106 C   0  0  0  0  0  0  0  0  0  0  0  0
    8.8824   10.8648   23.3523 O   0  0  0  0  0  0  0  0  0  0  0  0
    9.5480   12.9386   24.4956 N   0  0  0  0  0  0  0  0  0  0  0  0
   10.8903   13.2993   24.0960 C   0  0  2  0  0  0  0  0  0  0  0  0
   11.3203   14.6182   24.7342 C   0  0  0  0  0  0  0  0  0  0  0  0
   11.0359   13.3043   22.5755 C   0  0  0  0  0  0  0  0  0  0  0  0
   10.4556   14.4834   21.9078 C   0  0  0  0  0  0  0  0  0  0  0  0
   11.0430   15.2605   20.9408 C   0  0  0  0  0  0  0  0  0  0  0  0
   10.1650   16.2384   20.6024 O   0  0  0  0  0  0  0  0  0  0  0  0
    9.0952   16.0087   21.4085 C   0  0  0  0  0  0  0  0  0  0  0  0
    9.2036   14.9672   22.1989 N   0  0  0  0  0  0  0  0  0  0  0  0
  1  2  1  0
  2  3  2  0
  3  4  1  0
  3  5  1  0
  5  6  2  0
  6  7  1  0
  7  8  2  0
  8  9  1  0
  9 10  2  0
  9 11  1  0
 11 12  1  0
 12 13  1  6
 12 14  1  0
 14 15  1  0
 15 16  2  0
 16 17  1  0
 17 18  1  0
 18 19  2  0
  8  2  1  0
 19 15  1  0
M  END
>  <energy_score>  (773) 
-5.872751

>  <inchikey>  (773) 
None

>  <smiles>  (773) 
None

>  <ref_pdb>  (773) 
A5594a

>  <alias>  (773) 
None

>  <HIPPO Pose ID>  (773) 
499475

>  <name>  (773) 
P499475

>  <HIPPO Compound ID>  (773) 
306231

>  <ref_mols>  (773) 
A3408a,A5594a

>  <distance_score>  (773) 
1.336777

>  <inspiration_score>  (773) 
None

$$$$
P499476
     RDKit          3D

 19 20  0  0  0  0  0  0  0  0999 V2000
   11.8555   15.1017   20.3117 C   0  0  0  0  0  0  0  0  0  0  0  0
   10.7533   15.3872   21.2269 C   0  0  0  0  0  0  0  0  0  0  0  0
    9.6085   15.8919   20.6943 O   0  0  0  0  0  0  0  0  0  0  0  0
    8.8053   16.0626   21.7756 C   0  0  0  0  0  0  0  0  0  0  0  0
    9.3209   15.6871   22.9234 N   0  0  0  0  0  0  0  0  0  0  0  0
   10.5692   15.2401   22.5790 C   0  0  0  0  0  0  0  0  0  0  0  0
   11.4828   14.6026   23.5494 C   0  0  0  0  0  0  0  0  0  0  0  0
   11.3699   13.0795   23.4422 C   0  0  0  0  0  0  0  0  0  0  0  0
   10.0445   12.6105   23.7495 N   0  0  0  0  0  0  0  0  0  0  0  0
    9.0284   13.1114   24.7670 C   0  0  0  0  0  0  0  0  0  0  0  0
    9.0611   14.0336   25.4742 O   0  0  0  0  0  0  0  0  0  0  0  0
    7.7862   12.2889   24.8402 C   0  0  0  0  0  0  0  0  0  0  0  0
    7.7925   10.9137   25.0501 C   0  0  0  0  0  0  0  0  0  0  0  0
    6.6451   10.3005   25.5567 C   0  0  0  0  0  0  0  0  0  0  0  0
    5.5186   11.0514   25.8819 C   0  0  0  0  0  0  0  0  0  0  0  0
    5.4785   12.4024   25.5584 C   0  0  0  0  0  0  0  0  0  0  0  0
    6.5894   13.0020   24.9627 C   0  0  0  0  0  0  0  0  0  0  0  0
    6.5070   14.3414   24.2990 C   0  0  0  0  0  0  0  0  0  0  0  0
    6.9364   14.2459   23.0046 F   0  0  0  0  0  0  0  0  0  0  0  0
  1  2  1  0
  2  3  1  0
  3  4  1  0
  4  5  2  0
  5  6  1  0
  6  7  1  0
  7  8  1  0
  8  9  1  0
  9 10  1  0
 10 11  2  0
 10 12  1  0
 12 13  2  0
 13 14  1  0
 14 15  2  0
 15 16  1  0
 16 17  2  0
 17 18  1  0
 18 19  1  0
  6  2  2  0
 17 12  1  0
M  END
>  <energy_score>  (774) 
-1.610066

>  <inchikey>  (774) 
None

>  <smiles>  (774) 
None

>  <ref_pdb>  (774) 
A5594a

>  <alias>  (774) 
None

>  <HIPPO Pose ID>  (774) 
499476

>  <name>  (774) 
P499476

>  <HIPPO Compound ID>  (774) 
306232

>  <ref_mols>  (774) 
A3408a,A5594a

>  <distance_score>  (774) 
1.975423

>  <inspiration_score>  (774) 
None

$$$$
P499477
     RDKit          3D

 19 20  0  0  0  0  0  0  0  0999 V2000
   12.0154   15.5128   21.5041 C   0  0  0  0  0  0  0  0  0  0  0  0
   10.6345   15.1276   21.8038 C   0  0  0  0  0  0  0  0  0  0  0  0
    9.6523   15.8794   21.2344 O   0  0  0  0  0  0  0  0  0  0  0  0
    8.5048   15.3313   21.7030 C   0  0  0  0  0  0  0  0  0  0  0  0
    8.6611   14.2785   22.4731 N   0  0  0  0  0  0  0  0  0  0  0  0
   10.0329   14.1335   22.5389 C   0  0  0  0  0  0  0  0  0  0  0  0
   10.6659   13.0269   23.2984 C   0  0  0  0  0  0  0  0  0  0  0  0
    9.8991   11.7182   23.1513 C   0  0  0  0  0  0  0  0  0  0  0  0
    8.6204   11.8060   23.7823 N   0  0  0  0  0  0  0  0  0  0  0  0
    7.8948   10.8229   24.6842 C   0  0  0  0  0  0  0  0  0  0  0  0
    8.1787    9.7459   25.0044 O   0  0  0  0  0  0  0  0  0  0  0  0
    6.6695   11.3860   25.3328 C   0  0  0  0  0  0  0  0  0  0  0  0
    5.7706   10.3988   25.7907 C   0  0  0  0  0  0  0  0  0  0  0  0
    4.6756   10.7158   26.5814 C   0  0  0  0  0  0  0  0  0  0  0  0
    4.4403   12.0411   26.8993 C   0  0  0  0  0  0  0  0  0  0  0  0
    5.3167   13.0242   26.4517 C   0  0  0  0  0  0  0  0  0  0  0  0
    5.0569   14.2935   26.8043 F   0  0  0  0  0  0  0  0  0  0  0  0
    6.4670   12.7311   25.7033 C   0  0  0  0  0  0  0  0  0  0  0  0
    7.3607   13.8982   25.3935 C   0  0  0  0  0  0  0  0  0  0  0  0
  1  2  1  0
  2  3  1  0
  3  4  1  0
  4  5  2  0
  5  6  1  0
  6  7  1  0
  7  8  1  0
  8  9  1  0
  9 10  1  0
 10 11  2  0
 10 12  1  0
 12 13  2  0
 13 14  1  0
 14 15  2  0
 15 16  1  0
 16 17  1  0
 16 18  2  0
 18 19  1  0
  6  2  2  0
 18 12  1  0
M  END
>  <energy_score>  (775) 
-1.852237

>  <inchikey>  (775) 
None

>  <smiles>  (775) 
None

>  <ref_pdb>  (775) 
A5594a

>  <alias>  (775) 
None

>  <HIPPO Pose ID>  (775) 
499477

>  <name>  (775) 
P499477

>  <HIPPO Compound ID>  (775) 
306235

>  <ref_mols>  (775) 
A3408a,A5594a

>  <distance_score>  (775) 
1.425093

>  <inspiration_score>  (775) 
None

$$$$
P499478
     RDKit          3D

 19 20  0  0  0  0  0  0  0  0999 V2000
    9.9803   15.5811   19.9860 C   0  0  0  0  0  0  0  0  0  0  0  0
   10.4082   15.0752   21.2904 C   0  0  0  0  0  0  0  0  0  0  0  0
    9.9024   14.0973   22.0114 N   0  0  0  0  0  0  0  0  0  0  0  0
   10.8345   13.9138   22.9947 C   0  0  0  0  0  0  0  0  0  0  0  0
   10.7922   12.7704   23.9245 C   0  0  0  0  0  0  0  0  0  0  0  0
    9.9677   11.5775   23.4238 C   0  0  0  0  0  0  0  0  0  0  0  0
    8.7481   11.5300   24.1571 N   0  0  0  0  0  0  0  0  0  0  0  0
    7.4046   12.1690   23.8757 C   0  0  0  0  0  0  0  0  0  0  0  0
    7.0394   12.7785   22.9622 O   0  0  0  0  0  0  0  0  0  0  0  0
    6.5725   11.9795   25.0727 C   0  0  0  0  0  0  0  0  0  0  0  0
    6.1482   10.7008   25.4557 C   0  0  0  0  0  0  0  0  0  0  0  0
    5.3726   10.5586   26.5982 C   0  0  0  0  0  0  0  0  0  0  0  0
    5.0822   11.6838   27.3668 C   0  0  0  0  0  0  0  0  0  0  0  0
    5.5874   12.9354   27.0081 C   0  0  0  0  0  0  0  0  0  0  0  0
    5.3346   13.9788   27.8113 F   0  0  0  0  0  0  0  0  0  0  0  0
    6.3605   13.1065   25.8681 C   0  0  0  0  0  0  0  0  0  0  0  0
    6.9681   14.4305   25.5085 C   0  0  0  0  0  0  0  0  0  0  0  0
   11.8006   14.8836   22.9007 C   0  0  0  0  0  0  0  0  0  0  0  0
   11.5421   15.6348   21.8044 O   0  0  0  0  0  0  0  0  0  0  0  0
  1  2  1  0
  2  3  2  0
  3  4  1  0
  4  5  1  0
  5  6  1  0
  6  7  1  0
  7  8  1  0
  8  9  2  0
  8 10  1  0
 10 11  2  0
 11 12  1  0
 12 13  2  0
 13 14  1  0
 14 15  1  0
 14 16  2  0
 16 17  1  0
  4 18  2  0
 18 19  1  0
 19  2  1  0
 16 10  1  0
M  END
>  <energy_score>  (776) 
-0.421892

>  <inchikey>  (776) 
None

>  <smiles>  (776) 
None

>  <ref_pdb>  (776) 
A5594a

>  <alias>  (776) 
None

>  <HIPPO Pose ID>  (776) 
499478

>  <name>  (776) 
P499478

>  <HIPPO Compound ID>  (776) 
306236

>  <ref_mols>  (776) 
A3408a,A5594a

>  <distance_score>  (776) 
1.623853

>  <inspiration_score>  (776) 
None

$$$$
P499479
     RDKit          3D

 19 20  0  0  0  0  0  0  0  0999 V2000
    6.9425   14.1325   24.2983 C   0  0  0  0  0  0  0  0  0  0  0  0
    6.6377   12.8743   25.0586 C   0  0  0  0  0  0  0  0  0  0  0  0
    5.5381   12.7984   25.9302 C   0  0  0  0  0  0  0  0  0  0  0  0
    4.5102   14.3242   26.4150 Br  0  0  0  0  0  0  0  0  0  0  0  0
    5.1395   11.5774   26.4797 C   0  0  0  0  0  0  0  0  0  0  0  0
    5.8232   10.4115   26.1595 C   0  0  0  0  0  0  0  0  0  0  0  0
    6.9596   10.4765   25.3598 C   0  0  0  0  0  0  0  0  0  0  0  0
    7.4030   11.7089   24.8567 C   0  0  0  0  0  0  0  0  0  0  0  0
    8.7049   11.6989   24.1151 C   0  0  0  0  0  0  0  0  0  0  0  0
    8.9264   10.8076   23.3994 O   0  0  0  0  0  0  0  0  0  0  0  0
    9.5901   12.8910   24.5299 N   0  0  0  0  0  0  0  0  0  0  0  0
   10.9051   13.2881   24.0750 C   0  0  2  0  0  0  0  0  0  0  0  0
   11.3331   14.6107   24.7075 C   0  0  0  0  0  0  0  0  0  0  0  0
   11.0066   13.2951   22.5516 C   0  0  0  0  0  0  0  0  0  0  0  0
   10.4294   14.4845   21.9018 C   0  0  0  0  0  0  0  0  0  0  0  0
   11.0161   15.2675   20.9390 C   0  0  0  0  0  0  0  0  0  0  0  0
   10.1428   16.2542   20.6162 O   0  0  0  0  0  0  0  0  0  0  0  0
    9.0772   16.0242   21.4275 C   0  0  0  0  0  0  0  0  0  0  0  0
    9.1842   14.9744   22.2079 N   0  0  0  0  0  0  0  0  0  0  0  0
  1  2  1  0
  2  3  2  0
  3  4  1  0
  3  5  1  0
  5  6  2  0
  6  7  1  0
  7  8  2  0
  8  9  1  0
  9 10  2  0
  9 11  1  0
 11 12  1  0
 12 13  1  6
 12 14  1  0
 14 15  1  0
 15 16  2  0
 16 17  1  0
 17 18  1  0
 18 19  2  0
  8  2  1  0
 19 15  1  0
M  END
>  <energy_score>  (777) 
-14.878057

>  <inchikey>  (777) 
None

>  <smiles>  (777) 
None

>  <ref_pdb>  (777) 
A5594a

>  <alias>  (777) 
None

>  <HIPPO Pose ID>  (777) 
499479

>  <name>  (777) 
P499479

>  <HIPPO Compound ID>  (777) 
306238

>  <ref_mols>  (777) 
A3408a,A5594a

>  <distance_score>  (777) 
1.760577

>  <inspiration_score>  (777) 
None

$$$$
P499480
     RDKit          3D

 19 20  0  0  0  0  0  0  0  0999 V2000
    4.3196    9.8228   27.8538 C   0  0  0  0  0  0  0  0  0  0  0  0
    4.9861   10.8566   26.9953 C   0  0  0  0  0  0  0  0  0  0  0  0
    4.6165   12.1976   27.0511 C   0  0  0  0  0  0  0  0  0  0  0  0
    5.2117   13.1339   26.2034 C   0  0  0  0  0  0  0  0  0  0  0  0
    6.2053   12.7601   25.2865 C   0  0  0  0  0  0  0  0  0  0  0  0
    6.6474   13.8132   24.3021 C   0  0  0  0  0  0  0  0  0  0  0  0
    6.6563   11.4253   25.3106 C   0  0  0  0  0  0  0  0  0  0  0  0
    7.7892   10.8718   24.5064 C   0  0  0  0  0  0  0  0  0  0  0  0
    7.7355    9.7681   24.1548 O   0  0  0  0  0  0  0  0  0  0  0  0
    8.8630   11.9276   24.2841 N   0  0  0  0  0  0  0  0  0  0  0  0
   10.0551   11.8863   23.5056 C   0  0  0  0  0  0  0  0  0  0  0  0
   10.9958   13.0045   23.9338 C   0  0  0  0  0  0  0  0  0  0  0  0
   10.9430   14.1509   23.0077 C   0  0  0  0  0  0  0  0  0  0  0  0
   11.9255   15.0739   22.7630 C   0  0  0  0  0  0  0  0  0  0  0  0
   11.5776   15.7779   21.6622 O   0  0  0  0  0  0  0  0  0  0  0  0
   10.3815   15.2352   21.2979 C   0  0  0  0  0  0  0  0  0  0  0  0
    9.8818   15.6384   19.9855 C   0  0  0  0  0  0  0  0  0  0  0  0
    9.8985   14.3438   22.1391 N   0  0  0  0  0  0  0  0  0  0  0  0
    6.0090   10.4845   26.1260 C   0  0  0  0  0  0  0  0  0  0  0  0
  1  2  1  0
  2  3  2  0
  3  4  1  0
  4  5  2  0
  5  6  1  0
  5  7  1  0
  7  8  1  0
  8  9  2  0
  8 10  1  0
 10 11  1  0
 11 12  1  0
 12 13  1  0
 13 14  2  0
 14 15  1  0
 15 16  1  0
 16 17  1  0
 16 18  2  0
  7 19  2  0
 19  2  1  0
 18 13  1  0
M  END
>  <energy_score>  (778) 
-2.614908

>  <inchikey>  (778) 
None

>  <smiles>  (778) 
None

>  <ref_pdb>  (778) 
A5594a

>  <alias>  (778) 
None

>  <HIPPO Pose ID>  (778) 
499480

>  <name>  (778) 
P499480

>  <HIPPO Compound ID>  (778) 
306240

>  <ref_mols>  (778) 
A3408a,A5594a

>  <distance_score>  (778) 
1.405089

>  <inspiration_score>  (778) 
None

$$$$
P499481
     RDKit          3D

 19 20  0  0  0  0  0  0  0  0999 V2000
    6.9001   14.2172   23.8596 C   0  0  0  0  0  0  0  0  0  0  0  0
    6.5151   13.1698   24.8582 C   0  0  0  0  0  0  0  0  0  0  0  0
    5.3708   13.3894   25.6329 C   0  0  0  0  0  0  0  0  0  0  0  0
    4.8862   12.3962   26.4734 C   0  0  0  0  0  0  0  0  0  0  0  0
    5.5238   11.1623   26.5240 C   0  0  0  0  0  0  0  0  0  0  0  0
    4.8185    9.8724   27.7057 Br  0  0  0  0  0  0  0  0  0  0  0  0
    6.6762   10.9253   25.7745 C   0  0  0  0  0  0  0  0  0  0  0  0
    7.2159   11.9602   24.9964 C   0  0  0  0  0  0  0  0  0  0  0  0
    8.5539   11.7498   24.3552 C   0  0  0  0  0  0  0  0  0  0  0  0
    8.7754   10.7365   23.8247 O   0  0  0  0  0  0  0  0  0  0  0  0
    9.4596   12.9811   24.5797 N   0  0  0  0  0  0  0  0  0  0  0  0
   10.8032   13.2593   24.1121 C   0  0  2  0  0  0  0  0  0  0  0  0
   11.3312   14.5653   24.7055 C   0  0  0  0  0  0  0  0  0  0  0  0
   10.9057   13.2127   22.5888 C   0  0  0  0  0  0  0  0  0  0  0  0
   10.4375   14.4301   21.9029 C   0  0  0  0  0  0  0  0  0  0  0  0
   11.1172   15.1714   20.9675 C   0  0  0  0  0  0  0  0  0  0  0  0
   10.3231   16.2095   20.6023 O   0  0  0  0  0  0  0  0  0  0  0  0
    9.2097   16.0512   21.3639 C   0  0  0  0  0  0  0  0  0  0  0  0
    9.2141   14.9992   22.1488 N   0  0  0  0  0  0  0  0  0  0  0  0
  1  2  1  0
  2  3  2  0
  3  4  1  0
  4  5  2  0
  5  6  1  0
  5  7  1  0
  7  8  2  0
  8  9  1  0
  9 10  2  0
  9 11  1  0
 11 12  1  0
 12 13  1  6
 12 14  1  0
 14 15  1  0
 15 16  2  0
 16 17  1  0
 17 18  1  0
 18 19  2  0
  8  2  1  0
 19 15  1  0
M  END
>  <energy_score>  (779) 
-10.323255

>  <inchikey>  (779) 
None

>  <smiles>  (779) 
None

>  <ref_pdb>  (779) 
A5594a

>  <alias>  (779) 
None

>  <HIPPO Pose ID>  (779) 
499481

>  <name>  (779) 
P499481

>  <HIPPO Compound ID>  (779) 
306243

>  <ref_mols>  (779) 
A3408a,A5594a

>  <distance_score>  (779) 
1.507092

>  <inspiration_score>  (779) 
None

$$$$
P499482
     RDKit          3D

 19 20  0  0  0  0  0  0  0  0999 V2000
    7.3972   14.4554   24.8719 C   0  0  0  0  0  0  0  0  0  0  0  0
    7.1918   13.0296   25.2760 C   0  0  0  0  0  0  0  0  0  0  0  0
    6.0914   12.7511   26.1125 C   0  0  0  0  0  0  0  0  0  0  0  0
    5.7122   11.4407   26.3838 C   0  0  0  0  0  0  0  0  0  0  0  0
    4.1493   11.0617   27.6960 I   0  0  0  0  0  0  0  0  0  0  0  0
    6.3903   10.3885   25.7857 C   0  0  0  0  0  0  0  0  0  0  0  0
    7.5070   10.6461   24.9844 C   0  0  0  0  0  0  0  0  0  0  0  0
    7.9484   11.9634   24.7590 C   0  0  0  0  0  0  0  0  0  0  0  0
    9.1647   12.1244   23.8918 C   0  0  0  0  0  0  0  0  0  0  0  0
    9.1745   11.5071   22.9042 O   0  0  0  0  0  0  0  0  0  0  0  0
   10.2097   13.1024   24.4706 N   0  0  0  0  0  0  0  0  0  0  0  0
   11.4586   13.6036   23.9004 C   0  0  2  0  0  0  0  0  0  0  0  0
   12.6031   13.5660   24.8916 C   0  0  0  0  0  0  0  0  0  0  0  0
   11.3211   15.0476   23.4089 C   0  0  0  0  0  0  0  0  0  0  0  0
   10.3669   15.1293   22.3017 C   0  0  0  0  0  0  0  0  0  0  0  0
   10.6001   14.9667   20.9607 C   0  0  0  0  0  0  0  0  0  0  0  0
    9.4024   15.0525   20.3270 O   0  0  0  0  0  0  0  0  0  0  0  0
    8.5147   15.2422   21.3344 C   0  0  0  0  0  0  0  0  0  0  0  0
    9.0340   15.3241   22.5335 N   0  0  0  0  0  0  0  0  0  0  0  0
  1  2  1  0
  2  3  2  0
  3  4  1  0
  4  5  1  0
  4  6  2  0
  6  7  1  0
  7  8  2  0
  8  9  1  0
  9 10  2  0
  9 11  1  0
 11 12  1  0
 12 13  1  1
 12 14  1  0
 14 15  1  0
 15 16  2  0
 16 17  1  0
 17 18  1  0
 18 19  2  0
  8  2  1  0
 19 15  1  0
M  END
>  <energy_score>  (780) 
-0.38606

>  <inchikey>  (780) 
None

>  <smiles>  (780) 
None

>  <ref_pdb>  (780) 
A5594a

>  <alias>  (780) 
None

>  <HIPPO Pose ID>  (780) 
499482

>  <name>  (780) 
P499482

>  <HIPPO Compound ID>  (780) 
306247

>  <ref_mols>  (780) 
A3408a,A5594a

>  <distance_score>  (780) 
1.284855

>  <inspiration_score>  (780) 
None

$$$$
P499483
     RDKit          3D

 19 20  0  0  0  0  0  0  0  0999 V2000
    4.1133    9.3078   27.4509 C   0  0  0  0  0  0  0  0  0  0  0  0
    4.8399   10.5636   27.0757 C   0  0  0  0  0  0  0  0  0  0  0  0
    4.5538   11.7450   27.7702 C   0  0  0  0  0  0  0  0  0  0  0  0
    5.2560   12.9209   27.5182 C   0  0  0  0  0  0  0  0  0  0  0  0
    6.2690   12.9407   26.5673 C   0  0  0  0  0  0  0  0  0  0  0  0
    7.0416   14.2206   26.3679 C   0  0  0  0  0  0  0  0  0  0  0  0
    6.5000   11.7614   25.8284 C   0  0  0  0  0  0  0  0  0  0  0  0
    7.5274   11.8129   24.7831 C   0  0  0  0  0  0  0  0  0  0  0  0
    8.4616   11.1275   24.8268 O   0  0  0  0  0  0  0  0  0  0  0  0
    7.1639   12.9301   23.8085 N   0  0  0  0  0  0  0  0  0  0  0  0
    7.9091   13.5050   22.7414 C   0  0  1  0  0  0  0  0  0  0  0  0
    6.9700   14.2289   21.7926 C   0  0  0  0  0  0  0  0  0  0  0  0
    9.0234   14.3819   23.3241 C   0  0  0  0  0  0  0  0  0  0  0  0
    9.9833   14.7574   22.2774 C   0  0  0  0  0  0  0  0  0  0  0  0
   11.2752   14.3446   22.0737 C   0  0  0  0  0  0  0  0  0  0  0  0
   11.6839   14.8463   20.8773 O   0  0  0  0  0  0  0  0  0  0  0  0
   10.6119   15.5502   20.4306 C   0  0  0  0  0  0  0  0  0  0  0  0
    9.5796   15.5544   21.2391 N   0  0  0  0  0  0  0  0  0  0  0  0
    5.8309   10.5688   26.0940 C   0  0  0  0  0  0  0  0  0  0  0  0
  1  2  1  0
  2  3  2  0
  3  4  1  0
  4  5  2  0
  5  6  1  0
  5  7  1  0
  7  8  1  0
  8  9  2  0
  8 10  1  0
 10 11  1  0
 11 12  1  6
 11 13  1  0
 13 14  1  0
 14 15  2  0
 15 16  1  0
 16 17  1  0
 17 18  2  0
  7 19  2  0
 19  2  1  0
 18 14  1  0
M  END
>  <energy_score>  (781) 
-21.264299

>  <inchikey>  (781) 
None

>  <smiles>  (781) 
None

>  <ref_pdb>  (781) 
A5594a

>  <alias>  (781) 
None

>  <HIPPO Pose ID>  (781) 
499483

>  <name>  (781) 
P499483

>  <HIPPO Compound ID>  (781) 
306248

>  <ref_mols>  (781) 
A3408a,A5594a

>  <distance_score>  (781) 
1.819472

>  <inspiration_score>  (781) 
None

$$$$
P499484
     RDKit          3D

 19 20  0  0  0  0  0  0  0  0999 V2000
   10.0143   15.5866   19.9643 C   0  0  0  0  0  0  0  0  0  0  0  0
   10.3834   15.0755   21.2839 C   0  0  0  0  0  0  0  0  0  0  0  0
    9.8301   14.1088   21.9859 N   0  0  0  0  0  0  0  0  0  0  0  0
   10.7440   13.8955   22.9884 C   0  0  0  0  0  0  0  0  0  0  0  0
   10.6617   12.7334   23.8964 C   0  0  0  0  0  0  0  0  0  0  0  0
    9.6761   11.6655   23.4157 C   0  0  0  0  0  0  0  0  0  0  0  0
    8.3752   11.9494   23.9601 N   0  0  0  0  0  0  0  0  0  0  0  0
    7.5813   11.2396   25.0481 C   0  0  0  0  0  0  0  0  0  0  0  0
    7.8111   10.2644   25.6315 O   0  0  0  0  0  0  0  0  0  0  0  0
    6.3529   11.9896   25.4957 C   0  0  0  0  0  0  0  0  0  0  0  0
    5.3048   11.2313   26.0877 C   0  0  0  0  0  0  0  0  0  0  0  0
    5.2746    9.7363   26.1592 C   0  0  0  0  0  0  0  0  0  0  0  0
    4.2374   11.8696   26.7312 C   0  0  0  0  0  0  0  0  0  0  0  0
    4.1438   13.2453   26.7404 C   0  0  0  0  0  0  0  0  0  0  0  0
    5.1384   14.0004   26.1405 C   0  0  0  0  0  0  0  0  0  0  0  0
    6.2541   13.3932   25.5443 C   0  0  0  0  0  0  0  0  0  0  0  0
    7.6744   14.8108   24.9346 I   0  0  0  0  0  0  0  0  0  0  0  0
   11.7313   14.8467   22.9283 C   0  0  0  0  0  0  0  0  0  0  0  0
   11.5097   15.6136   21.8342 O   0  0  0  0  0  0  0  0  0  0  0  0
  1  2  1  0
  2  3  2  0
  3  4  1  0
  4  5  1  0
  5  6  1  0
  6  7  1  0
  7  8  1  0
  8  9  2  0
  8 10  1  0
 10 11  2  0
 11 12  1  0
 11 13  1  0
 13 14  2  0
 14 15  1  0
 15 16  2  0
 16 17  1  0
  4 18  2  0
 18 19  1  0
 19  2  1  0
 16 10  1  0
M  END
>  <energy_score>  (782) 
-34.146971

>  <inchikey>  (782) 
None

>  <smiles>  (782) 
None

>  <ref_pdb>  (782) 
A5594a

>  <alias>  (782) 
None

>  <HIPPO Pose ID>  (782) 
499484

>  <name>  (782) 
P499484

>  <HIPPO Compound ID>  (782) 
306250

>  <ref_mols>  (782) 
A3408a,A5594a

>  <distance_score>  (782) 
1.621915

>  <inspiration_score>  (782) 
None

$$$$
P499485
     RDKit          3D

 19 20  0  0  0  0  0  0  0  0999 V2000
    7.3121   14.5464   25.2091 C   0  0  0  0  0  0  0  0  0  0  0  0
    7.1317   13.0669   25.3486 C   0  0  0  0  0  0  0  0  0  0  0  0
    6.0817   12.5607   26.1259 C   0  0  0  0  0  0  0  0  0  0  0  0
    5.8453   11.1890   26.1875 C   0  0  0  0  0  0  0  0  0  0  0  0
    6.6583   10.3075   25.4744 C   0  0  0  0  0  0  0  0  0  0  0  0
    7.7128   10.7926   24.6976 C   0  0  0  0  0  0  0  0  0  0  0  0
    8.9198    9.4327   23.6320 I   0  0  0  0  0  0  0  0  0  0  0  0
    7.9449   12.1717   24.6380 C   0  0  0  0  0  0  0  0  0  0  0  0
    8.9380   12.7107   23.6937 C   0  0  0  0  0  0  0  0  0  0  0  0
    8.6431   12.7105   22.5696 O   0  0  0  0  0  0  0  0  0  0  0  0
   10.2492   13.1252   24.3794 N   0  0  0  0  0  0  0  0  0  0  0  0
   11.4571   13.7238   23.8280 C   0  0  2  0  0  0  0  0  0  0  0  0
   12.6050   13.6217   24.8123 C   0  0  0  0  0  0  0  0  0  0  0  0
   11.2766   15.1978   23.4540 C   0  0  0  0  0  0  0  0  0  0  0  0
   10.2656   15.3539   22.4056 C   0  0  0  0  0  0  0  0  0  0  0  0
   10.3810   15.0788   21.0661 C   0  0  0  0  0  0  0  0  0  0  0  0
    9.1524   15.2371   20.5105 O   0  0  0  0  0  0  0  0  0  0  0  0
    8.3674   15.5977   21.5595 C   0  0  0  0  0  0  0  0  0  0  0  0
    8.9803   15.7138   22.7133 N   0  0  0  0  0  0  0  0  0  0  0  0
  1  2  1  0
  2  3  2  0
  3  4  1  0
  4  5  2  0
  5  6  1  0
  6  7  1  0
  6  8  2  0
  8  9  1  0
  9 10  2  0
  9 11  1  0
 11 12  1  0
 12 13  1  1
 12 14  1  0
 14 15  1  0
 15 16  2  0
 16 17  1  0
 17 18  1  0
 18 19  2  0
  8  2  1  0
 19 15  1  0
M  END
>  <energy_score>  (783) 
-17.69351

>  <inchikey>  (783) 
None

>  <smiles>  (783) 
None

>  <ref_pdb>  (783) 
A5594a

>  <alias>  (783) 
None

>  <HIPPO Pose ID>  (783) 
499485

>  <name>  (783) 
P499485

>  <HIPPO Compound ID>  (783) 
306251

>  <ref_mols>  (783) 
A3408a,A5594a

>  <distance_score>  (783) 
1.769258

>  <inspiration_score>  (783) 
None

$$$$
P499487
     RDKit          3D

 19 20  0  0  0  0  0  0  0  0999 V2000
   11.8113   15.0985   20.4898 C   0  0  0  0  0  0  0  0  0  0  0  0
   10.6722   15.5469   21.3020 C   0  0  0  0  0  0  0  0  0  0  0  0
    9.9125   16.5570   20.7938 O   0  0  0  0  0  0  0  0  0  0  0  0
    8.9557   16.7478   21.7365 C   0  0  0  0  0  0  0  0  0  0  0  0
    9.0339   15.9568   22.7878 N   0  0  0  0  0  0  0  0  0  0  0  0
   10.1340   15.1800   22.5176 C   0  0  0  0  0  0  0  0  0  0  0  0
   10.5598   14.0957   23.4348 C   0  0  0  0  0  0  0  0  0  0  0  0
    9.8707   12.7819   23.0830 C   0  0  0  0  0  0  0  0  0  0  0  0
    8.6053   12.5765   23.7533 N   0  0  0  0  0  0  0  0  0  0  0  0
    8.1309   11.4902   24.5359 C   0  0  0  0  0  0  0  0  0  0  0  0
    8.6245   10.4303   24.7779 O   0  0  0  0  0  0  0  0  0  0  0  0
    6.8365   11.7037   25.2909 C   0  0  0  0  0  0  0  0  0  0  0  0
    6.1535   10.5120   25.6291 C   0  0  0  0  0  0  0  0  0  0  0  0
    5.0277   10.5080   26.4497 C   0  0  0  0  0  0  0  0  0  0  0  0
    4.5471   11.7058   26.9506 C   0  0  0  0  0  0  0  0  0  0  0  0
    5.1988   12.8966   26.6343 C   0  0  0  0  0  0  0  0  0  0  0  0
    6.3598   12.9208   25.8249 C   0  0  0  0  0  0  0  0  0  0  0  0
    6.9850   14.2709   25.5964 C   0  0  0  0  0  0  0  0  0  0  0  0
    6.3388   15.0060   24.0708 S   0  0  0  0  0  0  0  0  0  0  0  0
  1  2  1  0
  2  3  1  0
  3  4  1  0
  4  5  2  0
  5  6  1  0
  6  7  1  0
  7  8  1  0
  8  9  1  0
  9 10  1  0
 10 11  2  0
 10 12  1  0
 12 13  2  0
 13 14  1  0
 14 15  2  0
 15 16  1  0
 16 17  2  0
 17 18  1  0
 18 19  1  0
  6  2  2  0
 17 12  1  0
M  END
>  <energy_score>  (784) 
-14.320539

>  <inchikey>  (784) 
None

>  <smiles>  (784) 
None

>  <ref_pdb>  (784) 
A5594a

>  <alias>  (784) 
None

>  <HIPPO Pose ID>  (784) 
499487

>  <name>  (784) 
P499487

>  <HIPPO Compound ID>  (784) 
306252

>  <ref_mols>  (784) 
A3408a,A5594a

>  <distance_score>  (784) 
1.888375

>  <inspiration_score>  (784) 
None

$$$$
P499488
     RDKit          3D

 19 20  0  0  0  0  0  0  0  0999 V2000
    9.8686   15.5037   19.6765 C   0  0  0  0  0  0  0  0  0  0  0  0
   10.5465   15.4716   20.9646 C   0  0  0  0  0  0  0  0  0  0  0  0
   10.1530   14.9989   22.1316 N   0  0  0  0  0  0  0  0  0  0  0  0
   11.2863   15.1037   22.8952 C   0  0  0  0  0  0  0  0  0  0  0  0
   11.4001   14.4555   24.2065 C   0  0  0  0  0  0  0  0  0  0  0  0
   11.1373   12.9683   24.0413 C   0  0  0  0  0  0  0  0  0  0  0  0
    9.8261   12.5994   24.5011 N   0  0  0  0  0  0  0  0  0  0  0  0
    8.8415   11.5505   23.9681 C   0  0  0  0  0  0  0  0  0  0  0  0
    8.9633   10.7652   23.1208 O   0  0  0  0  0  0  0  0  0  0  0  0
    7.5623   11.6183   24.7355 C   0  0  0  0  0  0  0  0  0  0  0  0
    7.0683   10.4120   25.2496 C   0  0  0  0  0  0  0  0  0  0  0  0
    5.9271   10.4053   26.0492 C   0  0  0  0  0  0  0  0  0  0  0  0
    5.2797   11.5988   26.3437 C   0  0  0  0  0  0  0  0  0  0  0  0
    5.7345   12.7936   25.7872 C   0  0  0  0  0  0  0  0  0  0  0  0
    6.8602   12.8222   24.9431 C   0  0  0  0  0  0  0  0  0  0  0  0
    7.1918   14.1213   24.2498 C   0  0  0  0  0  0  0  0  0  0  0  0
    7.1711   13.9942   22.4502 S   0  0  0  0  0  0  0  0  0  0  0  0
   12.2802   15.7069   22.1735 C   0  0  0  0  0  0  0  0  0  0  0  0
   11.8153   15.9517   20.9355 O   0  0  0  0  0  0  0  0  0  0  0  0
  1  2  1  0
  2  3  2  0
  3  4  1  0
  4  5  1  0
  5  6  1  0
  6  7  1  0
  7  8  1  0
  8  9  2  0
  8 10  1  0
 10 11  2  0
 11 12  1  0
 12 13  2  0
 13 14  1  0
 14 15  2  0
 15 16  1  0
 16 17  1  0
  4 18  2  0
 18 19  1  0
 19  2  1  0
 15 10  1  0
M  END
>  <energy_score>  (785) 
-18.355436

>  <inchikey>  (785) 
None

>  <smiles>  (785) 
None

>  <ref_pdb>  (785) 
A5594a

>  <alias>  (785) 
None

>  <HIPPO Pose ID>  (785) 
499488

>  <name>  (785) 
P499488

>  <HIPPO Compound ID>  (785) 
306253

>  <ref_mols>  (785) 
A3408a,A5594a

>  <distance_score>  (785) 
1.658882

>  <inspiration_score>  (785) 
None

$$$$
P499490
     RDKit          3D

 19 20  0  0  0  0  0  0  0  0999 V2000
   11.4947   14.6235   24.7434 C   0  0  0  0  0  0  0  0  0  0  0  0
   11.0566   13.3201   24.0845 C   0  0  2  0  0  0  0  0  0  0  0  0
   11.1559   13.3564   22.5622 C   0  0  0  0  0  0  0  0  0  0  0  0
   10.6568   14.5782   21.9088 C   0  0  0  0  0  0  0  0  0  0  0  0
   11.1867   15.1949   20.8030 C   0  0  0  0  0  0  0  0  0  0  0  0
   10.3918   16.2477   20.4884 O   0  0  0  0  0  0  0  0  0  0  0  0
    9.4330   16.2301   21.4496 C   0  0  0  0  0  0  0  0  0  0  0  0
    9.5420   15.2582   22.3300 N   0  0  0  0  0  0  0  0  0  0  0  0
    9.7519   12.9018   24.5505 N   0  0  0  0  0  0  0  0  0  0  0  0
    8.8388   11.7546   24.0739 C   0  0  0  0  0  0  0  0  0  0  0  0
    9.0259   10.9198   23.2843 O   0  0  0  0  0  0  0  0  0  0  0  0
    7.5456   11.7532   24.8208 C   0  0  0  0  0  0  0  0  0  0  0  0
    7.1062   10.5201   25.3247 C   0  0  0  0  0  0  0  0  0  0  0  0
    5.9519   10.4463   26.1021 C   0  0  0  0  0  0  0  0  0  0  0  0
    5.2326   11.6000   26.3836 C   0  0  0  0  0  0  0  0  0  0  0  0
    5.6226   12.8148   25.8230 C   0  0  0  0  0  0  0  0  0  0  0  0
    6.7580   12.9044   24.9961 C   0  0  0  0  0  0  0  0  0  0  0  0
    6.9757   14.1851   24.2318 C   0  0  0  0  0  0  0  0  0  0  0  0
    6.8075   13.9437   22.4476 S   0  0  0  0  0  0  0  0  0  0  0  0
  2  1  1  1
  2  3  1  0
  3  4  1  0
  4  5  2  0
  5  6  1  0
  6  7  1  0
  7  8  2  0
  2  9  1  0
  9 10  1  0
 10 11  2  0
 10 12  1  0
 12 13  2  0
 13 14  1  0
 14 15  2  0
 15 16  1  0
 16 17  2  0
 17 18  1  0
 18 19  1  0
  8  4  1  0
 17 12  1  0
M  END
>  <energy_score>  (786) 
-7.684983

>  <inchikey>  (786) 
None

>  <smiles>  (786) 
None

>  <ref_pdb>  (786) 
A5594a

>  <alias>  (786) 
None

>  <HIPPO Pose ID>  (786) 
499490

>  <name>  (786) 
P499490

>  <HIPPO Compound ID>  (786) 
306254

>  <ref_mols>  (786) 
A3408a,A5594a

>  <distance_score>  (786) 
1.466993

>  <inspiration_score>  (786) 
None

$$$$
P499491
     RDKit          3D

 19 20  0  0  0  0  0  0  0  0999 V2000
    9.9839   15.5752   19.9320 C   0  0  0  0  0  0  0  0  0  0  0  0
   10.3580   15.0724   21.2539 C   0  0  0  0  0  0  0  0  0  0  0  0
    9.8848   14.0360   21.9160 N   0  0  0  0  0  0  0  0  0  0  0  0
   10.7790   13.8957   22.9463 C   0  0  0  0  0  0  0  0  0  0  0  0
   10.8337   12.7030   23.8150 C   0  0  0  0  0  0  0  0  0  0  0  0
    9.8899   11.5665   23.3932 C   0  0  0  0  0  0  0  0  0  0  0  0
    8.6090   11.6832   24.0299 N   0  0  0  0  0  0  0  0  0  0  0  0
    8.0355   12.7901   24.9045 C   0  0  0  0  0  0  0  0  0  0  0  0
    8.5305   13.7565   25.3189 O   0  0  0  0  0  0  0  0  0  0  0  0
    6.6441   12.5376   25.2861 C   0  0  0  0  0  0  0  0  0  0  0  0
    6.2992   11.4027   26.0305 C   0  0  0  0  0  0  0  0  0  0  0  0
    5.0711   11.4002   26.6811 C   0  0  0  0  0  0  0  0  0  0  0  0
    4.5447    9.9013   28.0126 I   0  0  0  0  0  0  0  0  0  0  0  0
    4.1961   12.4773   26.5379 C   0  0  0  0  0  0  0  0  0  0  0  0
    4.5277   13.5580   25.7206 C   0  0  0  0  0  0  0  0  0  0  0  0
    5.7582   13.5963   25.0750 C   0  0  0  0  0  0  0  0  0  0  0  0
    6.1517   14.7698   24.2235 C   0  0  0  0  0  0  0  0  0  0  0  0
   11.6711   14.9386   22.9332 C   0  0  0  0  0  0  0  0  0  0  0  0
   11.4157   15.6999   21.8452 O   0  0  0  0  0  0  0  0  0  0  0  0
  1  2  1  0
  2  3  2  0
  3  4  1  0
  4  5  1  0
  5  6  1  0
  6  7  1  0
  7  8  1  0
  8  9  2  0
  8 10  1  0
 10 11  2  0
 11 12  1  0
 12 13  1  0
 12 14  2  0
 14 15  1  0
 15 16  2  0
 16 17  1  0
  4 18  2  0
 18 19  1  0
 19  2  1  0
 16 10  1  0
M  END
>  <energy_score>  (787) 
-10.591007

>  <inchikey>  (787) 
None

>  <smiles>  (787) 
None

>  <ref_pdb>  (787) 
A5594a

>  <alias>  (787) 
None

>  <HIPPO Pose ID>  (787) 
499491

>  <name>  (787) 
P499491

>  <HIPPO Compound ID>  (787) 
306256

>  <ref_mols>  (787) 
A3408a,A5594a

>  <distance_score>  (787) 
1.653144

>  <inspiration_score>  (787) 
None

$$$$
P499493
     RDKit          3D

 19 20  0  0  0  0  0  0  0  0999 V2000
    7.0383   14.3983   24.5995 C   0  0  0  0  0  0  0  0  0  0  0  0
    6.8809   12.9852   25.0726 C   0  0  0  0  0  0  0  0  0  0  0  0
    5.7829   12.6740   25.8867 C   0  0  0  0  0  0  0  0  0  0  0  0
    5.4918   11.3535   26.2021 C   0  0  0  0  0  0  0  0  0  0  0  0
    6.2790   10.3310   25.6817 C   0  0  0  0  0  0  0  0  0  0  0  0
    7.4153   10.6127   24.9081 C   0  0  0  0  0  0  0  0  0  0  0  0
    8.2081    9.4893   24.3010 C   0  0  0  0  0  0  0  0  0  0  0  0
    7.7463   11.9566   24.6524 C   0  0  0  0  0  0  0  0  0  0  0  0
    9.0281   12.2621   23.9355 C   0  0  0  0  0  0  0  0  0  0  0  0
    9.2662   11.7099   22.9413 O   0  0  0  0  0  0  0  0  0  0  0  0
    9.8471   13.2977   24.7196 N   0  0  0  0  0  0  0  0  0  0  0  0
   11.1725   13.8022   24.4956 C   0  0  0  0  0  0  0  0  0  0  0  0
   11.5025   14.0613   23.0482 C   0  0  0  0  0  0  0  0  0  0  0  0
   10.5622   14.9312   22.3208 C   0  0  0  0  0  0  0  0  0  0  0  0
    9.4027   15.4601   22.8317 N   0  0  0  0  0  0  0  0  0  0  0  0
    8.8948   16.1118   21.8073 C   0  0  0  0  0  0  0  0  0  0  0  0
    9.6286   16.0647   20.6663 O   0  0  0  0  0  0  0  0  0  0  0  0
   10.7109   15.3271   21.0174 C   0  0  0  0  0  0  0  0  0  0  0  0
   11.7592   15.1219   20.0211 C   0  0  0  0  0  0  0  0  0  0  0  0
  1  2  1  0
  2  3  2  0
  3  4  1  0
  4  5  2  0
  5  6  1  0
  6  7  1  0
  6  8  2  0
  8  9  1  0
  9 10  2  0
  9 11  1  0
 11 12  1  0
 12 13  1  0
 13 14  1  0
 14 15  1  0
 15 16  2  0
 16 17  1  0
 17 18  1  0
 18 19  1  0
  8  2  1  0
 18 14  2  0
M  END
>  <energy_score>  (788) 
-9.438503

>  <inchikey>  (788) 
None

>  <smiles>  (788) 
None

>  <ref_pdb>  (788) 
A5594a

>  <alias>  (788) 
None

>  <HIPPO Pose ID>  (788) 
499493

>  <name>  (788) 
P499493

>  <HIPPO Compound ID>  (788) 
306261

>  <ref_mols>  (788) 
A3408a,A5594a

>  <distance_score>  (788) 
1.417992

>  <inspiration_score>  (788) 
None

$$$$
P499494
     RDKit          3D

 19 20  0  0  0  0  0  0  0  0999 V2000
    7.5778   14.3278   25.3642 C   0  0  0  0  0  0  0  0  0  0  0  0
    6.3973   13.4648   25.7223 C   0  0  0  0  0  0  0  0  0  0  0  0
    5.2951   14.1391   26.2635 C   0  0  0  0  0  0  0  0  0  0  0  0
    4.2040   13.4469   26.7742 C   0  0  0  0  0  0  0  0  0  0  0  0
    4.1847   12.0634   26.7476 C   0  0  0  0  0  0  0  0  0  0  0  0
    5.2251   11.3529   26.1481 C   0  0  0  0  0  0  0  0  0  0  0  0
    5.1387    9.8561   26.2245 C   0  0  0  0  0  0  0  0  0  0  0  0
    6.3260   12.0595   25.6015 C   0  0  0  0  0  0  0  0  0  0  0  0
    7.4948   11.2712   25.1392 C   0  0  0  0  0  0  0  0  0  0  0  0
    7.7376   10.3251   25.7643 O   0  0  0  0  0  0  0  0  0  0  0  0
    8.2424   11.9020   23.9694 N   0  0  0  0  0  0  0  0  0  0  0  0
    9.4915   11.5626   23.3801 C   0  0  1  0  0  0  0  0  0  0  0  0
    9.5532   10.1116   22.9106 C   0  0  0  0  0  0  0  0  0  0  0  0
   10.3388   12.6299   22.6964 C   0  0  0  0  0  0  0  0  0  0  0  0
    9.7109   13.8774   22.2334 C   0  0  0  0  0  0  0  0  0  0  0  0
   10.3706   14.9864   21.7539 C   0  0  0  0  0  0  0  0  0  0  0  0
    9.4363   15.8917   21.3736 O   0  0  0  0  0  0  0  0  0  0  0  0
    8.2570   15.2836   21.6629 C   0  0  0  0  0  0  0  0  0  0  0  0
    8.3526   14.0705   22.1626 N   0  0  0  0  0  0  0  0  0  0  0  0
  1  2  1  0
  2  3  2  0
  3  4  1  0
  4  5  2  0
  5  6  1  0
  6  7  1  0
  6  8  2  0
  8  9  1  0
  9 10  2  0
  9 11  1  0
 11 12  1  0
 12 13  1  6
 12 14  1  0
 14 15  1  0
 15 16  2  0
 16 17  1  0
 17 18  1  0
 18 19  2  0
  8  2  1  0
 19 15  1  0
M  END
>  <energy_score>  (789) 
-2.361906

>  <inchikey>  (789) 
None

>  <smiles>  (789) 
None

>  <ref_pdb>  (789) 
A5594a

>  <alias>  (789) 
None

>  <HIPPO Pose ID>  (789) 
499494

>  <name>  (789) 
P499494

>  <HIPPO Compound ID>  (789) 
306263

>  <ref_mols>  (789) 
A3408a,A5594a

>  <distance_score>  (789) 
1.821471

>  <inspiration_score>  (789) 
None

$$$$
P499495
     RDKit          3D

 19 20  0  0  0  0  0  0  0  0999 V2000
    9.7875   15.4535   19.7631 C   0  0  0  0  0  0  0  0  0  0  0  0
   10.5578   15.2650   20.9806 C   0  0  0  0  0  0  0  0  0  0  0  0
   10.2613   14.6329   22.0977 N   0  0  0  0  0  0  0  0  0  0  0  0
   11.4272   14.7378   22.8173 C   0  0  0  0  0  0  0  0  0  0  0  0
   11.6087   14.1469   24.1513 C   0  0  0  0  0  0  0  0  0  0  0  0
   10.5416   14.6563   25.0933 C   0  0  0  0  0  0  0  0  0  0  0  0
    9.3453   13.8611   25.1491 N   0  0  0  0  0  0  0  0  0  0  0  0
    8.9277   12.6098   24.3307 C   0  0  0  0  0  0  0  0  0  0  0  0
    9.5225   11.9898   23.5422 O   0  0  0  0  0  0  0  0  0  0  0  0
    7.5648   12.1544   24.7678 C   0  0  0  0  0  0  0  0  0  0  0  0
    7.2724   10.7872   24.9391 C   0  0  0  0  0  0  0  0  0  0  0  0
    8.1373    9.7074   24.3561 C   0  0  0  0  0  0  0  0  0  0  0  0
    6.1097   10.4337   25.6461 C   0  0  0  0  0  0  0  0  0  0  0  0
    5.2476   11.4086   26.1488 C   0  0  0  0  0  0  0  0  0  0  0  0
    5.4945   12.7509   25.8905 C   0  0  0  0  0  0  0  0  0  0  0  0
    6.6314   13.1102   25.1804 C   0  0  0  0  0  0  0  0  0  0  0  0
    6.8179   14.4463   24.9468 O   0  0  0  0  0  0  0  0  0  0  0  0
   12.3243   15.5125   22.1325 C   0  0  0  0  0  0  0  0  0  0  0  0
   11.7830   15.8478   20.9496 O   0  0  0  0  0  0  0  0  0  0  0  0
  1  2  1  0
  2  3  2  0
  3  4  1  0
  4  5  1  0
  5  6  1  0
  6  7  1  0
  7  8  1  0
  8  9  2  0
  8 10  1  0
 10 11  2  0
 11 12  1  0
 11 13  1  0
 13 14  2  0
 14 15  1  0
 15 16  2  0
 16 17  1  0
  4 18  2  0
 18 19  1  0
 19  2  1  0
 16 10  1  0
M  END
>  <energy_score>  (790) 
-9.633012

>  <inchikey>  (790) 
None

>  <smiles>  (790) 
None

>  <ref_pdb>  (790) 
A5594a

>  <alias>  (790) 
None

>  <HIPPO Pose ID>  (790) 
499495

>  <name>  (790) 
P499495

>  <HIPPO Compound ID>  (790) 
306265

>  <ref_mols>  (790) 
A3408a,A5594a

>  <distance_score>  (790) 
1.740019

>  <inspiration_score>  (790) 
None

$$$$
P499496
     RDKit          3D

 19 20  0  0  0  0  0  0  0  0999 V2000
    8.2541    9.3914   24.2088 C   0  0  0  0  0  0  0  0  0  0  0  0
    7.5925   10.6083   24.7919 C   0  0  0  0  0  0  0  0  0  0  0  0
    6.4161   10.4627   25.5512 C   0  0  0  0  0  0  0  0  0  0  0  0
    5.7767   11.5739   26.0973 C   0  0  0  0  0  0  0  0  0  0  0  0
    6.2955   12.8449   25.8777 C   0  0  0  0  0  0  0  0  0  0  0  0
    7.4470   13.0041   25.1084 C   0  0  0  0  0  0  0  0  0  0  0  0
    7.8877   14.2884   24.9617 O   0  0  0  0  0  0  0  0  0  0  0  0
    8.1162   11.8995   24.5709 C   0  0  0  0  0  0  0  0  0  0  0  0
    9.3629   12.0706   23.7586 C   0  0  0  0  0  0  0  0  0  0  0  0
    9.4728   11.4267   22.7975 O   0  0  0  0  0  0  0  0  0  0  0  0
   10.2974   13.1315   24.3580 N   0  0  0  0  0  0  0  0  0  0  0  0
   11.5304   13.6971   23.8469 C   0  0  2  0  0  0  0  0  0  0  0  0
   12.6347   13.6684   24.8766 C   0  0  0  0  0  0  0  0  0  0  0  0
   11.2954   15.1319   23.3720 C   0  0  0  0  0  0  0  0  0  0  0  0
   10.2570   15.1572   22.3278 C   0  0  0  0  0  0  0  0  0  0  0  0
   10.4283   15.1054   20.9690 C   0  0  0  0  0  0  0  0  0  0  0  0
    9.1956   15.0903   20.4024 O   0  0  0  0  0  0  0  0  0  0  0  0
    8.3434   15.1143   21.4581 C   0  0  0  0  0  0  0  0  0  0  0  0
    8.9137   15.1359   22.6408 N   0  0  0  0  0  0  0  0  0  0  0  0
  1  2  1  0
  2  3  2  0
  3  4  1  0
  4  5  2  0
  5  6  1  0
  6  7  1  0
  6  8  2  0
  8  9  1  0
  9 10  2  0
  9 11  1  0
 11 12  1  0
 12 13  1  1
 12 14  1  0
 14 15  1  0
 15 16  2  0
 16 17  1  0
 17 18  1  0
 18 19  2  0
  8  2  1  0
 19 15  1  0
M  END
>  <energy_score>  (791) 
-29.993041

>  <inchikey>  (791) 
None

>  <smiles>  (791) 
None

>  <ref_pdb>  (791) 
A5594a

>  <alias>  (791) 
None

>  <HIPPO Pose ID>  (791) 
499496

>  <name>  (791) 
P499496

>  <HIPPO Compound ID>  (791) 
306266

>  <ref_mols>  (791) 
A3408a,A5594a

>  <distance_score>  (791) 
1.577287

>  <inspiration_score>  (791) 
None

$$$$
P499497
     RDKit          3D

 19 20  0  0  0  0  0  0  0  0999 V2000
   11.9036   15.1379   20.0549 C   0  0  0  0  0  0  0  0  0  0  0  0
   10.8279   15.2887   21.0289 C   0  0  0  0  0  0  0  0  0  0  0  0
    9.9310   16.2855   20.8279 O   0  0  0  0  0  0  0  0  0  0  0  0
    9.1008   16.1845   21.8955 C   0  0  0  0  0  0  0  0  0  0  0  0
    9.3958   15.2208   22.7437 N   0  0  0  0  0  0  0  0  0  0  0  0
   10.4767   14.6069   22.1642 C   0  0  0  0  0  0  0  0  0  0  0  0
   11.1206   13.3746   22.6579 C   0  0  0  0  0  0  0  0  0  0  0  0
   11.0394   13.1655   24.1484 C   0  0  0  0  0  0  0  0  0  0  0  0
    9.7370   12.7169   24.5665 N   0  0  0  0  0  0  0  0  0  0  0  0
    8.8880   11.5153   24.0901 C   0  0  0  0  0  0  0  0  0  0  0  0
    9.1436   10.6600   23.3419 O   0  0  0  0  0  0  0  0  0  0  0  0
    7.5502   11.5431   24.7590 C   0  0  0  0  0  0  0  0  0  0  0  0
    7.0554   10.3652   25.3211 C   0  0  0  0  0  0  0  0  0  0  0  0
    5.8908   10.4001   26.0871 C   0  0  0  0  0  0  0  0  0  0  0  0
    5.2282   11.6067   26.2950 C   0  0  0  0  0  0  0  0  0  0  0  0
    5.6768   12.7674   25.6663 C   0  0  0  0  0  0  0  0  0  0  0  0
    6.8069   12.7344   24.8379 C   0  0  0  0  0  0  0  0  0  0  0  0
    7.2194   13.9230   24.0180 C   0  0  0  0  0  0  0  0  0  0  0  0
    5.9009   14.6934   23.1459 Cl  0  0  0  0  0  0  0  0  0  0  0  0
  1  2  1  0
  2  3  1  0
  3  4  1  0
  4  5  2  0
  5  6  1  0
  6  7  1  0
  7  8  1  0
  8  9  1  0
  9 10  1  0
 10 11  2  0
 10 12  1  0
 12 13  2  0
 13 14  1  0
 14 15  2  0
 15 16  1  0
 16 17  2  0
 17 18  1  0
 18 19  1  0
  6  2  2  0
 17 12  1  0
M  END
>  <energy_score>  (792) 
-5.819913

>  <inchikey>  (792) 
None

>  <smiles>  (792) 
None

>  <ref_pdb>  (792) 
A5594a

>  <alias>  (792) 
None

>  <HIPPO Pose ID>  (792) 
499497

>  <name>  (792) 
P499497

>  <HIPPO Compound ID>  (792) 
306267

>  <ref_mols>  (792) 
A3408a,A5594a

>  <distance_score>  (792) 
1.514252

>  <inspiration_score>  (792) 
None

$$$$
P499498
     RDKit          3D

 19 20  0  0  0  0  0  0  0  0999 V2000
   10.0189   15.6227   19.9457 C   0  0  0  0  0  0  0  0  0  0  0  0
   10.4196   15.1246   21.2609 C   0  0  0  0  0  0  0  0  0  0  0  0
    9.9055   14.1397   21.9648 N   0  0  0  0  0  0  0  0  0  0  0  0
   10.8321   13.9445   22.9535 C   0  0  0  0  0  0  0  0  0  0  0  0
   10.7978   12.7570   23.8280 C   0  0  0  0  0  0  0  0  0  0  0  0
    9.9250   11.6321   23.2572 C   0  0  0  0  0  0  0  0  0  0  0  0
    8.6143   11.7613   23.8078 N   0  0  0  0  0  0  0  0  0  0  0  0
    7.8412   10.8470   24.7414 C   0  0  0  0  0  0  0  0  0  0  0  0
    8.1080    9.7998   25.1585 O   0  0  0  0  0  0  0  0  0  0  0  0
    6.5811   11.4399   25.2838 C   0  0  0  0  0  0  0  0  0  0  0  0
    5.6919   10.4862   25.8205 C   0  0  0  0  0  0  0  0  0  0  0  0
    4.6069   10.8620   26.5976 C   0  0  0  0  0  0  0  0  0  0  0  0
    4.3674   12.2073   26.8218 C   0  0  0  0  0  0  0  0  0  0  0  0
    5.2247   13.1691   26.2884 C   0  0  0  0  0  0  0  0  0  0  0  0
    6.3662   12.8128   25.5431 C   0  0  0  0  0  0  0  0  0  0  0  0
    7.2728   13.9462   25.1425 C   0  0  0  0  0  0  0  0  0  0  0  0
    7.0553   14.3463   23.4282 Cl  0  0  0  0  0  0  0  0  0  0  0  0
   11.7917   14.9218   22.8887 C   0  0  0  0  0  0  0  0  0  0  0  0
   11.5390   15.6889   21.8006 O   0  0  0  0  0  0  0  0  0  0  0  0
  1  2  1  0
  2  3  2  0
  3  4  1  0
  4  5  1  0
  5  6  1  0
  6  7  1  0
  7  8  1  0
  8  9  2  0
  8 10  1  0
 10 11  2  0
 11 12  1  0
 12 13  2  0
 13 14  1  0
 14 15  2  0
 15 16  1  0
 16 17  1  0
  4 18  2  0
 18 19  1  0
 19  2  1  0
 15 10  1  0
M  END
>  <energy_score>  (793) 
-5.403334

>  <inchikey>  (793) 
None

>  <smiles>  (793) 
None

>  <ref_pdb>  (793) 
A5594a

>  <alias>  (793) 
None

>  <HIPPO Pose ID>  (793) 
499498

>  <name>  (793) 
P499498

>  <HIPPO Compound ID>  (793) 
306268

>  <ref_mols>  (793) 
A3408a,A5594a

>  <distance_score>  (793) 
1.457531

>  <inspiration_score>  (793) 
None

$$$$
P499499
     RDKit          3D

 19 20  0  0  0  0  0  0  0  0999 V2000
   10.1105   15.9497   19.1116 C   0  0  0  0  0  0  0  0  0  0  0  0
   10.3190   15.5896   20.5121 C   0  0  0  0  0  0  0  0  0  0  0  0
    9.8951   14.5346   21.1741 N   0  0  0  0  0  0  0  0  0  0  0  0
   10.8395   14.4271   22.1527 C   0  0  0  0  0  0  0  0  0  0  0  0
   11.1214   13.1521   22.8005 C   0  0  0  0  0  0  0  0  0  0  0  0
   10.9092   13.1930   24.2837 C   0  0  0  0  0  0  0  0  0  0  0  0
    9.5725   12.8300   24.6504 N   0  0  0  0  0  0  0  0  0  0  0  0
    8.6896   11.6558   24.1823 C   0  0  0  0  0  0  0  0  0  0  0  0
    8.9369   10.7575   23.4847 O   0  0  0  0  0  0  0  0  0  0  0  0
    7.3604   11.7137   24.8533 C   0  0  0  0  0  0  0  0  0  0  0  0
    6.8721   10.5206   25.4066 C   0  0  0  0  0  0  0  0  0  0  0  0
    5.7317   10.5344   26.2085 C   0  0  0  0  0  0  0  0  0  0  0  0
    5.0872   11.7419   26.4554 C   0  0  0  0  0  0  0  0  0  0  0  0
    3.5996   11.7898   27.6229 Br  0  0  0  0  0  0  0  0  0  0  0  0
    5.5225   12.9185   25.8427 C   0  0  0  0  0  0  0  0  0  0  0  0
    6.6416   12.9108   24.9964 C   0  0  0  0  0  0  0  0  0  0  0  0
    7.0019   14.1705   24.2600 C   0  0  0  0  0  0  0  0  0  0  0  0
   11.6220   15.5509   22.2000 C   0  0  0  0  0  0  0  0  0  0  0  0
   11.2809   16.3212   21.1475 O   0  0  0  0  0  0  0  0  0  0  0  0
  1  2  1  0
  2  3  2  0
  3  4  1  0
  4  5  1  0
  5  6  1  0
  6  7  1  0
  7  8  1  0
  8  9  2  0
  8 10  1  0
 10 11  2  0
 11 12  1  0
 12 13  2  0
 13 14  1  0
 13 15  1  0
 15 16  2  0
 16 17  1  0
  4 18  2  0
 18 19  1  0
 19  2  1  0
 16 10  1  0
M  END
>  <energy_score>  (794) 
-0.179831

>  <inchikey>  (794) 
None

>  <smiles>  (794) 
None

>  <ref_pdb>  (794) 
A5594a

>  <alias>  (794) 
None

>  <HIPPO Pose ID>  (794) 
499499

>  <name>  (794) 
P499499

>  <HIPPO Compound ID>  (794) 
306271

>  <ref_mols>  (794) 
A3408a,A5594a

>  <distance_score>  (794) 
1.900552

>  <inspiration_score>  (794) 
None

$$$$
P499502
     RDKit          3D

 19 20  0  0  0  0  0  0  0  0999 V2000
    6.9325   14.0460   22.9113 C   0  0  0  0  0  0  0  0  0  0  0  0
    7.0850   14.1358   24.4212 C   0  0  0  0  0  0  0  0  0  0  0  0
    6.8502   12.8088   25.0987 C   0  0  0  0  0  0  0  0  0  0  0  0
    5.7433   12.7241   25.9647 C   0  0  0  0  0  0  0  0  0  0  0  0
    5.3095   11.4994   26.4595 C   0  0  0  0  0  0  0  0  0  0  0  0
    5.9645   10.3365   26.0819 C   0  0  0  0  0  0  0  0  0  0  0  0
    7.0975   10.4014   25.2706 C   0  0  0  0  0  0  0  0  0  0  0  0
    7.5775   11.6375   24.8139 C   0  0  0  0  0  0  0  0  0  0  0  0
    8.8170   11.6066   23.9724 C   0  0  0  0  0  0  0  0  0  0  0  0
    8.8834   10.8104   23.1284 O   0  0  0  0  0  0  0  0  0  0  0  0
    9.7854   12.7344   24.3546 N   0  0  0  0  0  0  0  0  0  0  0  0
   11.0886   13.0634   23.8382 C   0  0  0  0  0  0  0  0  0  0  0  0
   11.3395   14.5619   23.7878 C   0  0  0  0  0  0  0  0  0  0  0  0
   10.5422   15.2095   22.7251 C   0  0  0  0  0  0  0  0  0  0  0  0
    9.3627   15.8525   22.9932 N   0  0  0  0  0  0  0  0  0  0  0  0
    9.0051   16.3343   21.8207 C   0  0  0  0  0  0  0  0  0  0  0  0
    9.8110   15.9999   20.7866 O   0  0  0  0  0  0  0  0  0  0  0  0
   10.8093   15.2946   21.3795 C   0  0  0  0  0  0  0  0  0  0  0  0
   11.8876   14.8389   20.5089 C   0  0  0  0  0  0  0  0  0  0  0  0
  1  2  1  0
  2  3  1  0
  3  4  2  0
  4  5  1  0
  5  6  2  0
  6  7  1  0
  7  8  2  0
  8  9  1  0
  9 10  2  0
  9 11  1  0
 11 12  1  0
 12 13  1  0
 13 14  1  0
 14 15  1  0
 15 16  2  0
 16 17  1  0
 17 18  1  0
 18 19  1  0
  8  3  1  0
 18 14  2  0
M  END
>  <energy_score>  (795) 
-7.008375

>  <inchikey>  (795) 
None

>  <smiles>  (795) 
None

>  <ref_pdb>  (795) 
A5594a

>  <alias>  (795) 
None

>  <HIPPO Pose ID>  (795) 
499502

>  <name>  (795) 
P499502

>  <HIPPO Compound ID>  (795) 
306273

>  <ref_mols>  (795) 
A3408a,A5594a

>  <distance_score>  (795) 
1.275023

>  <inspiration_score>  (795) 
None

$$$$
P499503
     RDKit          3D

 19 20  0  0  0  0  0  0  0  0999 V2000
   12.5632   13.5511   24.8349 C   0  0  0  0  0  0  0  0  0  0  0  0
   11.4474   13.5567   23.8110 C   0  0  2  0  0  0  0  0  0  0  0  0
   11.2637   15.0034   23.3401 C   0  0  0  0  0  0  0  0  0  0  0  0
   10.3649   15.0626   22.1831 C   0  0  0  0  0  0  0  0  0  0  0  0
   10.7041   15.1789   20.8600 C   0  0  0  0  0  0  0  0  0  0  0  0
    9.5543   15.1413   20.1405 O   0  0  0  0  0  0  0  0  0  0  0  0
    8.5899   14.9733   21.0790 C   0  0  0  0  0  0  0  0  0  0  0  0
    9.0060   14.9323   22.3162 N   0  0  0  0  0  0  0  0  0  0  0  0
   10.2034   13.0343   24.3558 N   0  0  0  0  0  0  0  0  0  0  0  0
    9.2826   11.9039   23.8479 C   0  0  0  0  0  0  0  0  0  0  0  0
    9.4162   11.1633   22.9572 O   0  0  0  0  0  0  0  0  0  0  0  0
    8.0050   11.7773   24.6280 C   0  0  0  0  0  0  0  0  0  0  0  0
    7.5381   10.4868   24.9213 C   0  0  0  0  0  0  0  0  0  0  0  0
    6.3421   10.3015   25.6269 C   0  0  0  0  0  0  0  0  0  0  0  0
    5.5819   11.3922   26.0346 C   0  0  0  0  0  0  0  0  0  0  0  0
    5.9969   12.6738   25.7001 C   0  0  0  0  0  0  0  0  0  0  0  0
    7.1933   12.8535   24.9918 C   0  0  0  0  0  0  0  0  0  0  0  0
    7.5370   14.2282   24.6729 C   0  0  0  0  0  0  0  0  0  0  0  0
    8.4737   14.7446   25.2685 O   0  0  0  0  0  0  0  0  0  0  0  0
  2  1  1  1
  2  3  1  0
  3  4  1  0
  4  5  2  0
  5  6  1  0
  6  7  1  0
  7  8  2  0
  2  9  1  0
  9 10  1  0
 10 11  2  0
 10 12  1  0
 12 13  2  0
 13 14  1  0
 14 15  2  0
 15 16  1  0
 16 17  2  0
 17 18  1  0
 18 19  2  0
  8  4  1  0
 17 12  1  0
M  END
>  <energy_score>  (796) 
-18.25449

>  <inchikey>  (796) 
None

>  <smiles>  (796) 
None

>  <ref_pdb>  (796) 
A5594a

>  <alias>  (796) 
None

>  <HIPPO Pose ID>  (796) 
499503

>  <name>  (796) 
P499503

>  <HIPPO Compound ID>  (796) 
306276

>  <ref_mols>  (796) 
A3408a,A5594a

>  <distance_score>  (796) 
1.796609

>  <inspiration_score>  (796) 
None

$$$$
P499504
     RDKit          3D

 19 20  0  0  0  0  0  0  0  0999 V2000
   11.8821   15.0715   20.0149 C   0  0  0  0  0  0  0  0  0  0  0  0
   10.8656   15.3072   21.0341 C   0  0  0  0  0  0  0  0  0  0  0  0
    9.9947   16.3238   20.8252 O   0  0  0  0  0  0  0  0  0  0  0  0
    9.2247   16.3107   21.9399 C   0  0  0  0  0  0  0  0  0  0  0  0
    9.5388   15.3956   22.8351 N   0  0  0  0  0  0  0  0  0  0  0  0
   10.5553   14.7041   22.2254 C   0  0  0  0  0  0  0  0  0  0  0  0
   11.1864   13.4817   22.7535 C   0  0  0  0  0  0  0  0  0  0  0  0
   11.0369   13.2798   24.2399 C   0  0  0  0  0  0  0  0  0  0  0  0
    9.6994   12.9017   24.6076 N   0  0  0  0  0  0  0  0  0  0  0  0
    8.8144   11.7449   24.1092 C   0  0  0  0  0  0  0  0  0  0  0  0
    8.9993   10.9622   23.2682 O   0  0  0  0  0  0  0  0  0  0  0  0
    7.5147   11.7199   24.8462 C   0  0  0  0  0  0  0  0  0  0  0  0
    7.0775   10.4769   25.3225 C   0  0  0  0  0  0  0  0  0  0  0  0
    5.9190   10.3882   26.0924 C   0  0  0  0  0  0  0  0  0  0  0  0
    5.1943   11.5337   26.3933 C   0  0  0  0  0  0  0  0  0  0  0  0
    5.5830   12.7596   25.8598 C   0  0  0  0  0  0  0  0  0  0  0  0
    6.7219   12.8667   25.0415 C   0  0  0  0  0  0  0  0  0  0  0  0
    6.9515   14.1689   24.3313 C   0  0  0  0  0  0  0  0  0  0  0  0
    6.7677   13.9201   22.4176 Br  0  0  0  0  0  0  0  0  0  0  0  0
  1  2  1  0
  2  3  1  0
  3  4  1  0
  4  5  2  0
  5  6  1  0
  6  7  1  0
  7  8  1  0
  8  9  1  0
  9 10  1  0
 10 11  2  0
 10 12  1  0
 12 13  2  0
 13 14  1  0
 14 15  2  0
 15 16  1  0
 16 17  2  0
 17 18  1  0
 18 19  1  0
  6  2  2  0
 17 12  1  0
M  END
>  <energy_score>  (797) 
-10.493194

>  <inchikey>  (797) 
None

>  <smiles>  (797) 
None

>  <ref_pdb>  (797) 
A5594a

>  <alias>  (797) 
None

>  <HIPPO Pose ID>  (797) 
499504

>  <name>  (797) 
P499504

>  <HIPPO Compound ID>  (797) 
306277

>  <ref_mols>  (797) 
A3408a,A5594a

>  <distance_score>  (797) 
1.881068

>  <inspiration_score>  (797) 
None

$$$$
P499505
     RDKit          3D

 19 20  0  0  0  0  0  0  0  0999 V2000
    9.9728    9.7488   23.3485 C   0  0  0  0  0  0  0  0  0  0  0  0
    9.5818   11.2225   23.3556 C   0  0  2  0  0  0  0  0  0  0  0  0
   10.5270   12.4126   23.6696 C   0  0  0  0  0  0  0  0  0  0  0  0
   10.4106   13.5696   22.7222 C   0  0  0  0  0  0  0  0  0  0  0  0
   11.3600   14.5061   22.3790 C   0  0  0  0  0  0  0  0  0  0  0  0
   10.8120   15.3610   21.4717 O   0  0  0  0  0  0  0  0  0  0  0  0
    9.5379   14.9147   21.3330 C   0  0  0  0  0  0  0  0  0  0  0  0
    9.2417   13.8606   22.0550 N   0  0  0  0  0  0  0  0  0  0  0  0
    8.4288   11.3570   24.1811 N   0  0  0  0  0  0  0  0  0  0  0  0
    7.1477   12.1357   23.9640 C   0  0  0  0  0  0  0  0  0  0  0  0
    6.7807   12.7369   23.0457 O   0  0  0  0  0  0  0  0  0  0  0  0
    6.3713   12.0879   25.2064 C   0  0  0  0  0  0  0  0  0  0  0  0
    5.9926   10.8422   25.7321 C   0  0  0  0  0  0  0  0  0  0  0  0
    5.2941   10.7987   26.9264 C   0  0  0  0  0  0  0  0  0  0  0  0
    5.0108   11.9910   27.5897 C   0  0  0  0  0  0  0  0  0  0  0  0
    5.4117   13.2261   27.0600 C   0  0  0  0  0  0  0  0  0  0  0  0
    6.0974   13.2970   25.8459 C   0  0  0  0  0  0  0  0  0  0  0  0
    6.4638   14.6185   25.2323 C   0  0  0  0  0  0  0  0  0  0  0  0
    8.3621   14.9593   25.2724 Br  0  0  0  0  0  0  0  0  0  0  0  0
  2  1  1  1
  2  3  1  0
  3  4  1  0
  4  5  2  0
  5  6  1  0
  6  7  1  0
  7  8  2  0
  2  9  1  0
  9 10  1  0
 10 11  2  0
 10 12  1  0
 12 13  2  0
 13 14  1  0
 14 15  2  0
 15 16  1  0
 16 17  2  0
 17 18  1  0
 18 19  1  0
  8  4  1  0
 17 12  1  0
M  END
>  <energy_score>  (798) 
-11.556573

>  <inchikey>  (798) 
None

>  <smiles>  (798) 
None

>  <ref_pdb>  (798) 
A5594a

>  <alias>  (798) 
None

>  <HIPPO Pose ID>  (798) 
499505

>  <name>  (798) 
P499505

>  <HIPPO Compound ID>  (798) 
306279

>  <ref_mols>  (798) 
A3408a,A5594a

>  <distance_score>  (798) 
1.620316

>  <inspiration_score>  (798) 
None

$$$$
P499506
     RDKit          3D

 19 20  0  0  0  0  0  0  0  0999 V2000
    9.9748   15.6052   19.9989 C   0  0  0  0  0  0  0  0  0  0  0  0
   10.3604   15.1017   21.3180 C   0  0  0  0  0  0  0  0  0  0  0  0
    9.8136   14.1443   22.0401 N   0  0  0  0  0  0  0  0  0  0  0  0
   10.7508   13.9254   23.0189 C   0  0  0  0  0  0  0  0  0  0  0  0
   10.7004   12.7541   23.9174 C   0  0  0  0  0  0  0  0  0  0  0  0
    9.7606   11.6529   23.4159 C   0  0  0  0  0  0  0  0  0  0  0  0
    8.4719   11.9204   23.9762 N   0  0  0  0  0  0  0  0  0  0  0  0
    7.6054   11.0851   24.9223 C   0  0  0  0  0  0  0  0  0  0  0  0
    7.7635   10.0121   25.3381 O   0  0  0  0  0  0  0  0  0  0  0  0
    6.4300   11.8647   25.4354 C   0  0  0  0  0  0  0  0  0  0  0  0
    5.3539   11.2373   26.0951 C   0  0  0  0  0  0  0  0  0  0  0  0
    5.2015    9.7589   26.2413 C   0  0  0  0  0  0  0  0  0  0  0  0
    4.3808   12.0239   26.7279 C   0  0  0  0  0  0  0  0  0  0  0  0
    4.4415   13.4100   26.6845 C   0  0  0  0  0  0  0  0  0  0  0  0
    5.4929   14.0323   26.0305 C   0  0  0  0  0  0  0  0  0  0  0  0
    6.4812   13.2648   25.4315 C   0  0  0  0  0  0  0  0  0  0  0  0
    7.5174   13.9284   24.8922 F   0  0  0  0  0  0  0  0  0  0  0  0
   11.7414   14.8710   22.9347 C   0  0  0  0  0  0  0  0  0  0  0  0
   11.5045   15.6317   21.8405 O   0  0  0  0  0  0  0  0  0  0  0  0
  1  2  1  0
  2  3  2  0
  3  4  1  0
  4  5  1  0
  5  6  1  0
  6  7  1  0
  7  8  1  0
  8  9  2  0
  8 10  1  0
 10 11  2  0
 11 12  1  0
 11 13  1  0
 13 14  2  0
 14 15  1  0
 15 16  2  0
 16 17  1  0
  4 18  2  0
 18 19  1  0
 19  2  1  0
 16 10  1  0
M  END
>  <energy_score>  (799) 
-4.593097

>  <inchikey>  (799) 
None

>  <smiles>  (799) 
None

>  <ref_pdb>  (799) 
A5594a

>  <alias>  (799) 
None

>  <HIPPO Pose ID>  (799) 
499506

>  <name>  (799) 
P499506

>  <HIPPO Compound ID>  (799) 
306281

>  <ref_mols>  (799) 
A3408a,A5594a

>  <distance_score>  (799) 
1.593148

>  <inspiration_score>  (799) 
None

$$$$
P499507
     RDKit          3D

 19 20  0  0  0  0  0  0  0  0999 V2000
    6.9600   14.2075   24.3425 C   0  0  0  0  0  0  0  0  0  0  0  0
    6.6560   12.9287   25.0641 C   0  0  0  0  0  0  0  0  0  0  0  0
    5.5343   12.8878   25.9089 C   0  0  0  0  0  0  0  0  0  0  0  0
    5.1043   11.6875   26.4717 C   0  0  0  0  0  0  0  0  0  0  0  0
    5.7811   10.5100   26.1814 C   0  0  0  0  0  0  0  0  0  0  0  0
    6.9217   10.5474   25.3837 C   0  0  0  0  0  0  0  0  0  0  0  0
    7.5627    9.3937   25.1606 F   0  0  0  0  0  0  0  0  0  0  0  0
    7.4000   11.7532   24.8620 C   0  0  0  0  0  0  0  0  0  0  0  0
    8.6837   11.7321   24.1006 C   0  0  0  0  0  0  0  0  0  0  0  0
    8.8675   10.8705   23.3401 O   0  0  0  0  0  0  0  0  0  0  0  0
    9.6041   12.8880   24.5428 N   0  0  0  0  0  0  0  0  0  0  0  0
   10.9142   13.2808   24.0685 C   0  0  2  0  0  0  0  0  0  0  0  0
   11.3542   14.6032   24.6937 C   0  0  0  0  0  0  0  0  0  0  0  0
   10.9993   13.2869   22.5445 C   0  0  0  0  0  0  0  0  0  0  0  0
   10.4103   14.4742   21.9020 C   0  0  0  0  0  0  0  0  0  0  0  0
   10.9900   15.2673   20.9432 C   0  0  0  0  0  0  0  0  0  0  0  0
   10.1091   16.2492   20.6273 O   0  0  0  0  0  0  0  0  0  0  0  0
    9.0458   16.0050   21.4374 C   0  0  0  0  0  0  0  0  0  0  0  0
    9.1610   14.9519   22.2121 N   0  0  0  0  0  0  0  0  0  0  0  0
  1  2  1  0
  2  3  2  0
  3  4  1  0
  4  5  2  0
  5  6  1  0
  6  7  1  0
  6  8  2  0
  8  9  1  0
  9 10  2  0
  9 11  1  0
 11 12  1  0
 12 13  1  6
 12 14  1  0
 14 15  1  0
 15 16  2  0
 16 17  1  0
 17 18  1  0
 18 19  2  0
  8  2  1  0
 19 15  1  0
M  END
>  <energy_score>  (800) 
-9.235119

>  <inchikey>  (800) 
None

>  <smiles>  (800) 
None

>  <ref_pdb>  (800) 
A5594a

>  <alias>  (800) 
None

>  <HIPPO Pose ID>  (800) 
499507

>  <name>  (800) 
P499507

>  <HIPPO Compound ID>  (800) 
306282

>  <ref_mols>  (800) 
A3408a,A5594a

>  <distance_score>  (800) 
1.364349

>  <inspiration_score>  (800) 
None

$$$$
P499508
     RDKit          3D

 19 20  0  0  0  0  0  0  0  0999 V2000
    6.9064   14.2215   23.8981 C   0  0  0  0  0  0  0  0  0  0  0  0
    6.5353   13.1454   24.8714 C   0  0  0  0  0  0  0  0  0  0  0  0
    5.3947   13.3342   25.6605 C   0  0  0  0  0  0  0  0  0  0  0  0
    4.9275   12.3145   26.4799 C   0  0  0  0  0  0  0  0  0  0  0  0
    5.5782   11.0869   26.4942 C   0  0  0  0  0  0  0  0  0  0  0  0
    4.9781    9.8778   27.5526 Cl  0  0  0  0  0  0  0  0  0  0  0  0
    6.7241   10.8803   25.7282 C   0  0  0  0  0  0  0  0  0  0  0  0
    7.2464   11.9381   24.9716 C   0  0  0  0  0  0  0  0  0  0  0  0
    8.5788   11.7486   24.3156 C   0  0  0  0  0  0  0  0  0  0  0  0
    8.7983   10.7488   23.7597 O   0  0  0  0  0  0  0  0  0  0  0  0
    9.4847   12.9734   24.5667 N   0  0  0  0  0  0  0  0  0  0  0  0
   10.8261   13.2631   24.1013 C   0  0  2  0  0  0  0  0  0  0  0  0
   11.3454   14.5700   24.6995 C   0  0  0  0  0  0  0  0  0  0  0  0
   10.9269   13.2240   22.5778 C   0  0  0  0  0  0  0  0  0  0  0  0
   10.4425   14.4385   21.8983 C   0  0  0  0  0  0  0  0  0  0  0  0
   11.1090   15.1880   20.9603 C   0  0  0  0  0  0  0  0  0  0  0  0
   10.3027   16.2190   20.6021 O   0  0  0  0  0  0  0  0  0  0  0  0
    9.1955   16.0483   21.3703 C   0  0  0  0  0  0  0  0  0  0  0  0
    9.2149   14.9950   22.1533 N   0  0  0  0  0  0  0  0  0  0  0  0
  1  2  1  0
  2  3  2  0
  3  4  1  0
  4  5  2  0
  5  6  1  0
  5  7  1  0
  7  8  2  0
  8  9  1  0
  9 10  2  0
  9 11  1  0
 11 12  1  0
 12 13  1  6
 12 14  1  0
 14 15  1  0
 15 16  2  0
 16 17  1  0
 17 18  1  0
 18 19  2  0
  8  2  1  0
 19 15  1  0
M  END
>  <energy_score>  (801) 
-9.139485

>  <inchikey>  (801) 
None

>  <smiles>  (801) 
None

>  <ref_pdb>  (801) 
A5594a

>  <alias>  (801) 
None

>  <HIPPO Pose ID>  (801) 
499508

>  <name>  (801) 
P499508

>  <HIPPO Compound ID>  (801) 
306285

>  <ref_mols>  (801) 
A3408a,A5594a

>  <distance_score>  (801) 
1.581033

>  <inspiration_score>  (801) 
None

$$$$
P499510
     RDKit          3D

 19 20  0  0  0  0  0  0  0  0999 V2000
    7.0594   14.0643   24.3813 C   0  0  0  0  0  0  0  0  0  0  0  0
    6.7548   12.7690   25.0635 C   0  0  0  0  0  0  0  0  0  0  0  0
    5.6550   12.7357   25.9371 C   0  0  0  0  0  0  0  0  0  0  0  0
    5.2169   11.5313   26.4746 C   0  0  0  0  0  0  0  0  0  0  0  0
    3.8624   11.5100   27.5347 Cl  0  0  0  0  0  0  0  0  0  0  0  0
    5.8568   10.3460   26.1382 C   0  0  0  0  0  0  0  0  0  0  0  0
    6.9872   10.3727   25.3157 C   0  0  0  0  0  0  0  0  0  0  0  0
    7.4755   11.5884   24.8163 C   0  0  0  0  0  0  0  0  0  0  0  0
    8.7364   11.5397   24.0029 C   0  0  0  0  0  0  0  0  0  0  0  0
    8.8518   10.6864   23.2209 O   0  0  0  0  0  0  0  0  0  0  0  0
    9.7076   12.6627   24.4031 N   0  0  0  0  0  0  0  0  0  0  0  0
   10.9926   13.0306   23.8565 C   0  0  0  0  0  0  0  0  0  0  0  0
   11.2190   14.5358   23.8423 C   0  0  0  0  0  0  0  0  0  0  0  0
   10.3921   15.1691   22.7960 C   0  0  0  0  0  0  0  0  0  0  0  0
    9.1421   15.6683   23.0584 N   0  0  0  0  0  0  0  0  0  0  0  0
    8.7290   16.0838   21.8804 C   0  0  0  0  0  0  0  0  0  0  0  0
    9.5940   15.8781   20.8566 O   0  0  0  0  0  0  0  0  0  0  0  0
   10.6760   15.3155   21.4593 C   0  0  0  0  0  0  0  0  0  0  0  0
   11.8247   15.0025   20.6086 C   0  0  0  0  0  0  0  0  0  0  0  0
  1  2  1  0
  2  3  2  0
  3  4  1  0
  4  5  1  0
  4  6  2  0
  6  7  1  0
  7  8  2  0
  8  9  1  0
  9 10  2  0
  9 11  1  0
 11 12  1  0
 12 13  1  0
 13 14  1  0
 14 15  1  0
 15 16  2  0
 16 17  1  0
 17 18  1  0
 18 19  1  0
  8  2  1  0
 18 14  2  0
M  END
>  <energy_score>  (802) 
-6.912709

>  <inchikey>  (802) 
None

>  <smiles>  (802) 
None

>  <ref_pdb>  (802) 
A5594a

>  <alias>  (802) 
None

>  <HIPPO Pose ID>  (802) 
499510

>  <name>  (802) 
P499510

>  <HIPPO Compound ID>  (802) 
306288

>  <ref_mols>  (802) 
A3408a,A5594a

>  <distance_score>  (802) 
1.306372

>  <inspiration_score>  (802) 
None

$$$$
P499512
     RDKit          3D

 19 20  0  0  0  0  0  0  0  0999 V2000
    9.8179   15.4996   19.7048 C   0  0  0  0  0  0  0  0  0  0  0  0
   10.4958   15.4774   20.9909 C   0  0  0  0  0  0  0  0  0  0  0  0
   10.1027   15.0141   22.1607 N   0  0  0  0  0  0  0  0  0  0  0  0
   11.2475   15.1064   22.9124 C   0  0  0  0  0  0  0  0  0  0  0  0
   11.3801   14.4447   24.2150 C   0  0  0  0  0  0  0  0  0  0  0  0
   11.0813   12.9658   24.0406 C   0  0  0  0  0  0  0  0  0  0  0  0
    9.7253   12.6649   24.4074 N   0  0  0  0  0  0  0  0  0  0  0  0
    8.7953   11.5366   23.9458 C   0  0  0  0  0  0  0  0  0  0  0  0
    8.9503   10.7156   23.1386 O   0  0  0  0  0  0  0  0  0  0  0  0
    7.5085   11.6003   24.7034 C   0  0  0  0  0  0  0  0  0  0  0  0
    7.0217   10.3958   25.2285 C   0  0  0  0  0  0  0  0  0  0  0  0
    5.8909   10.3947   26.0400 C   0  0  0  0  0  0  0  0  0  0  0  0
    5.2600   11.5956   26.3455 C   0  0  0  0  0  0  0  0  0  0  0  0
    5.7132   12.7918   25.7833 C   0  0  0  0  0  0  0  0  0  0  0  0
    4.8626   14.2353   26.2147 Cl  0  0  0  0  0  0  0  0  0  0  0  0
    6.8138   12.8106   24.9102 C   0  0  0  0  0  0  0  0  0  0  0  0
    7.2083   14.0770   24.1967 C   0  0  0  0  0  0  0  0  0  0  0  0
   12.2411   15.7027   22.1838 C   0  0  0  0  0  0  0  0  0  0  0  0
   11.7676   15.9499   20.9503 O   0  0  0  0  0  0  0  0  0  0  0  0
  1  2  1  0
  2  3  2  0
  3  4  1  0
  4  5  1  0
  5  6  1  0
  6  7  1  0
  7  8  1  0
  8  9  2  0
  8 10  1  0
 10 11  2  0
 11 12  1  0
 12 13  2  0
 13 14  1  0
 14 15  1  0
 14 16  2  0
 16 17  1  0
  4 18  2  0
 18 19  1  0
 19  2  1  0
 16 10  1  0
M  END
>  <energy_score>  (803) 
-0.81564

>  <inchikey>  (803) 
None

>  <smiles>  (803) 
None

>  <ref_pdb>  (803) 
A5594a

>  <alias>  (803) 
None

>  <HIPPO Pose ID>  (803) 
499512

>  <name>  (803) 
P499512

>  <HIPPO Compound ID>  (803) 
306290

>  <ref_mols>  (803) 
A3408a,A5594a

>  <distance_score>  (803) 
1.557999

>  <inspiration_score>  (803) 
None

$$$$
P499513
     RDKit          3D

 19 20  0  0  0  0  0  0  0  0999 V2000
    6.8342   14.3843   24.4617 C   0  0  0  0  0  0  0  0  0  0  0  0
    6.6806   12.9923   25.0002 C   0  0  0  0  0  0  0  0  0  0  0  0
    5.5742   12.6454   25.7910 C   0  0  0  0  0  0  0  0  0  0  0  0
    4.4308   13.8227   26.3369 Cl  0  0  0  0  0  0  0  0  0  0  0  0
    5.3560   11.3222   26.1697 C   0  0  0  0  0  0  0  0  0  0  0  0
    6.2291   10.3260   25.7477 C   0  0  0  0  0  0  0  0  0  0  0  0
    7.3717   10.6545   25.0231 C   0  0  0  0  0  0  0  0  0  0  0  0
    7.6244   11.9913   24.6966 C   0  0  0  0  0  0  0  0  0  0  0  0
    8.9587   12.3202   24.1014 C   0  0  0  0  0  0  0  0  0  0  0  0
    9.3538   11.7277   23.1811 O   0  0  0  0  0  0  0  0  0  0  0  0
    9.6196   13.4442   24.9253 N   0  0  0  0  0  0  0  0  0  0  0  0
   10.8694   14.1405   24.7290 C   0  0  1  0  0  0  0  0  0  0  0  0
   11.9870   13.3053   24.1372 C   0  0  0  0  0  0  0  0  0  0  0  0
   10.6422   15.4544   23.9987 C   0  0  0  0  0  0  0  0  0  0  0  0
   10.4030   15.3095   22.5574 C   0  0  0  0  0  0  0  0  0  0  0  0
   11.3169   15.2700   21.5303 C   0  0  0  0  0  0  0  0  0  0  0  0
   10.6262   15.1535   20.3673 O   0  0  0  0  0  0  0  0  0  0  0  0
    9.3317   15.1330   20.7693 C   0  0  0  0  0  0  0  0  0  0  0  0
    9.1308   15.2154   22.0613 N   0  0  0  0  0  0  0  0  0  0  0  0
  1  2  1  0
  2  3  2  0
  3  4  1  0
  3  5  1  0
  5  6  2  0
  6  7  1  0
  7  8  2  0
  8  9  1  0
  9 10  2  0
  9 11  1  0
 11 12  1  0
 12 13  1  6
 12 14  1  0
 14 15  1  0
 15 16  2  0
 16 17  1  0
 17 18  1  0
 18 19  2  0
  8  2  1  0
 19 15  1  0
M  END
>  <energy_score>  (804) 
-9.072043

>  <inchikey>  (804) 
None

>  <smiles>  (804) 
None

>  <ref_pdb>  (804) 
A5594a

>  <alias>  (804) 
None

>  <HIPPO Pose ID>  (804) 
499513

>  <name>  (804) 
P499513

>  <HIPPO Compound ID>  (804) 
306291

>  <ref_mols>  (804) 
A3408a,A5594a

>  <distance_score>  (804) 
1.512852

>  <inspiration_score>  (804) 
None

$$$$
P499514
     RDKit          3D

 19 20  0  0  0  0  0  0  0  0999 V2000
    9.9823   15.6106   19.9338 C   0  0  0  0  0  0  0  0  0  0  0  0
   10.4387   15.1439   21.2421 C   0  0  0  0  0  0  0  0  0  0  0  0
    9.9505   14.1861   21.9999 N   0  0  0  0  0  0  0  0  0  0  0  0
   10.9073   14.0251   22.9637 C   0  0  0  0  0  0  0  0  0  0  0  0
   10.8944   12.8927   23.9075 C   0  0  0  0  0  0  0  0  0  0  0  0
    9.9878   11.7428   23.4653 C   0  0  0  0  0  0  0  0  0  0  0  0
    8.7837   11.7976   24.2257 N   0  0  0  0  0  0  0  0  0  0  0  0
    7.4155   12.3504   23.8692 C   0  0  0  0  0  0  0  0  0  0  0  0
    7.0166   12.7843   22.8718 O   0  0  0  0  0  0  0  0  0  0  0  0
    6.6007   12.3598   25.0970 C   0  0  0  0  0  0  0  0  0  0  0  0
    6.1172   11.1796   25.6824 C   0  0  0  0  0  0  0  0  0  0  0  0
    6.4667    9.8224   25.1860 C   0  0  0  0  0  0  0  0  0  0  0  0
    5.3156   11.2701   26.8243 C   0  0  0  0  0  0  0  0  0  0  0  0
    5.0562   12.5108   27.3980 C   0  0  0  0  0  0  0  0  0  0  0  0
    5.6338   13.6650   26.8675 C   0  0  0  0  0  0  0  0  0  0  0  0
    6.4249   13.5873   25.7260 C   0  0  0  0  0  0  0  0  0  0  0  0
    7.3856   15.1266   25.1715 Br  0  0  0  0  0  0  0  0  0  0  0  0
   11.8720   14.9882   22.8190 C   0  0  0  0  0  0  0  0  0  0  0  0
   11.5864   15.7131   21.7121 O   0  0  0  0  0  0  0  0  0  0  0  0
  1  2  1  0
  2  3  2  0
  3  4  1  0
  4  5  1  0
  5  6  1  0
  6  7  1  0
  7  8  1  0
  8  9  2  0
  8 10  1  0
 10 11  2  0
 11 12  1  0
 11 13  1  0
 13 14  2  0
 14 15  1  0
 15 16  2  0
 16 17  1  0
  4 18  2  0
 18 19  1  0
 19  2  1  0
 16 10  1  0
M  END
>  <energy_score>  (805) 
-18.445234

>  <inchikey>  (805) 
None

>  <smiles>  (805) 
None

>  <ref_pdb>  (805) 
A5594a

>  <alias>  (805) 
None

>  <HIPPO Pose ID>  (805) 
499514

>  <name>  (805) 
P499514

>  <HIPPO Compound ID>  (805) 
306293

>  <ref_mols>  (805) 
A3408a,A5594a

>  <distance_score>  (805) 
1.607909

>  <inspiration_score>  (805) 
None

$$$$
P499515
     RDKit          3D

 19 20  0  0  0  0  0  0  0  0999 V2000
    6.9760   14.5624   25.2356 C   0  0  0  0  0  0  0  0  0  0  0  0
    6.7400   13.0967   25.4382 C   0  0  0  0  0  0  0  0  0  0  0  0
    5.7701   12.6444   26.3362 C   0  0  0  0  0  0  0  0  0  0  0  0
    5.5380   11.2784   26.4882 C   0  0  0  0  0  0  0  0  0  0  0  0
    6.2985   10.3528   25.7714 C   0  0  0  0  0  0  0  0  0  0  0  0
    7.2932   10.7854   24.8975 C   0  0  0  0  0  0  0  0  0  0  0  0
    8.3890    9.5251   24.0063 Br  0  0  0  0  0  0  0  0  0  0  0  0
    7.4824   12.1517   24.7165 C   0  0  0  0  0  0  0  0  0  0  0  0
    8.3859   12.6531   23.6755 C   0  0  0  0  0  0  0  0  0  0  0  0
    7.9703   12.7813   22.5976 O   0  0  0  0  0  0  0  0  0  0  0  0
    9.7530   13.0212   24.2645 N   0  0  0  0  0  0  0  0  0  0  0  0
   10.8703   13.7141   23.6748 C   0  0  2  0  0  0  0  0  0  0  0  0
   12.1088   13.6873   24.5508 C   0  0  0  0  0  0  0  0  0  0  0  0
   10.4796   15.1685   23.3734 C   0  0  0  0  0  0  0  0  0  0  0  0
   10.5464   15.3883   21.9261 C   0  0  0  0  0  0  0  0  0  0  0  0
   11.6663   15.5039   21.1401 C   0  0  0  0  0  0  0  0  0  0  0  0
   11.2563   15.5662   19.8487 O   0  0  0  0  0  0  0  0  0  0  0  0
    9.9030   15.5024   19.9355 C   0  0  0  0  0  0  0  0  0  0  0  0
    9.4177   15.3973   21.1509 N   0  0  0  0  0  0  0  0  0  0  0  0
  1  2  1  0
  2  3  2  0
  3  4  1  0
  4  5  2  0
  5  6  1  0
  6  7  1  0
  6  8  2  0
  8  9  1  0
  9 10  2  0
  9 11  1  0
 11 12  1  0
 12 13  1  1
 12 14  1  0
 14 15  1  0
 15 16  2  0
 16 17  1  0
 17 18  1  0
 18 19  2  0
  8  2  1  0
 19 15  1  0
M  END
>  <energy_score>  (806) 
-26.162619

>  <inchikey>  (806) 
None

>  <smiles>  (806) 
None

>  <ref_pdb>  (806) 
A5594a

>  <alias>  (806) 
None

>  <HIPPO Pose ID>  (806) 
499515

>  <name>  (806) 
P499515

>  <HIPPO Compound ID>  (806) 
306294

>  <ref_mols>  (806) 
A3408a,A5594a

>  <distance_score>  (806) 
1.75772

>  <inspiration_score>  (806) 
None

$$$$
P499518
     RDKit          3D

 19 20  0  0  0  0  0  0  0  0999 V2000
    7.1057   14.6109   24.6748 C   0  0  0  0  0  0  0  0  0  0  0  0
    6.7461   13.2638   25.2238 C   0  0  0  0  0  0  0  0  0  0  0  0
    5.6572   13.1502   26.1025 C   0  0  0  0  0  0  0  0  0  0  0  0
    5.2106   11.9025   26.5370 C   0  0  0  0  0  0  0  0  0  0  0  0
    5.8387   10.7476   26.0866 C   0  0  0  0  0  0  0  0  0  0  0  0
    6.9386   10.8465   25.2320 C   0  0  0  0  0  0  0  0  0  0  0  0
    7.6726    9.3858   24.7175 Cl  0  0  0  0  0  0  0  0  0  0  0  0
    7.4205   12.0998   24.8268 C   0  0  0  0  0  0  0  0  0  0  0  0
    8.6293   12.1645   23.9590 C   0  0  0  0  0  0  0  0  0  0  0  0
    8.6522   11.5042   23.0045 O   0  0  0  0  0  0  0  0  0  0  0  0
    9.7099   13.0644   24.5716 N   0  0  0  0  0  0  0  0  0  0  0  0
   11.0223   13.4176   24.0854 C   0  0  2  0  0  0  0  0  0  0  0  0
   11.4881   14.7336   24.6938 C   0  0  0  0  0  0  0  0  0  0  0  0
   11.1170   13.4070   22.5623 C   0  0  0  0  0  0  0  0  0  0  0  0
   10.4592   14.5447   21.8979 C   0  0  0  0  0  0  0  0  0  0  0  0
   10.9551   15.2884   20.8569 C   0  0  0  0  0  0  0  0  0  0  0  0
   10.0338   16.2332   20.5437 O   0  0  0  0  0  0  0  0  0  0  0  0
    9.0310   16.0167   21.4349 C   0  0  0  0  0  0  0  0  0  0  0  0
    9.2217   15.0165   22.2622 N   0  0  0  0  0  0  0  0  0  0  0  0
  1  2  1  0
  2  3  2  0
  3  4  1  0
  4  5  2  0
  5  6  1  0
  6  7  1  0
  6  8  2  0
  8  9  1  0
  9 10  2  0
  9 11  1  0
 11 12  1  0
 12 13  1  6
 12 14  1  0
 14 15  1  0
 15 16  2  0
 16 17  1  0
 17 18  1  0
 18 19  2  0
  8  2  1  0
 19 15  1  0
M  END
>  <energy_score>  (807) 
-6.430079

>  <inchikey>  (807) 
None

>  <smiles>  (807) 
None

>  <ref_pdb>  (807) 
A5594a

>  <alias>  (807) 
None

>  <HIPPO Pose ID>  (807) 
499518

>  <name>  (807) 
P499518

>  <HIPPO Compound ID>  (807) 
306297

>  <ref_mols>  (807) 
A3408a,A5594a

>  <distance_score>  (807) 
1.487897

>  <inspiration_score>  (807) 
None

$$$$
P499519
     RDKit          3D

 19 20  0  0  0  0  0  0  0  0999 V2000
    6.8629   14.0944   24.1549 C   0  0  0  0  0  0  0  0  0  0  0  0
    6.5623   12.9083   25.0223 C   0  0  0  0  0  0  0  0  0  0  0  0
    5.4595   12.9809   25.8822 C   0  0  0  0  0  0  0  0  0  0  0  0
    5.0417   11.8602   26.5918 C   0  0  0  0  0  0  0  0  0  0  0  0
    5.6919   10.6469   26.4169 C   0  0  0  0  0  0  0  0  0  0  0  0
    5.2101    9.6018   27.1439 O   0  0  0  0  0  0  0  0  0  0  0  0
    6.8066   10.5530   25.5909 C   0  0  0  0  0  0  0  0  0  0  0  0
    7.2932   11.7089   24.9533 C   0  0  0  0  0  0  0  0  0  0  0  0
    8.6113   11.6187   24.2407 C   0  0  0  0  0  0  0  0  0  0  0  0
    8.8456   10.6649   23.6132 O   0  0  0  0  0  0  0  0  0  0  0  0
    9.4887   12.8520   24.5538 N   0  0  0  0  0  0  0  0  0  0  0  0
   10.8106   13.2129   24.0781 C   0  0  2  0  0  0  0  0  0  0  0  0
   11.2742   14.5345   24.6936 C   0  0  0  0  0  0  0  0  0  0  0  0
   10.8986   13.2050   22.5542 C   0  0  0  0  0  0  0  0  0  0  0  0
   10.3596   14.4131   21.9063 C   0  0  0  0  0  0  0  0  0  0  0  0
   10.9967   15.2214   20.9972 C   0  0  0  0  0  0  0  0  0  0  0  0
   10.1477   16.2277   20.6704 O   0  0  0  0  0  0  0  0  0  0  0  0
    9.0454   15.9824   21.4259 C   0  0  0  0  0  0  0  0  0  0  0  0
    9.1055   14.9035   22.1714 N   0  0  0  0  0  0  0  0  0  0  0  0
  1  2  1  0
  2  3  2  0
  3  4  1  0
  4  5  2  0
  5  6  1  0
  5  7  1  0
  7  8  2  0
  8  9  1  0
  9 10  2  0
  9 11  1  0
 11 12  1  0
 12 13  1  6
 12 14  1  0
 14 15  1  0
 15 16  2  0
 16 17  1  0
 17 18  1  0
 18 19  2  0
  8  2  1  0
 19 15  1  0
M  END
>  <energy_score>  (808) 
-19.647275

>  <inchikey>  (808) 
None

>  <smiles>  (808) 
None

>  <ref_pdb>  (808) 
A5594a

>  <alias>  (808) 
None

>  <HIPPO Pose ID>  (808) 
499519

>  <name>  (808) 
P499519

>  <HIPPO Compound ID>  (808) 
306299

>  <ref_mols>  (808) 
A3408a,A5594a

>  <distance_score>  (808) 
1.297274

>  <inspiration_score>  (808) 
None

$$$$
P499523
     RDKit          3D

 19 20  0  0  0  0  0  0  0  0999 V2000
    7.2380   13.9589   25.4646 C   0  0  0  0  0  0  0  0  0  0  0  0
    6.4886   12.6761   25.6918 C   0  0  0  0  0  0  0  0  0  0  0  0
    5.3073   12.7924   26.4538 C   0  0  0  0  0  0  0  0  0  0  0  0
    4.5614   11.6753   26.8116 C   0  0  0  0  0  0  0  0  0  0  0  0
    3.4479   11.8570   27.5780 O   0  0  0  0  0  0  0  0  0  0  0  0
    4.9409   10.4131   26.4024 C   0  0  0  0  0  0  0  0  0  0  0  0
    6.0715   10.2848   25.6076 C   0  0  0  0  0  0  0  0  0  0  0  0
    6.8557   11.3953   25.2279 C   0  0  0  0  0  0  0  0  0  0  0  0
    8.1339   11.0126   24.5359 C   0  0  0  0  0  0  0  0  0  0  0  0
    8.4997    9.9299   24.7363 O   0  0  0  0  0  0  0  0  0  0  0  0
    8.7892   12.1486   23.7642 N   0  0  0  0  0  0  0  0  0  0  0  0
   10.0768   12.2334   23.1510 C   0  0  0  0  0  0  0  0  0  0  0  0
   10.7597   13.5587   23.4398 C   0  0  0  0  0  0  0  0  0  0  0  0
   10.1144   14.6230   22.6455 C   0  0  0  0  0  0  0  0  0  0  0  0
    8.8116   15.0037   22.8773 N   0  0  0  0  0  0  0  0  0  0  0  0
    8.5775   15.8704   21.9164 C   0  0  0  0  0  0  0  0  0  0  0  0
    9.6046   16.0657   21.0513 O   0  0  0  0  0  0  0  0  0  0  0  0
   10.5978   15.2719   21.5360 C   0  0  0  0  0  0  0  0  0  0  0  0
   11.8532   15.2410   20.7827 C   0  0  0  0  0  0  0  0  0  0  0  0
  1  2  1  0
  2  3  2  0
  3  4  1  0
  4  5  1  0
  4  6  2  0
  6  7  1  0
  7  8  2  0
  8  9  1  0
  9 10  2  0
  9 11  1  0
 11 12  1  0
 12 13  1  0
 13 14  1  0
 14 15  1  0
 15 16  2  0
 16 17  1  0
 17 18  1  0
 18 19  1  0
  8  2  1  0
 18 14  2  0
M  END
>  <energy_score>  (809) 
-5.27511

>  <inchikey>  (809) 
None

>  <smiles>  (809) 
None

>  <ref_pdb>  (809) 
A5594a

>  <alias>  (809) 
None

>  <HIPPO Pose ID>  (809) 
499523

>  <name>  (809) 
P499523

>  <HIPPO Compound ID>  (809) 
306306

>  <ref_mols>  (809) 
A3408a,A5594a

>  <distance_score>  (809) 
1.269492

>  <inspiration_score>  (809) 
None

$$$$
P499524
     RDKit          3D

 19 20  0  0  0  0  0  0  0  0999 V2000
    6.6231   14.3552   24.4787 C   0  0  0  0  0  0  0  0  0  0  0  0
    6.6024   12.9506   25.0055 C   0  0  0  0  0  0  0  0  0  0  0  0
    5.4852   12.5185   25.7353 C   0  0  0  0  0  0  0  0  0  0  0  0
    5.3547   11.1808   26.0799 C   0  0  0  0  0  0  0  0  0  0  0  0
    4.2402   10.7838   26.7579 O   0  0  0  0  0  0  0  0  0  0  0  0
    6.3157   10.2597   25.6920 C   0  0  0  0  0  0  0  0  0  0  0  0
    7.4697   10.6854   25.0363 C   0  0  0  0  0  0  0  0  0  0  0  0
    7.6448   12.0424   24.7542 C   0  0  0  0  0  0  0  0  0  0  0  0
    8.9943   12.5000   24.2942 C   0  0  0  0  0  0  0  0  0  0  0  0
    9.5807   11.8982   23.4894 O   0  0  0  0  0  0  0  0  0  0  0  0
    9.4017   13.7482   25.1018 N   0  0  0  0  0  0  0  0  0  0  0  0
   10.5812   14.5738   25.0188 C   0  0  2  0  0  0  0  0  0  0  0  0
   10.7723   15.3170   26.3490 C   0  0  0  0  0  0  0  0  0  0  0  0
   10.3552   15.6299   23.9577 C   0  0  0  0  0  0  0  0  0  0  0  0
   10.3365   15.1833   22.5615 C   0  0  0  0  0  0  0  0  0  0  0  0
   11.3912   14.8680   21.7425 C   0  0  0  0  0  0  0  0  0  0  0  0
   10.9225   14.8156   20.4685 O   0  0  0  0  0  0  0  0  0  0  0  0
    9.6009   15.0889   20.6024 C   0  0  0  0  0  0  0  0  0  0  0  0
    9.1755   15.2548   21.8313 N   0  0  0  0  0  0  0  0  0  0  0  0
  1  2  1  0
  2  3  2  0
  3  4  1  0
  4  5  1  0
  4  6  2  0
  6  7  1  0
  7  8  2  0
  8  9  1  0
  9 10  2  0
  9 11  1  0
 11 12  1  0
 12 13  1  1
 12 14  1  0
 14 15  1  0
 15 16  2  0
 16 17  1  0
 17 18  1  0
 18 19  2  0
  8  2  1  0
 19 15  1  0
M  END
>  <energy_score>  (810) 
-11.132324

>  <inchikey>  (810) 
None

>  <smiles>  (810) 
None

>  <ref_pdb>  (810) 
A5594a

>  <alias>  (810) 
None

>  <HIPPO Pose ID>  (810) 
499524

>  <name>  (810) 
P499524

>  <HIPPO Compound ID>  (810) 
306308

>  <ref_mols>  (810) 
A3408a,A5594a

>  <distance_score>  (810) 
1.376521

>  <inspiration_score>  (810) 
None

$$$$
P499525
     RDKit          3D

 19 20  0  0  0  0  0  0  0  0999 V2000
    3.4340   10.6893   28.2046 C   0  0  0  0  0  0  0  0  0  0  0  0
    4.5699   11.0406   27.2874 C   0  0  0  0  0  0  0  0  0  0  0  0
    5.0981   10.0704   26.4272 C   0  0  0  0  0  0  0  0  0  0  0  0
    6.1657   10.3670   25.5891 C   0  0  0  0  0  0  0  0  0  0  0  0
    6.6667   11.6597   25.5963 C   0  0  0  0  0  0  0  0  0  0  0  0
    7.7062   12.0577   24.6452 C   0  0  0  0  0  0  0  0  0  0  0  0
    8.7402   11.5296   24.6285 O   0  0  0  0  0  0  0  0  0  0  0  0
    7.1950   13.2673   23.8547 N   0  0  0  0  0  0  0  0  0  0  0  0
    7.8749   14.1394   22.9487 C   0  0  2  0  0  0  0  0  0  0  0  0
    7.0688   14.3181   21.6686 C   0  0  0  0  0  0  0  0  0  0  0  0
    9.3549   13.7600   22.8058 C   0  0  0  0  0  0  0  0  0  0  0  0
   10.0716   14.7322   21.9786 C   0  0  0  0  0  0  0  0  0  0  0  0
   11.2392   14.5964   21.2755 C   0  0  0  0  0  0  0  0  0  0  0  0
   11.3807   15.7026   20.4984 O   0  0  0  0  0  0  0  0  0  0  0  0
   10.2996   16.4610   20.8139 C   0  0  0  0  0  0  0  0  0  0  0  0
    9.5101   15.9543   21.7250 N   0  0  0  0  0  0  0  0  0  0  0  0
    6.2205   12.6359   26.5067 C   0  0  0  0  0  0  0  0  0  0  0  0
    6.8257   14.0141   26.5975 C   0  0  0  0  0  0  0  0  0  0  0  0
    5.1497   12.3129   27.3369 C   0  0  0  0  0  0  0  0  0  0  0  0
  1  2  1  0
  2  3  2  0
  3  4  1  0
  4  5  2  0
  5  6  1  0
  6  7  2  0
  6  8  1  0
  8  9  1  0
  9 10  1  6
  9 11  1  0
 11 12  1  0
 12 13  2  0
 13 14  1  0
 14 15  1  0
 15 16  2  0
  5 17  1  0
 17 18  1  0
 17 19  2  0
 19  2  1  0
 16 12  1  0
M  END
>  <energy_score>  (811) 
-15.982118

>  <inchikey>  (811) 
None

>  <smiles>  (811) 
None

>  <ref_pdb>  (811) 
A5594a

>  <alias>  (811) 
None

>  <HIPPO Pose ID>  (811) 
499525

>  <name>  (811) 
P499525

>  <HIPPO Compound ID>  (811) 
306311

>  <ref_mols>  (811) 
A3408a,A5594a

>  <distance_score>  (811) 
1.749852

>  <inspiration_score>  (811) 
None

$$$$
P499527
     RDKit          3D

 19 20  0  0  0  0  0  0  0  0999 V2000
    9.9787   15.5506   19.5209 C   0  0  0  0  0  0  0  0  0  0  0  0
   10.5158   15.4775   20.8717 C   0  0  0  0  0  0  0  0  0  0  0  0
    9.9811   14.9861   21.9680 N   0  0  0  0  0  0  0  0  0  0  0  0
   11.0410   14.9659   22.8332 C   0  0  0  0  0  0  0  0  0  0  0  0
   10.9796   14.2021   24.0789 C   0  0  0  0  0  0  0  0  0  0  0  0
   10.6480   12.7475   23.7546 C   0  0  0  0  0  0  0  0  0  0  0  0
    9.3822   12.3872   24.3234 N   0  0  0  0  0  0  0  0  0  0  0  0
    7.9838   12.4022   23.7177 C   0  0  0  0  0  0  0  0  0  0  0  0
    7.6345   12.6349   22.6365 O   0  0  0  0  0  0  0  0  0  0  0  0
    7.0152   12.1574   24.7956 C   0  0  0  0  0  0  0  0  0  0  0  0
    6.6383   10.8661   25.1478 C   0  0  0  0  0  0  0  0  0  0  0  0
    5.7006   10.7255   26.1579 C   0  0  0  0  0  0  0  0  0  0  0  0
    5.2609    9.5123   26.4899 F   0  0  0  0  0  0  0  0  0  0  0  0
    5.1953   11.8235   26.8460 C   0  0  0  0  0  0  0  0  0  0  0  0
    5.6296   13.1055   26.5217 C   0  0  0  0  0  0  0  0  0  0  0  0
    6.5453   13.2871   25.4844 C   0  0  0  0  0  0  0  0  0  0  0  0
    7.0494   14.6588   25.1399 C   0  0  0  0  0  0  0  0  0  0  0  0
   12.1287   15.5665   22.2597 C   0  0  0  0  0  0  0  0  0  0  0  0
   11.7983   15.9110   20.9980 O   0  0  0  0  0  0  0  0  0  0  0  0
  1  2  1  0
  2  3  2  0
  3  4  1  0
  4  5  1  0
  5  6  1  0
  6  7  1  0
  7  8  1  0
  8  9  2  0
  8 10  1  0
 10 11  2  0
 11 12  1  0
 12 13  1  0
 12 14  2  0
 14 15  1  0
 15 16  2  0
 16 17  1  0
  4 18  2  0
 18 19  1  0
 19  2  1  0
 16 10  1  0
M  END
>  <energy_score>  (812) 
-8.425401

>  <inchikey>  (812) 
None

>  <smiles>  (812) 
None

>  <ref_pdb>  (812) 
A5594a

>  <alias>  (812) 
None

>  <HIPPO Pose ID>  (812) 
499527

>  <name>  (812) 
P499527

>  <HIPPO Compound ID>  (812) 
306312

>  <ref_mols>  (812) 
A3408a,A5594a

>  <distance_score>  (812) 
1.883732

>  <inspiration_score>  (812) 
None

$$$$
P499528
     RDKit          3D

 19 20  0  0  0  0  0  0  0  0999 V2000
    7.4153   14.4332   24.8803 C   0  0  0  0  0  0  0  0  0  0  0  0
    7.1907   12.9998   25.2387 C   0  0  0  0  0  0  0  0  0  0  0  0
    6.0461   12.6976   25.9964 C   0  0  0  0  0  0  0  0  0  0  0  0
    5.2958   13.6895   26.5005 F   0  0  0  0  0  0  0  0  0  0  0  0
    5.6374   11.3935   26.2348 C   0  0  0  0  0  0  0  0  0  0  0  0
    6.3634   10.3476   25.6890 C   0  0  0  0  0  0  0  0  0  0  0  0
    7.5184   10.6141   24.9501 C   0  0  0  0  0  0  0  0  0  0  0  0
    7.9621   11.9365   24.7395 C   0  0  0  0  0  0  0  0  0  0  0  0
    9.1926   12.0943   23.8883 C   0  0  0  0  0  0  0  0  0  0  0  0
    9.2428   11.4258   22.9357 O   0  0  0  0  0  0  0  0  0  0  0  0
   10.2023   13.1198   24.4442 N   0  0  0  0  0  0  0  0  0  0  0  0
   11.4588   13.6128   23.8854 C   0  0  2  0  0  0  0  0  0  0  0  0
   12.5958   13.5678   24.8843 C   0  0  0  0  0  0  0  0  0  0  0  0
   11.3282   15.0575   23.3943 C   0  0  0  0  0  0  0  0  0  0  0  0
   10.3703   15.1401   22.2895 C   0  0  0  0  0  0  0  0  0  0  0  0
   10.6009   14.9880   20.9470 C   0  0  0  0  0  0  0  0  0  0  0  0
    9.4003   15.0655   20.3174 O   0  0  0  0  0  0  0  0  0  0  0  0
    8.5136   15.2414   21.3284 C   0  0  0  0  0  0  0  0  0  0  0  0
    9.0355   15.3180   22.5264 N   0  0  0  0  0  0  0  0  0  0  0  0
  1  2  1  0
  2  3  2  0
  3  4  1  0
  3  5  1  0
  5  6  2  0
  6  7  1  0
  7  8  2  0
  8  9  1  0
  9 10  2  0
  9 11  1  0
 11 12  1  0
 12 13  1  1
 12 14  1  0
 14 15  1  0
 15 16  2  0
 16 17  1  0
 17 18  1  0
 18 19  2  0
  8  2  1  0
 19 15  1  0
M  END
>  <energy_score>  (813) 
-12.264256

>  <inchikey>  (813) 
None

>  <smiles>  (813) 
None

>  <ref_pdb>  (813) 
A5594a

>  <alias>  (813) 
None

>  <HIPPO Pose ID>  (813) 
499528

>  <name>  (813) 
P499528

>  <HIPPO Compound ID>  (813) 
306313

>  <ref_mols>  (813) 
A3408a,A5594a

>  <distance_score>  (813) 
1.276092

>  <inspiration_score>  (813) 
None

$$$$
P499529
     RDKit          3D

 19 20  0  0  0  0  0  0  0  0999 V2000
   12.0150   13.2930   24.1293 C   0  0  0  0  0  0  0  0  0  0  0  0
   10.8554   14.0895   24.6889 C   0  0  1  0  0  0  0  0  0  0  0  0
   10.6104   15.4108   23.9681 C   0  0  0  0  0  0  0  0  0  0  0  0
   10.5087   15.3141   22.5027 C   0  0  0  0  0  0  0  0  0  0  0  0
   11.5243   15.3334   21.5749 C   0  0  0  0  0  0  0  0  0  0  0  0
   10.9639   15.2924   20.3404 O   0  0  0  0  0  0  0  0  0  0  0  0
    9.6332   15.2701   20.5936 C   0  0  0  0  0  0  0  0  0  0  0  0
    9.2928   15.2553   21.8651 N   0  0  0  0  0  0  0  0  0  0  0  0
    9.6226   13.3551   24.8620 N   0  0  0  0  0  0  0  0  0  0  0  0
    9.0717   12.1235   24.1046 C   0  0  0  0  0  0  0  0  0  0  0  0
    9.5608   11.4654   23.2772 O   0  0  0  0  0  0  0  0  0  0  0  0
    7.6995   11.8331   24.6325 C   0  0  0  0  0  0  0  0  0  0  0  0
    7.4091   10.5710   25.1471 C   0  0  0  0  0  0  0  0  0  0  0  0
    6.2341   10.3818   25.8766 C   0  0  0  0  0  0  0  0  0  0  0  0
    5.3658   11.4453   26.1052 C   0  0  0  0  0  0  0  0  0  0  0  0
    5.6079   12.6767   25.5036 C   0  0  0  0  0  0  0  0  0  0  0  0
    6.7411   12.8581   24.7005 C   0  0  0  0  0  0  0  0  0  0  0  0
    6.8617   14.0855   23.8448 C   0  0  0  0  0  0  0  0  0  0  0  0
    7.2754   13.6847   22.5461 O   0  0  0  0  0  0  0  0  0  0  0  0
  2  1  1  6
  2  3  1  0
  3  4  1  0
  4  5  2  0
  5  6  1  0
  6  7  1  0
  7  8  2  0
  2  9  1  0
  9 10  1  0
 10 11  2  0
 10 12  1  0
 12 13  2  0
 13 14  1  0
 14 15  2  0
 15 16  1  0
 16 17  2  0
 17 18  1  0
 18 19  1  0
  8  4  1  0
 17 12  1  0
M  END
>  <energy_score>  (814) 
-5.66668

>  <inchikey>  (814) 
None

>  <smiles>  (814) 
None

>  <ref_pdb>  (814) 
A5594a

>  <alias>  (814) 
None

>  <HIPPO Pose ID>  (814) 
499529

>  <name>  (814) 
P499529

>  <HIPPO Compound ID>  (814) 
306314

>  <ref_mols>  (814) 
A3408a,A5594a

>  <distance_score>  (814) 
1.40955

>  <inspiration_score>  (814) 
None

$$$$
P499530
     RDKit          3D

 19 20  0  0  0  0  0  0  0  0999 V2000
   11.9085   15.0182   20.5691 C   0  0  0  0  0  0  0  0  0  0  0  0
   10.7392   15.3192   21.3924 C   0  0  0  0  0  0  0  0  0  0  0  0
    9.8747   16.2450   20.9029 O   0  0  0  0  0  0  0  0  0  0  0  0
    8.9192   16.3335   21.8586 C   0  0  0  0  0  0  0  0  0  0  0  0
    9.0804   15.5286   22.8919 N   0  0  0  0  0  0  0  0  0  0  0  0
   10.2472   14.8613   22.5911 C   0  0  0  0  0  0  0  0  0  0  0  0
   10.7853   13.7726   23.4366 C   0  0  0  0  0  0  0  0  0  0  0  0
   10.1541   12.4364   23.0620 C   0  0  0  0  0  0  0  0  0  0  0  0
    8.8638   12.2684   23.6499 N   0  0  0  0  0  0  0  0  0  0  0  0
    8.2771   11.1021   24.4329 C   0  0  0  0  0  0  0  0  0  0  0  0
    8.7176   10.0542   24.6642 O   0  0  0  0  0  0  0  0  0  0  0  0
    6.9547   11.4074   25.0907 C   0  0  0  0  0  0  0  0  0  0  0  0
    6.2414   10.2711   25.5210 C   0  0  0  0  0  0  0  0  0  0  0  0
    5.1140   10.3739   26.3286 C   0  0  0  0  0  0  0  0  0  0  0  0
    4.6718   11.6252   26.7239 C   0  0  0  0  0  0  0  0  0  0  0  0
    5.3558   12.7655   26.3094 C   0  0  0  0  0  0  0  0  0  0  0  0
    6.5123   12.6832   25.5081 C   0  0  0  0  0  0  0  0  0  0  0  0
    7.1924   13.9825   25.1880 C   0  0  0  0  0  0  0  0  0  0  0  0
    7.1097   14.1630   23.7834 O   0  0  0  0  0  0  0  0  0  0  0  0
  1  2  1  0
  2  3  1  0
  3  4  1  0
  4  5  2  0
  5  6  1  0
  6  7  1  0
  7  8  1  0
  8  9  1  0
  9 10  1  0
 10 11  2  0
 10 12  1  0
 12 13  2  0
 13 14  1  0
 14 15  2  0
 15 16  1  0
 16 17  2  0
 17 18  1  0
 18 19  1  0
  6  2  2  0
 17 12  1  0
M  END
>  <energy_score>  (815) 
-10.443946

>  <inchikey>  (815) 
None

>  <smiles>  (815) 
None

>  <ref_pdb>  (815) 
A5594a

>  <alias>  (815) 
None

>  <HIPPO Pose ID>  (815) 
499530

>  <name>  (815) 
P499530

>  <HIPPO Compound ID>  (815) 
306315

>  <ref_mols>  (815) 
A3408a,A5594a

>  <distance_score>  (815) 
1.546397

>  <inspiration_score>  (815) 
None

$$$$
P499532
     RDKit          3D

 20 21  0  0  0  0  0  0  0  0999 V2000
   10.2209   15.7491   19.7079 C   0  0  0  0  0  0  0  0  0  0  0  0
   10.3377   15.2824   21.0927 C   0  0  0  0  0  0  0  0  0  0  0  0
   10.1171   14.0788   21.5703 N   0  0  0  0  0  0  0  0  0  0  0  0
   10.6662   14.1280   22.8227 C   0  0  0  0  0  0  0  0  0  0  0  0
   10.9186   12.9008   23.5966 C   0  0  0  0  0  0  0  0  0  0  0  0
   10.0033   11.7501   23.1873 C   0  0  0  0  0  0  0  0  0  0  0  0
    8.6732   11.9051   23.6870 N   0  0  0  0  0  0  0  0  0  0  0  0
    8.1170   12.8483   24.7462 C   0  0  0  0  0  0  0  0  0  0  0  0
    8.6311   13.7085   25.3339 O   0  0  0  0  0  0  0  0  0  0  0  0
    6.7329   12.5258   25.1278 C   0  0  0  0  0  0  0  0  0  0  0  0
    6.3139   11.2491   25.5521 C   0  0  0  0  0  0  0  0  0  0  0  0
    7.1107   10.0112   25.3329 C   0  0  0  0  0  0  0  0  0  0  0  0
    5.0957   11.1388   26.2341 C   0  0  0  0  0  0  0  0  0  0  0  0
    4.3265   12.2747   26.4843 C   0  0  0  0  0  0  0  0  0  0  0  0
    4.7339   13.5186   26.0035 C   0  0  0  0  0  0  0  0  0  0  0  0
    3.7409   14.8950   26.2931 Cl  0  0  0  0  0  0  0  0  0  0  0  0
    5.9350   13.6395   25.3255 C   0  0  0  0  0  0  0  0  0  0  0  0
    6.3728   14.8298   24.8909 F   0  0  0  0  0  0  0  0  0  0  0  0
   11.0348   15.4129   23.1161 C   0  0  0  0  0  0  0  0  0  0  0  0
   10.8634   16.1611   21.9969 O   0  0  0  0  0  0  0  0  0  0  0  0
  1  2  1  0
  2  3  2  0
  3  4  1  0
  4  5  1  0
  5  6  1  0
  6  7  1  0
  7  8  1  0
  8  9  2  0
  8 10  1  0
 10 11  2  0
 11 12  1  0
 11 13  1  0
 13 14  2  0
 14 15  1  0
 15 16  1  0
 15 17  2  0
 17 18  1  0
  4 19  2  0
 19 20  1  0
 20  2  1  0
 17 10  1  0
M  END
>  <energy_score>  (816) 
-4.277791

>  <inchikey>  (816) 
None

>  <smiles>  (816) 
None

>  <ref_pdb>  (816) 
A5594a

>  <alias>  (816) 
None

>  <HIPPO Pose ID>  (816) 
499532

>  <name>  (816) 
P499532

>  <HIPPO Compound ID>  (816) 
306321

>  <ref_mols>  (816) 
A3408a,A5594a

>  <distance_score>  (816) 
1.668663

>  <inspiration_score>  (816) 
None

$$$$
P499533
     RDKit          3D

 20 21  0  0  0  0  0  0  0  0999 V2000
    6.9723   14.5583   25.1177 C   0  0  0  0  0  0  0  0  0  0  0  0
    6.6859   13.1147   25.3895 C   0  0  0  0  0  0  0  0  0  0  0  0
    5.7003   12.7447   26.3072 C   0  0  0  0  0  0  0  0  0  0  0  0
    5.4387   11.3974   26.5392 C   0  0  0  0  0  0  0  0  0  0  0  0
    4.0996   10.9053   27.7802 Br  0  0  0  0  0  0  0  0  0  0  0  0
    6.1728   10.4064   25.8872 C   0  0  0  0  0  0  0  0  0  0  0  0
    7.1890   10.7499   24.9875 C   0  0  0  0  0  0  0  0  0  0  0  0
    8.0403    9.6997   24.3380 C   0  0  0  0  0  0  0  0  0  0  0  0
    7.3943   12.1110   24.7175 C   0  0  0  0  0  0  0  0  0  0  0  0
    8.3685   12.5252   23.6897 C   0  0  0  0  0  0  0  0  0  0  0  0
    8.0234   12.6733   22.5912 O   0  0  0  0  0  0  0  0  0  0  0  0
    9.7575   12.6476   24.3183 N   0  0  0  0  0  0  0  0  0  0  0  0
   11.0093   13.0724   23.7467 C   0  0  0  0  0  0  0  0  0  0  0  0
   11.1784   14.5849   23.7945 C   0  0  0  0  0  0  0  0  0  0  0  0
   10.3302   15.2079   22.7649 C   0  0  0  0  0  0  0  0  0  0  0  0
    9.0514   15.6190   23.0312 N   0  0  0  0  0  0  0  0  0  0  0  0
    8.5932   15.9530   21.8451 C   0  0  0  0  0  0  0  0  0  0  0  0
    9.4782   15.8293   20.8221 O   0  0  0  0  0  0  0  0  0  0  0  0
   10.6033   15.3619   21.4273 C   0  0  0  0  0  0  0  0  0  0  0  0
   11.7642   15.0922   20.5774 C   0  0  0  0  0  0  0  0  0  0  0  0
  1  2  1  0
  2  3  2  0
  3  4  1  0
  4  5  1  0
  4  6  2  0
  6  7  1  0
  7  8  1  0
  7  9  2  0
  9 10  1  0
 10 11  2  0
 10 12  1  0
 12 13  1  0
 13 14  1  0
 14 15  1  0
 15 16  1  0
 16 17  2  0
 17 18  1  0
 18 19  1  0
 19 20  1  0
  9  2  1  0
 19 15  2  0
M  END
>  <energy_score>  (817) 
-16.026865

>  <inchikey>  (817) 
None

>  <smiles>  (817) 
None

>  <ref_pdb>  (817) 
A5594a

>  <alias>  (817) 
None

>  <HIPPO Pose ID>  (817) 
499533

>  <name>  (817) 
P499533

>  <HIPPO Compound ID>  (817) 
306325

>  <ref_mols>  (817) 
A3408a,A5594a

>  <distance_score>  (817) 
1.849152

>  <inspiration_score>  (817) 
None

$$$$
P499535
     RDKit          3D

 20 21  0  0  0  0  0  0  0  0999 V2000
   11.7281   15.1168   20.3838 C   0  0  0  0  0  0  0  0  0  0  0  0
   10.5196   15.1467   21.2108 C   0  0  0  0  0  0  0  0  0  0  0  0
    9.3180   15.1087   20.5724 O   0  0  0  0  0  0  0  0  0  0  0  0
    8.4113   15.1387   21.5801 C   0  0  0  0  0  0  0  0  0  0  0  0
    8.9171   15.1651   22.7943 N   0  0  0  0  0  0  0  0  0  0  0  0
   10.2784   15.1937   22.5603 C   0  0  0  0  0  0  0  0  0  0  0  0
   11.2698   15.1833   23.6579 C   0  0  0  0  0  0  0  0  0  0  0  0
   11.4915   13.7714   24.1793 C   0  0  0  0  0  0  0  0  0  0  0  0
   10.2332   13.1983   24.5739 N   0  0  0  0  0  0  0  0  0  0  0  0
    9.3453   12.1625   23.8711 C   0  0  0  0  0  0  0  0  0  0  0  0
    9.5259   11.5509   22.9001 O   0  0  0  0  0  0  0  0  0  0  0  0
    8.0604   11.9636   24.6074 C   0  0  0  0  0  0  0  0  0  0  0  0
    7.3665   13.0540   25.1514 C   0  0  0  0  0  0  0  0  0  0  0  0
    7.8156   14.3399   25.0636 O   0  0  0  0  0  0  0  0  0  0  0  0
    6.1866   12.8782   25.8705 C   0  0  0  0  0  0  0  0  0  0  0  0
    5.6598   11.6036   26.0158 C   0  0  0  0  0  0  0  0  0  0  0  0
    6.3273   10.5239   25.4488 C   0  0  0  0  0  0  0  0  0  0  0  0
    5.7607    9.3174   25.5360 F   0  0  0  0  0  0  0  0  0  0  0  0
    7.5411   10.6679   24.7670 C   0  0  0  0  0  0  0  0  0  0  0  0
    8.2324    9.4604   24.2053 C   0  0  0  0  0  0  0  0  0  0  0  0
  1  2  1  0
  2  3  1  0
  3  4  1  0
  4  5  2  0
  5  6  1  0
  6  7  1  0
  7  8  1  0
  8  9  1  0
  9 10  1  0
 10 11  2  0
 10 12  1  0
 12 13  2  0
 13 14  1  0
 13 15  1  0
 15 16  2  0
 16 17  1  0
 17 18  1  0
 17 19  2  0
 19 20  1  0
  6  2  2  0
 19 12  1  0
M  END
>  <energy_score>  (818) 
-33.101573

>  <inchikey>  (818) 
None

>  <smiles>  (818) 
None

>  <ref_pdb>  (818) 
A5594a

>  <alias>  (818) 
None

>  <HIPPO Pose ID>  (818) 
499535

>  <name>  (818) 
P499535

>  <HIPPO Compound ID>  (818) 
306329

>  <ref_mols>  (818) 
A3408a,A5594a

>  <distance_score>  (818) 
1.721615

>  <inspiration_score>  (818) 
None

$$$$
P499536
     RDKit          3D

 20 21  0  0  0  0  0  0  0  0999 V2000
   10.0399   15.5050   19.9311 C   0  0  0  0  0  0  0  0  0  0  0  0
   10.4367   15.0010   21.2469 C   0  0  0  0  0  0  0  0  0  0  0  0
    9.9340   14.0045   21.9475 N   0  0  0  0  0  0  0  0  0  0  0  0
   10.8147   13.8795   22.9919 C   0  0  0  0  0  0  0  0  0  0  0  0
   10.7619   12.7715   23.9678 C   0  0  0  0  0  0  0  0  0  0  0  0
    9.6822   11.7257   23.6869 C   0  0  0  0  0  0  0  0  0  0  0  0
    8.5193   12.0772   24.4507 N   0  0  0  0  0  0  0  0  0  0  0  0
    7.2866   11.2466   24.8288 C   0  0  0  0  0  0  0  0  0  0  0  0
    7.0512   10.1236   24.6481 O   0  0  0  0  0  0  0  0  0  0  0  0
    6.2213   12.1118   25.4393 C   0  0  0  0  0  0  0  0  0  0  0  0
    5.3546   11.6466   26.4366 C   0  0  0  0  0  0  0  0  0  0  0  0
    5.3718    9.9609   27.2538 Br  0  0  0  0  0  0  0  0  0  0  0  0
    4.3400   12.4656   26.9462 C   0  0  0  0  0  0  0  0  0  0  0  0
    4.1532   13.7498   26.4659 C   0  0  0  0  0  0  0  0  0  0  0  0
    4.9652   14.2186   25.4500 C   0  0  0  0  0  0  0  0  0  0  0  0
    5.9700   13.4000   24.9314 C   0  0  0  0  0  0  0  0  0  0  0  0
    6.6976   13.9938   23.8104 C   0  0  0  0  0  0  0  0  0  0  0  0
    7.7497   14.5703   24.0570 O   0  0  0  0  0  0  0  0  0  0  0  0
   11.7597   14.8721   22.9205 C   0  0  0  0  0  0  0  0  0  0  0  0
   11.5305   15.5983   21.8028 O   0  0  0  0  0  0  0  0  0  0  0  0
  1  2  1  0
  2  3  2  0
  3  4  1  0
  4  5  1  0
  5  6  1  0
  6  7  1  0
  7  8  1  0
  8  9  2  0
  8 10  1  0
 10 11  2  0
 11 12  1  0
 11 13  1  0
 13 14  2  0
 14 15  1  0
 15 16  2  0
 16 17  1  0
 17 18  2  0
  4 19  2  0
 19 20  1  0
 20  2  1  0
 16 10  1  0
M  END
>  <energy_score>  (819) 
-9.247407

>  <inchikey>  (819) 
None

>  <smiles>  (819) 
None

>  <ref_pdb>  (819) 
A5594a

>  <alias>  (819) 
None

>  <HIPPO Pose ID>  (819) 
499536

>  <name>  (819) 
P499536

>  <HIPPO Compound ID>  (819) 
306330

>  <ref_mols>  (819) 
A3408a,A5594a

>  <distance_score>  (819) 
1.794207

>  <inspiration_score>  (819) 
None

$$$$
P499538
     RDKit          3D

 20 21  0  0  0  0  0  0  0  0999 V2000
    8.2815    9.3258   24.2524 C   0  0  0  0  0  0  0  0  0  0  0  0
    7.5366   10.5029   24.8088 C   0  0  0  0  0  0  0  0  0  0  0  0
    6.3996   10.3275   25.6191 C   0  0  0  0  0  0  0  0  0  0  0  0
    5.6327   11.4162   26.0416 C   0  0  0  0  0  0  0  0  0  0  0  0
    5.9245   12.6862   25.5612 C   0  0  0  0  0  0  0  0  0  0  0  0
    7.0244   12.8472   24.7176 C   0  0  0  0  0  0  0  0  0  0  0  0
    7.1094   14.0565   23.9128 C   0  0  0  0  0  0  0  0  0  0  0  0
    7.2394   13.9343   22.7007 O   0  0  0  0  0  0  0  0  0  0  0  0
    7.8979   11.8004   24.4324 C   0  0  0  0  0  0  0  0  0  0  0  0
    9.2472   12.0733   23.8368 C   0  0  0  0  0  0  0  0  0  0  0  0
    9.6226   11.4324   22.9419 O   0  0  0  0  0  0  0  0  0  0  0  0
    9.9638   13.1708   24.6502 N   0  0  0  0  0  0  0  0  0  0  0  0
   11.2592   13.7734   24.4695 C   0  0  0  0  0  0  0  0  0  0  0  0
   11.6038   14.1372   23.0475 C   0  0  0  0  0  0  0  0  0  0  0  0
   10.6165   14.9809   22.3565 C   0  0  0  0  0  0  0  0  0  0  0  0
    9.5776   15.6362   22.9732 N   0  0  0  0  0  0  0  0  0  0  0  0
    8.9482   16.1995   21.9602 C   0  0  0  0  0  0  0  0  0  0  0  0
    9.5143   16.0148   20.7427 O   0  0  0  0  0  0  0  0  0  0  0  0
   10.5942   15.2406   21.0099 C   0  0  0  0  0  0  0  0  0  0  0  0
   11.4421   14.8760   19.8778 C   0  0  0  0  0  0  0  0  0  0  0  0
  1  2  1  0
  2  3  2  0
  3  4  1  0
  4  5  2  0
  5  6  1  0
  6  7  1  0
  7  8  2  0
  6  9  2  0
  9 10  1  0
 10 11  2  0
 10 12  1  0
 12 13  1  0
 13 14  1  0
 14 15  1  0
 15 16  1  0
 16 17  2  0
 17 18  1  0
 18 19  1  0
 19 20  1  0
  9  2  1  0
 19 15  2  0
M  END
>  <energy_score>  (820) 
-10.052486

>  <inchikey>  (820) 
None

>  <smiles>  (820) 
None

>  <ref_pdb>  (820) 
A5594a

>  <alias>  (820) 
None

>  <HIPPO Pose ID>  (820) 
499538

>  <name>  (820) 
P499538

>  <HIPPO Compound ID>  (820) 
306333

>  <ref_mols>  (820) 
A3408a,A5594a

>  <distance_score>  (820) 
1.537289

>  <inspiration_score>  (820) 
None

$$$$
P499540
     RDKit          3D

 20 21  0  0  0  0  0  0  0  0999 V2000
    7.0090   14.6145   23.8008 C   0  0  0  0  0  0  0  0  0  0  0  0
    7.3431   13.9649   25.1409 C   0  0  0  0  0  0  0  0  0  0  0  0
    6.4126   12.8258   25.5091 C   0  0  0  0  0  0  0  0  0  0  0  0
    5.2630   13.2022   26.2349 C   0  0  0  0  0  0  0  0  0  0  0  0
    4.3717   12.2614   26.7658 C   0  0  0  0  0  0  0  0  0  0  0  0
    3.1987   12.7052   27.5886 C   0  0  0  0  0  0  0  0  0  0  0  0
    4.6179   10.9078   26.5683 C   0  0  0  0  0  0  0  0  0  0  0  0
    5.7075   10.5107   25.8071 C   0  0  0  0  0  0  0  0  0  0  0  0
    6.6122   11.4459   25.2658 C   0  0  0  0  0  0  0  0  0  0  0  0
    7.8609   10.8189   24.7293 C   0  0  0  0  0  0  0  0  0  0  0  0
    8.1129    9.7644   25.1370 O   0  0  0  0  0  0  0  0  0  0  0  0
    8.6449   11.7288   23.8036 N   0  0  0  0  0  0  0  0  0  0  0  0
    9.9499   11.5860   23.2513 C   0  0  0  0  0  0  0  0  0  0  0  0
   10.8152   12.7175   23.8255 C   0  0  0  0  0  0  0  0  0  0  0  0
   10.8049   13.9284   22.9818 C   0  0  0  0  0  0  0  0  0  0  0  0
   11.7668   14.9033   22.9054 C   0  0  0  0  0  0  0  0  0  0  0  0
   11.4867   15.6853   21.8367 O   0  0  0  0  0  0  0  0  0  0  0  0
   10.3486   15.1349   21.3230 C   0  0  0  0  0  0  0  0  0  0  0  0
    9.9360   15.6388   20.0134 C   0  0  0  0  0  0  0  0  0  0  0  0
    9.8354   14.1551   22.0390 N   0  0  0  0  0  0  0  0  0  0  0  0
  1  2  1  0
  2  3  1  0
  3  4  2  0
  4  5  1  0
  5  6  1  0
  5  7  2  0
  7  8  1  0
  8  9  2  0
  9 10  1  0
 10 11  2  0
 10 12  1  0
 12 13  1  0
 13 14  1  0
 14 15  1  0
 15 16  2  0
 16 17  1  0
 17 18  1  0
 18 19  1  0
 18 20  2  0
  9  3  1  0
 20 15  1  0
M  END
>  <energy_score>  (821) 
-2.297996

>  <inchikey>  (821) 
None

>  <smiles>  (821) 
None

>  <ref_pdb>  (821) 
A5594a

>  <alias>  (821) 
None

>  <HIPPO Pose ID>  (821) 
499540

>  <name>  (821) 
P499540

>  <HIPPO Compound ID>  (821) 
306337

>  <ref_mols>  (821) 
A3408a,A5594a

>  <distance_score>  (821) 
1.56614

>  <inspiration_score>  (821) 
None

$$$$
P499541
     RDKit          3D

 20 22  0  0  0  0  0  0  0  0999 V2000
   11.1796   14.6971   24.8738 C   0  0  0  0  0  0  0  0  0  0  0  0
   10.7868   13.3889   24.1927 C   0  0  2  0  0  0  0  0  0  0  0  0
   11.0997   13.3560   22.6980 C   0  0  0  0  0  0  0  0  0  0  0  0
   10.7044   14.5370   21.9115 C   0  0  0  0  0  0  0  0  0  0  0  0
   11.3087   15.0184   20.7760 C   0  0  0  0  0  0  0  0  0  0  0  0
   10.5916   16.0841   20.3357 O   0  0  0  0  0  0  0  0  0  0  0  0
    9.6054   16.2123   21.2593 C   0  0  0  0  0  0  0  0  0  0  0  0
    9.6267   15.3199   22.2204 N   0  0  0  0  0  0  0  0  0  0  0  0
    9.4230   13.0178   24.5101 N   0  0  0  0  0  0  0  0  0  0  0  0
    8.5764   11.8246   24.0364 C   0  0  0  0  0  0  0  0  0  0  0  0
    8.8136   10.9934   23.2574 O   0  0  0  0  0  0  0  0  0  0  0  0
    7.2887   11.7788   24.7840 C   0  0  0  0  0  0  0  0  0  0  0  0
    7.0172   10.5585   25.4262 C   0  0  0  0  0  0  0  0  0  0  0  0
    5.9414   10.4421   26.3007 C   0  0  0  0  0  0  0  0  0  0  0  0
    5.1622   11.5512   26.5762 C   0  0  0  0  0  0  0  0  0  0  0  0
    5.3881   12.7357   25.8792 C   0  0  0  0  0  0  0  0  0  0  0  0
    6.3964   12.8622   24.8950 C   0  0  0  0  0  0  0  0  0  0  0  0
    6.2106   14.0197   23.9339 C   0  0  0  0  0  0  0  0  0  0  0  0
    7.1376   15.1733   23.7602 C   0  0  0  0  0  0  0  0  0  0  0  0
    6.9507   14.1795   22.6398 C   0  0  0  0  0  0  0  0  0  0  0  0
  2  1  1  6
  2  3  1  0
  3  4  1  0
  4  5  2  0
  5  6  1  0
  6  7  1  0
  7  8  2  0
  2  9  1  0
  9 10  1  0
 10 11  2  0
 10 12  1  0
 12 13  2  0
 13 14  1  0
 14 15  2  0
 15 16  1  0
 16 17  2  0
 17 18  1  0
 18 19  1  0
 19 20  1  0
  8  4  1  0
 17 12  1  0
 20 18  1  0
M  END
>  <energy_score>  (822) 
-10.060115

>  <inchikey>  (822) 
None

>  <smiles>  (822) 
None

>  <ref_pdb>  (822) 
A5594a

>  <alias>  (822) 
None

>  <HIPPO Pose ID>  (822) 
499541

>  <name>  (822) 
P499541

>  <HIPPO Compound ID>  (822) 
306339

>  <ref_mols>  (822) 
A3408a,A5594a

>  <distance_score>  (822) 
1.585095

>  <inspiration_score>  (822) 
None

$$$$
P499542
     RDKit          3D

 20 22  0  0  0  0  0  0  0  0999 V2000
   10.0407   15.6186   19.9484 C   0  0  0  0  0  0  0  0  0  0  0  0
   10.4296   15.1102   21.2650 C   0  0  0  0  0  0  0  0  0  0  0  0
    9.9055   14.1257   21.9658 N   0  0  0  0  0  0  0  0  0  0  0  0
   10.8263   13.9269   22.9617 C   0  0  0  0  0  0  0  0  0  0  0  0
   10.7890   12.7440   23.8447 C   0  0  0  0  0  0  0  0  0  0  0  0
    9.9384   11.6021   23.2743 C   0  0  0  0  0  0  0  0  0  0  0  0
    8.6256   11.7367   23.8099 N   0  0  0  0  0  0  0  0  0  0  0  0
    7.8173   10.7997   24.6892 C   0  0  0  0  0  0  0  0  0  0  0  0
    8.0536    9.7279   25.0623 O   0  0  0  0  0  0  0  0  0  0  0  0
    6.5538   11.4153   25.2367 C   0  0  0  0  0  0  0  0  0  0  0  0
    5.7126   10.4662   25.8636 C   0  0  0  0  0  0  0  0  0  0  0  0
    4.6606   10.8460   26.6801 C   0  0  0  0  0  0  0  0  0  0  0  0
    4.4234   12.1915   26.8824 C   0  0  0  0  0  0  0  0  0  0  0  0
    5.2217   13.1444   26.2463 C   0  0  0  0  0  0  0  0  0  0  0  0
    6.2953   12.8065   25.3921 C   0  0  0  0  0  0  0  0  0  0  0  0
    7.0843   13.9564   24.7691 C   0  0  0  0  0  0  0  0  0  0  0  0
    6.4515   15.2753   24.3928 C   0  0  0  0  0  0  0  0  0  0  0  0
    6.7934   14.3137   23.3117 C   0  0  0  0  0  0  0  0  0  0  0  0
   11.7875   14.9036   22.9048 C   0  0  0  0  0  0  0  0  0  0  0  0
   11.5450   15.6712   21.8157 O   0  0  0  0  0  0  0  0  0  0  0  0
  1  2  1  0
  2  3  2  0
  3  4  1  0
  4  5  1  0
  5  6  1  0
  6  7  1  0
  7  8  1  0
  8  9  2  0
  8 10  1  0
 10 11  2  0
 11 12  1  0
 12 13  2  0
 13 14  1  0
 14 15  2  0
 15 16  1  0
 16 17  1  0
 17 18  1  0
  4 19  2  0
 19 20  1  0
 20  2  1  0
 15 10  1  0
 18 16  1  0
M  END
>  <energy_score>  (823) 
-0.830611

>  <inchikey>  (823) 
None

>  <smiles>  (823) 
None

>  <ref_pdb>  (823) 
A5594a

>  <alias>  (823) 
None

>  <HIPPO Pose ID>  (823) 
499542

>  <name>  (823) 
P499542

>  <HIPPO Compound ID>  (823) 
306340

>  <ref_mols>  (823) 
A3408a,A5594a

>  <distance_score>  (823) 
1.500603

>  <inspiration_score>  (823) 
None

$$$$
P499543
     RDKit          3D

 20 22  0  0  0  0  0  0  0  0999 V2000
   12.2897   15.7050   21.7219 C   0  0  0  0  0  0  0  0  0  0  0  0
   10.9227   15.2090   21.8172 C   0  0  0  0  0  0  0  0  0  0  0  0
    9.9945   15.8916   21.0889 O   0  0  0  0  0  0  0  0  0  0  0  0
    8.8363   15.2584   21.3761 C   0  0  0  0  0  0  0  0  0  0  0  0
    8.9573   14.2215   22.1615 N   0  0  0  0  0  0  0  0  0  0  0  0
   10.2874   14.1791   22.4706 C   0  0  0  0  0  0  0  0  0  0  0  0
   10.8285   13.1335   23.3732 C   0  0  0  0  0  0  0  0  0  0  0  0
   10.0314   11.8297   23.3246 C   0  0  0  0  0  0  0  0  0  0  0  0
    8.8718   11.8230   24.1607 N   0  0  0  0  0  0  0  0  0  0  0  0
    7.4399   12.2381   23.8670 C   0  0  0  0  0  0  0  0  0  0  0  0
    6.9453   12.5821   22.8780 O   0  0  0  0  0  0  0  0  0  0  0  0
    6.6430   12.0773   25.0902 C   0  0  0  0  0  0  0  0  0  0  0  0
    6.3254   10.7499   25.4424 C   0  0  0  0  0  0  0  0  0  0  0  0
    5.5078   10.5030   26.5322 C   0  0  0  0  0  0  0  0  0  0  0  0
    5.0518   11.5738   27.2846 C   0  0  0  0  0  0  0  0  0  0  0  0
    5.4194   12.8824   26.9481 C   0  0  0  0  0  0  0  0  0  0  0  0
    6.2318   13.1899   25.8392 C   0  0  0  0  0  0  0  0  0  0  0  0
    6.5646   14.6560   25.6001 C   0  0  0  0  0  0  0  0  0  0  0  0
    7.8486   15.1353   24.9892 C   0  0  0  0  0  0  0  0  0  0  0  0
    6.5576   15.2910   24.2337 C   0  0  0  0  0  0  0  0  0  0  0  0
  1  2  1  0
  2  3  1  0
  3  4  1  0
  4  5  2  0
  5  6  1  0
  6  7  1  0
  7  8  1  0
  8  9  1  0
  9 10  1  0
 10 11  2  0
 10 12  1  0
 12 13  2  0
 13 14  1  0
 14 15  2  0
 15 16  1  0
 16 17  2  0
 17 18  1  0
 18 19  1  0
 19 20  1  0
  6  2  2  0
 17 12  1  0
 20 18  1  0
M  END
>  <energy_score>  (824) 
-0.723568

>  <inchikey>  (824) 
None

>  <smiles>  (824) 
None

>  <ref_pdb>  (824) 
A5594a

>  <alias>  (824) 
None

>  <HIPPO Pose ID>  (824) 
499543

>  <name>  (824) 
P499543

>  <HIPPO Compound ID>  (824) 
306341

>  <ref_mols>  (824) 
A3408a,A5594a

>  <distance_score>  (824) 
1.903145

>  <inspiration_score>  (824) 
None

$$$$
P499544
     RDKit          3D

 20 21  0  0  0  0  0  0  0  0999 V2000
    8.5142    9.5474   24.1330 C   0  0  0  0  0  0  0  0  0  0  0  0
    7.6522   10.6244   24.7256 C   0  0  0  0  0  0  0  0  0  0  0  0
    6.5010   10.2858   25.4631 C   0  0  0  0  0  0  0  0  0  0  0  0
    5.6022   11.2581   25.9091 C   0  0  0  0  0  0  0  0  0  0  0  0
    5.7741   12.5759   25.5125 C   0  0  0  0  0  0  0  0  0  0  0  0
    6.8871   12.9006   24.7406 C   0  0  0  0  0  0  0  0  0  0  0  0
    7.0028   14.2354   24.1614 C   0  0  0  0  0  0  0  0  0  0  0  0
    7.0430   15.1988   24.9117 O   0  0  0  0  0  0  0  0  0  0  0  0
    7.8976   11.9781   24.4733 C   0  0  0  0  0  0  0  0  0  0  0  0
    9.2502   12.5077   24.0857 C   0  0  0  0  0  0  0  0  0  0  0  0
    9.8676   11.9931   23.2434 O   0  0  0  0  0  0  0  0  0  0  0  0
    9.5847   13.7374   24.9666 N   0  0  0  0  0  0  0  0  0  0  0  0
   10.7076   14.6422   24.9247 C   0  0  2  0  0  0  0  0  0  0  0  0
   10.8378   15.3517   26.2802 C   0  0  0  0  0  0  0  0  0  0  0  0
   10.4378   15.7270   23.8927 C   0  0  0  0  0  0  0  0  0  0  0  0
   10.3866   15.2815   22.4957 C   0  0  0  0  0  0  0  0  0  0  0  0
   11.4293   15.0127   21.6436 C   0  0  0  0  0  0  0  0  0  0  0  0
   10.9197   14.9126   20.3887 O   0  0  0  0  0  0  0  0  0  0  0  0
    9.5911   15.1151   20.5680 C   0  0  0  0  0  0  0  0  0  0  0  0
    9.1972   15.2642   21.8096 N   0  0  0  0  0  0  0  0  0  0  0  0
  1  2  1  0
  2  3  2  0
  3  4  1  0
  4  5  2  0
  5  6  1  0
  6  7  1  0
  7  8  2  0
  6  9  2  0
  9 10  1  0
 10 11  2  0
 10 12  1  0
 12 13  1  0
 13 14  1  1
 13 15  1  0
 15 16  1  0
 16 17  2  0
 17 18  1  0
 18 19  1  0
 19 20  2  0
  9  2  1  0
 20 16  1  0
M  END
>  <energy_score>  (825) 
-17.911837

>  <inchikey>  (825) 
None

>  <smiles>  (825) 
None

>  <ref_pdb>  (825) 
A5594a

>  <alias>  (825) 
None

>  <HIPPO Pose ID>  (825) 
499544

>  <name>  (825) 
P499544

>  <HIPPO Compound ID>  (825) 
306342

>  <ref_mols>  (825) 
A3408a,A5594a

>  <distance_score>  (825) 
1.813615

>  <inspiration_score>  (825) 
None

$$$$
P499547
     RDKit          3D

 20 21  0  0  0  0  0  0  0  0999 V2000
    7.2083   14.0322   22.7507 C   0  0  0  0  0  0  0  0  0  0  0  0
    7.1641   14.1766   24.2629 C   0  0  0  0  0  0  0  0  0  0  0  0
    6.7538   12.9223   25.0081 C   0  0  0  0  0  0  0  0  0  0  0  0
    5.6490   13.0211   25.8696 C   0  0  0  0  0  0  0  0  0  0  0  0
    5.1474   11.9017   26.5293 C   0  0  0  0  0  0  0  0  0  0  0  0
    5.7163   10.6547   26.3168 C   0  0  0  0  0  0  0  0  0  0  0  0
    5.1630    9.6220   27.0091 O   0  0  0  0  0  0  0  0  0  0  0  0
    6.8167   10.5163   25.4807 C   0  0  0  0  0  0  0  0  0  0  0  0
    7.3722   11.6598   24.8714 C   0  0  0  0  0  0  0  0  0  0  0  0
    8.6560   11.4749   24.1240 C   0  0  0  0  0  0  0  0  0  0  0  0
    8.7716   10.5792   23.3929 O   0  0  0  0  0  0  0  0  0  0  0  0
    9.6487   12.5819   24.5063 N   0  0  0  0  0  0  0  0  0  0  0  0
   10.9621   12.8758   23.9983 C   0  0  0  0  0  0  0  0  0  0  0  0
   11.3289   14.3401   24.1983 C   0  0  0  0  0  0  0  0  0  0  0  0
   11.2382   15.0356   22.9106 C   0  0  0  0  0  0  0  0  0  0  0  0
   12.2411   15.6563   22.2162 C   0  0  0  0  0  0  0  0  0  0  0  0
   11.7882   15.9358   20.9790 O   0  0  0  0  0  0  0  0  0  0  0  0
   10.5194   15.4522   20.9852 C   0  0  0  0  0  0  0  0  0  0  0  0
    9.8551   15.4880   19.6918 C   0  0  0  0  0  0  0  0  0  0  0  0
   10.1096   14.9694   22.1389 N   0  0  0  0  0  0  0  0  0  0  0  0
  1  2  1  0
  2  3  1  0
  3  4  2  0
  4  5  1  0
  5  6  2  0
  6  7  1  0
  6  8  1  0
  8  9  2  0
  9 10  1  0
 10 11  2  0
 10 12  1  0
 12 13  1  0
 13 14  1  0
 14 15  1  0
 15 16  2  0
 16 17  1  0
 17 18  1  0
 18 19  1  0
 18 20  2  0
  9  3  1  0
 20 15  1  0
M  END
>  <energy_score>  (826) 
-3.408546

>  <inchikey>  (826) 
None

>  <smiles>  (826) 
None

>  <ref_pdb>  (826) 
A5594a

>  <alias>  (826) 
None

>  <HIPPO Pose ID>  (826) 
499547

>  <name>  (826) 
P499547

>  <HIPPO Compound ID>  (826) 
306345

>  <ref_mols>  (826) 
A3408a,A5594a

>  <distance_score>  (826) 
1.542501

>  <inspiration_score>  (826) 
None

$$$$
P499548
     RDKit          3D

 20 21  0  0  0  0  0  0  0  0999 V2000
    6.4284   14.5293   23.9578 C   0  0  0  0  0  0  0  0  0  0  0  0
    7.0800   14.0035   25.2317 C   0  0  0  0  0  0  0  0  0  0  0  0
    6.4685   12.6786   25.6162 C   0  0  0  0  0  0  0  0  0  0  0  0
    5.3409   12.7934   26.4624 C   0  0  0  0  0  0  0  0  0  0  0  0
    4.6709   11.6807   26.9552 C   0  0  0  0  0  0  0  0  0  0  0  0
    5.0911   10.4216   26.5875 C   0  0  0  0  0  0  0  0  0  0  0  0
    4.4523    9.3585   27.1477 O   0  0  0  0  0  0  0  0  0  0  0  0
    6.1529   10.2728   25.7108 C   0  0  0  0  0  0  0  0  0  0  0  0
    6.8777   11.3870   25.2186 C   0  0  0  0  0  0  0  0  0  0  0  0
    8.1531   10.9947   24.5034 C   0  0  0  0  0  0  0  0  0  0  0  0
    8.4982    9.9021   24.6932 O   0  0  0  0  0  0  0  0  0  0  0  0
    8.8280   12.1250   23.7342 N   0  0  0  0  0  0  0  0  0  0  0  0
   10.1117   12.1877   23.1133 C   0  0  0  0  0  0  0  0  0  0  0  0
   10.8424   13.4953   23.3802 C   0  0  0  0  0  0  0  0  0  0  0  0
   10.2648   14.5894   22.5709 C   0  0  0  0  0  0  0  0  0  0  0  0
    9.0370   15.1225   22.8678 N   0  0  0  0  0  0  0  0  0  0  0  0
    8.8363   15.9934   21.9016 C   0  0  0  0  0  0  0  0  0  0  0  0
    9.8239   16.0654   20.9794 O   0  0  0  0  0  0  0  0  0  0  0  0
   10.7497   15.1765   21.4270 C   0  0  0  0  0  0  0  0  0  0  0  0
   11.9535   15.0378   20.6124 C   0  0  0  0  0  0  0  0  0  0  0  0
  1  2  1  0
  2  3  1  0
  3  4  2  0
  4  5  1  0
  5  6  2  0
  6  7  1  0
  6  8  1  0
  8  9  2  0
  9 10  1  0
 10 11  2  0
 10 12  1  0
 12 13  1  0
 13 14  1  0
 14 15  1  0
 15 16  1  0
 16 17  2  0
 17 18  1  0
 18 19  1  0
 19 20  1  0
  9  3  1  0
 19 15  2  0
M  END
>  <energy_score>  (827) 
-4.429462

>  <inchikey>  (827) 
None

>  <smiles>  (827) 
None

>  <ref_pdb>  (827) 
A5594a

>  <alias>  (827) 
None

>  <HIPPO Pose ID>  (827) 
499548

>  <name>  (827) 
P499548

>  <HIPPO Compound ID>  (827) 
306346

>  <ref_mols>  (827) 
A3408a,A5594a

>  <distance_score>  (827) 
1.577726

>  <inspiration_score>  (827) 
None

$$$$
P499549
     RDKit          3D

 20 21  0  0  0  0  0  0  0  0999 V2000
    4.5680   14.6858   25.5284 C   0  0  0  0  0  0  0  0  0  0  0  0
    5.3535   13.4048   25.6272 C   0  0  0  0  0  0  0  0  0  0  0  0
    4.8848   12.3969   26.4742 C   0  0  0  0  0  0  0  0  0  0  0  0
    5.5238   11.1630   26.5304 C   0  0  0  0  0  0  0  0  0  0  0  0
    4.8269    9.8789   27.7241 Br  0  0  0  0  0  0  0  0  0  0  0  0
    6.6723   10.9245   25.7819 C   0  0  0  0  0  0  0  0  0  0  0  0
    7.2004   11.9540   24.9920 C   0  0  0  0  0  0  0  0  0  0  0  0
    8.5473   11.7435   24.3660 C   0  0  0  0  0  0  0  0  0  0  0  0
    8.7843   10.7221   23.8578 O   0  0  0  0  0  0  0  0  0  0  0  0
    9.4398   12.9872   24.5784 N   0  0  0  0  0  0  0  0  0  0  0  0
   10.7869   13.2682   24.1226 C   0  0  2  0  0  0  0  0  0  0  0  0
   11.3080   14.5740   24.7221 C   0  0  0  0  0  0  0  0  0  0  0  0
   10.9027   13.2220   22.5999 C   0  0  0  0  0  0  0  0  0  0  0  0
   10.4402   14.4391   21.9091 C   0  0  0  0  0  0  0  0  0  0  0  0
   11.1162   15.1671   20.9608 C   0  0  0  0  0  0  0  0  0  0  0  0
   10.3284   16.2106   20.5968 O   0  0  0  0  0  0  0  0  0  0  0  0
    9.2220   16.0698   21.3727 C   0  0  0  0  0  0  0  0  0  0  0  0
    9.2257   15.0225   22.1641 N   0  0  0  0  0  0  0  0  0  0  0  0
    6.4910   13.1614   24.8326 C   0  0  0  0  0  0  0  0  0  0  0  0
    6.8924   14.1542   23.7790 C   0  0  0  0  0  0  0  0  0  0  0  0
  1  2  1  0
  2  3  2  0
  3  4  1  0
  4  5  1  0
  4  6  2  0
  6  7  1  0
  7  8  1  0
  8  9  2  0
  8 10  1  0
 10 11  1  0
 11 12  1  6
 11 13  1  0
 13 14  1  0
 14 15  2  0
 15 16  1  0
 16 17  1  0
 17 18  2  0
  7 19  2  0
 19 20  1  0
 19  2  1  0
 18 14  1  0
M  END
>  <energy_score>  (828) 
-7.194333

>  <inchikey>  (828) 
None

>  <smiles>  (828) 
None

>  <ref_pdb>  (828) 
A5594a

>  <alias>  (828) 
None

>  <HIPPO Pose ID>  (828) 
499549

>  <name>  (828) 
P499549

>  <HIPPO Compound ID>  (828) 
306348

>  <ref_mols>  (828) 
A3408a,A5594a

>  <distance_score>  (828) 
1.61315

>  <inspiration_score>  (828) 
None

$$$$
P499550
     RDKit          3D

 20 21  0  0  0  0  0  0  0  0999 V2000
   11.9524   15.4754   21.5839 C   0  0  0  0  0  0  0  0  0  0  0  0
   10.5717   15.0358   21.8059 C   0  0  0  0  0  0  0  0  0  0  0  0
    9.5934   15.7931   21.2362 O   0  0  0  0  0  0  0  0  0  0  0  0
    8.4434   15.1886   21.6190 C   0  0  0  0  0  0  0  0  0  0  0  0
    8.5946   14.0993   22.3370 N   0  0  0  0  0  0  0  0  0  0  0  0
    9.9654   13.9885   22.4620 C   0  0  0  0  0  0  0  0  0  0  0  0
   10.5959   12.8731   23.2133 C   0  0  0  0  0  0  0  0  0  0  0  0
    9.7945   11.5719   23.1547 C   0  0  0  0  0  0  0  0  0  0  0  0
    8.5296   11.7480   23.8026 N   0  0  0  0  0  0  0  0  0  0  0  0
    7.7982   10.8640   24.7985 C   0  0  0  0  0  0  0  0  0  0  0  0
    8.0609    9.8102   25.2022 O   0  0  0  0  0  0  0  0  0  0  0  0
    6.5976   11.5130   25.4258 C   0  0  0  0  0  0  0  0  0  0  0  0
    5.7184   10.5944   26.0440 C   0  0  0  0  0  0  0  0  0  0  0  0
    4.7016   11.0354   26.8750 C   0  0  0  0  0  0  0  0  0  0  0  0
    3.6505    9.7139   28.0860 I   0  0  0  0  0  0  0  0  0  0  0  0
    4.4435   12.3898   26.9864 C   0  0  0  0  0  0  0  0  0  0  0  0
    5.2873   13.3105   26.3690 C   0  0  0  0  0  0  0  0  0  0  0  0
    4.8792   14.9827   26.5931 Cl  0  0  0  0  0  0  0  0  0  0  0  0
    6.4410   12.9015   25.6699 C   0  0  0  0  0  0  0  0  0  0  0  0
    7.4430   13.9680   25.3049 C   0  0  0  0  0  0  0  0  0  0  0  0
  1  2  1  0
  2  3  1  0
  3  4  1  0
  4  5  2  0
  5  6  1  0
  6  7  1  0
  7  8  1  0
  8  9  1  0
  9 10  1  0
 10 11  2  0
 10 12  1  0
 12 13  2  0
 13 14  1  0
 14 15  1  0
 14 16  2  0
 16 17  1  0
 17 18  1  0
 17 19  2  0
 19 20  1  0
  6  2  2  0
 19 12  1  0
M  END
>  <energy_score>  (829) 
-5.374247

>  <inchikey>  (829) 
None

>  <smiles>  (829) 
None

>  <ref_pdb>  (829) 
A5594a

>  <alias>  (829) 
None

>  <HIPPO Pose ID>  (829) 
499550

>  <name>  (829) 
P499550

>  <HIPPO Compound ID>  (829) 
306352

>  <ref_mols>  (829) 
A3408a,A5594a

>  <distance_score>  (829) 
1.645555

>  <inspiration_score>  (829) 
None

$$$$
P499555
     RDKit          3D

 20 21  0  0  0  0  0  0  0  0999 V2000
    7.0710   14.4326   23.1900 C   0  0  0  0  0  0  0  0  0  0  0  0
    7.3215   14.1318   24.6397 C   0  0  0  0  0  0  0  0  0  0  0  0
    7.8055   14.9124   25.4542 O   0  0  0  0  0  0  0  0  0  0  0  0
    6.9739   12.7920   25.1115 C   0  0  0  0  0  0  0  0  0  0  0  0
    5.8236   12.6783   25.8978 C   0  0  0  0  0  0  0  0  0  0  0  0
    5.3815   11.4188   26.2773 C   0  0  0  0  0  0  0  0  0  0  0  0
    6.0776   10.2895   25.8528 C   0  0  0  0  0  0  0  0  0  0  0  0
    7.2530   10.4106   25.1016 C   0  0  0  0  0  0  0  0  0  0  0  0
    7.7396   11.6770   24.7618 C   0  0  0  0  0  0  0  0  0  0  0  0
    9.0068   11.7896   23.9728 C   0  0  0  0  0  0  0  0  0  0  0  0
    9.1756   11.0131   23.1210 O   0  0  0  0  0  0  0  0  0  0  0  0
    9.8428   13.0201   24.3847 N   0  0  0  0  0  0  0  0  0  0  0  0
   11.0149   13.6089   23.7713 C   0  0  2  0  0  0  0  0  0  0  0  0
   12.2429   13.5610   24.6575 C   0  0  0  0  0  0  0  0  0  0  0  0
   10.7211   15.0768   23.4275 C   0  0  0  0  0  0  0  0  0  0  0  0
   10.6601   15.2481   21.9737 C   0  0  0  0  0  0  0  0  0  0  0  0
   11.7109   15.4298   21.1098 C   0  0  0  0  0  0  0  0  0  0  0  0
   11.2029   15.5152   19.8564 O   0  0  0  0  0  0  0  0  0  0  0  0
    9.8648   15.3933   20.0419 C   0  0  0  0  0  0  0  0  0  0  0  0
    9.4770   15.1981   21.2816 N   0  0  0  0  0  0  0  0  0  0  0  0
  1  2  1  0
  2  3  2  0
  2  4  1  0
  4  5  2  0
  5  6  1  0
  6  7  2  0
  7  8  1  0
  8  9  2  0
  9 10  1  0
 10 11  2  0
 10 12  1  0
 12 13  1  0
 13 14  1  1
 13 15  1  0
 15 16  1  0
 16 17  2  0
 17 18  1  0
 18 19  1  0
 19 20  2  0
  9  4  1  0
 20 16  1  0
M  END
>  <energy_score>  (830) 
-8.015609

>  <inchikey>  (830) 
None

>  <smiles>  (830) 
None

>  <ref_pdb>  (830) 
A5594a

>  <alias>  (830) 
None

>  <HIPPO Pose ID>  (830) 
499555

>  <name>  (830) 
P499555

>  <HIPPO Compound ID>  (830) 
306363

>  <ref_mols>  (830) 
A3408a,A5594a

>  <distance_score>  (830) 
1.32091

>  <inspiration_score>  (830) 
None

$$$$
P499557
     RDKit          3D

 20 21  0  0  0  0  0  0  0  0999 V2000
    6.9072   14.2516   23.2471 C   0  0  0  0  0  0  0  0  0  0  0  0
    7.2532   13.9729   24.6802 C   0  0  0  0  0  0  0  0  0  0  0  0
    7.8473   14.7201   25.4494 O   0  0  0  0  0  0  0  0  0  0  0  0
    6.8620   12.6679   25.1961 C   0  0  0  0  0  0  0  0  0  0  0  0
    5.7354   12.6400   26.0248 C   0  0  0  0  0  0  0  0  0  0  0  0
    5.2314   11.4190   26.4451 C   0  0  0  0  0  0  0  0  0  0  0  0
    5.8464   10.2438   26.0243 C   0  0  0  0  0  0  0  0  0  0  0  0
    6.9998   10.2819   25.2305 C   0  0  0  0  0  0  0  0  0  0  0  0
    7.5439   11.5074   24.8311 C   0  0  0  0  0  0  0  0  0  0  0  0
    8.7885   11.5023   23.9945 C   0  0  0  0  0  0  0  0  0  0  0  0
    8.9038   10.6357   23.2256 O   0  0  0  0  0  0  0  0  0  0  0  0
    9.7091   12.7001   24.2936 N   0  0  0  0  0  0  0  0  0  0  0  0
   11.0118   13.0318   23.7749 C   0  0  0  0  0  0  0  0  0  0  0  0
   11.2806   14.5295   23.7718 C   0  0  0  0  0  0  0  0  0  0  0  0
   10.5123   15.2129   22.7109 C   0  0  0  0  0  0  0  0  0  0  0  0
    9.3499   15.8841   22.9763 N   0  0  0  0  0  0  0  0  0  0  0  0
    9.0050   16.3804   21.8075 C   0  0  0  0  0  0  0  0  0  0  0  0
    9.8072   16.0305   20.7736 O   0  0  0  0  0  0  0  0  0  0  0  0
   10.7920   15.3062   21.3685 C   0  0  0  0  0  0  0  0  0  0  0  0
   11.8730   14.8425   20.5047 C   0  0  0  0  0  0  0  0  0  0  0  0
  1  2  1  0
  2  3  2  0
  2  4  1  0
  4  5  2  0
  5  6  1  0
  6  7  2  0
  7  8  1  0
  8  9  2  0
  9 10  1  0
 10 11  2  0
 10 12  1  0
 12 13  1  0
 13 14  1  0
 14 15  1  0
 15 16  1  0
 16 17  2  0
 17 18  1  0
 18 19  1  0
 19 20  1  0
  9  4  1  0
 19 15  2  0
M  END
>  <energy_score>  (831) 
-13.009634

>  <inchikey>  (831) 
None

>  <smiles>  (831) 
None

>  <ref_pdb>  (831) 
A5594a

>  <alias>  (831) 
None

>  <HIPPO Pose ID>  (831) 
499557

>  <name>  (831) 
P499557

>  <HIPPO Compound ID>  (831) 
306365

>  <ref_mols>  (831) 
A3408a,A5594a

>  <distance_score>  (831) 
1.620841

>  <inspiration_score>  (831) 
None

$$$$
P499558
     RDKit          3D

 20 21  0  0  0  0  0  0  0  0999 V2000
    6.9323   14.1208   24.2720 C   0  0  0  0  0  0  0  0  0  0  0  0
    6.6299   12.8736   25.0555 C   0  0  0  0  0  0  0  0  0  0  0  0
    7.3901   11.7045   24.8593 C   0  0  0  0  0  0  0  0  0  0  0  0
    8.6971   11.6843   24.1246 C   0  0  0  0  0  0  0  0  0  0  0  0
    8.9234   10.7801   23.4264 O   0  0  0  0  0  0  0  0  0  0  0  0
    9.5798   12.8844   24.5234 N   0  0  0  0  0  0  0  0  0  0  0  0
   10.8988   13.2741   24.0692 C   0  0  2  0  0  0  0  0  0  0  0  0
   11.3321   14.5960   24.7005 C   0  0  0  0  0  0  0  0  0  0  0  0
   11.0008   13.2805   22.5458 C   0  0  0  0  0  0  0  0  0  0  0  0
   10.4237   14.4709   21.8987 C   0  0  0  0  0  0  0  0  0  0  0  0
   11.0194   15.2722   20.9566 C   0  0  0  0  0  0  0  0  0  0  0  0
   10.1427   16.2559   20.6341 O   0  0  0  0  0  0  0  0  0  0  0  0
    9.0665   16.0060   21.4250 C   0  0  0  0  0  0  0  0  0  0  0  0
    9.1683   14.9439   22.1898 N   0  0  0  0  0  0  0  0  0  0  0  0
    6.9396   10.4809   25.3719 C   0  0  0  0  0  0  0  0  0  0  0  0
    5.8106   10.4315   26.1858 C   0  0  0  0  0  0  0  0  0  0  0  0
    5.1379   11.6067   26.5139 C   0  0  0  0  0  0  0  0  0  0  0  0
    3.6871   11.4528   27.7357 Br  0  0  0  0  0  0  0  0  0  0  0  0
    5.5357   12.8265   25.9458 C   0  0  0  0  0  0  0  0  0  0  0  0
    4.6899   14.2916   26.3481 Cl  0  0  0  0  0  0  0  0  0  0  0  0
  1  2  1  0
  2  3  2  0
  3  4  1  0
  4  5  2  0
  4  6  1  0
  6  7  1  0
  7  8  1  6
  7  9  1  0
  9 10  1  0
 10 11  2  0
 11 12  1  0
 12 13  1  0
 13 14  2  0
  3 15  1  0
 15 16  2  0
 16 17  1  0
 17 18  1  0
 17 19  2  0
 19 20  1  0
 19  2  1  0
 14 10  1  0
M  END
>  <energy_score>  (832) 
-13.760297

>  <inchikey>  (832) 
None

>  <smiles>  (832) 
None

>  <ref_pdb>  (832) 
A5594a

>  <alias>  (832) 
None

>  <HIPPO Pose ID>  (832) 
499558

>  <name>  (832) 
P499558

>  <HIPPO Compound ID>  (832) 
306367

>  <ref_mols>  (832) 
A3408a,A5594a

>  <distance_score>  (832) 
1.423362

>  <inspiration_score>  (832) 
None

$$$$
P499560
     RDKit          3D

 20 21  0  0  0  0  0  0  0  0999 V2000
   11.8302   14.9842   20.6187 C   0  0  0  0  0  0  0  0  0  0  0  0
   10.6865   15.3170   21.4683 C   0  0  0  0  0  0  0  0  0  0  0  0
    9.6131   15.8963   20.8657 O   0  0  0  0  0  0  0  0  0  0  0  0
    8.7576   16.1286   21.8930 C   0  0  0  0  0  0  0  0  0  0  0  0
    9.1629   15.6989   23.0692 N   0  0  0  0  0  0  0  0  0  0  0  0
   10.4045   15.1816   22.8064 C   0  0  0  0  0  0  0  0  0  0  0  0
   11.2275   14.5488   23.8556 C   0  0  0  0  0  0  0  0  0  0  0  0
   11.0068   13.0433   23.8673 C   0  0  0  0  0  0  0  0  0  0  0  0
    9.7171   12.6685   24.3990 N   0  0  0  0  0  0  0  0  0  0  0  0
    8.7434   11.5582   23.9688 C   0  0  0  0  0  0  0  0  0  0  0  0
    8.8596   10.7220   23.1687 O   0  0  0  0  0  0  0  0  0  0  0  0
    7.4787   11.5947   24.7773 C   0  0  0  0  0  0  0  0  0  0  0  0
    7.0147   10.3729   25.2770 C   0  0  0  0  0  0  0  0  0  0  0  0
    5.8979   10.3323   26.1108 C   0  0  0  0  0  0  0  0  0  0  0  0
    5.2520   11.5097   26.4787 C   0  0  0  0  0  0  0  0  0  0  0  0
    3.8160   11.3546   27.7168 Br  0  0  0  0  0  0  0  0  0  0  0  0
    5.6681   12.7313   25.9357 C   0  0  0  0  0  0  0  0  0  0  0  0
    4.8621   14.2050   26.3866 Cl  0  0  0  0  0  0  0  0  0  0  0  0
    6.7486   12.7731   25.0267 C   0  0  0  0  0  0  0  0  0  0  0  0
    7.0688   14.0407   24.2923 C   0  0  0  0  0  0  0  0  0  0  0  0
  1  2  1  0
  2  3  1  0
  3  4  1  0
  4  5  2  0
  5  6  1  0
  6  7  1  0
  7  8  1  0
  8  9  1  0
  9 10  1  0
 10 11  2  0
 10 12  1  0
 12 13  2  0
 13 14  1  0
 14 15  2  0
 15 16  1  0
 15 17  1  0
 17 18  1  0
 17 19  2  0
 19 20  1  0
  6  2  2  0
 19 12  1  0
M  END
>  <energy_score>  (833) 
-5.294329

>  <inchikey>  (833) 
None

>  <smiles>  (833) 
None

>  <ref_pdb>  (833) 
A5594a

>  <alias>  (833) 
None

>  <HIPPO Pose ID>  (833) 
499560

>  <name>  (833) 
P499560

>  <HIPPO Compound ID>  (833) 
306369

>  <ref_mols>  (833) 
A3408a,A5594a

>  <distance_score>  (833) 
1.656814

>  <inspiration_score>  (833) 
None

$$$$
P499562
     RDKit          3D

 20 21  0  0  0  0  0  0  0  0999 V2000
    4.2821    9.4168   27.1409 C   0  0  0  0  0  0  0  0  0  0  0  0
    5.0546   10.6795   26.9022 C   0  0  0  0  0  0  0  0  0  0  0  0
    5.9567   10.7541   25.8295 C   0  0  0  0  0  0  0  0  0  0  0  0
    6.6380   11.9462   25.5981 C   0  0  0  0  0  0  0  0  0  0  0  0
    7.5236   12.1199   24.4341 C   0  0  0  0  0  0  0  0  0  0  0  0
    8.4541   11.4441   24.2711 O   0  0  0  0  0  0  0  0  0  0  0  0
    7.0320   13.3424   23.6479 N   0  0  0  0  0  0  0  0  0  0  0  0
    7.6321   14.0498   22.5521 C   0  0  1  0  0  0  0  0  0  0  0  0
    6.6989   15.1852   22.1428 C   0  0  0  0  0  0  0  0  0  0  0  0
    9.0038   14.5734   23.0244 C   0  0  0  0  0  0  0  0  0  0  0  0
    9.9223   14.8487   21.9122 C   0  0  0  0  0  0  0  0  0  0  0  0
   11.2944   14.9106   21.9000 C   0  0  0  0  0  0  0  0  0  0  0  0
   11.6825   15.1730   20.6227 O   0  0  0  0  0  0  0  0  0  0  0  0
   10.5164   15.2532   19.9320 C   0  0  0  0  0  0  0  0  0  0  0  0
    9.4349   15.0706   20.6511 N   0  0  0  0  0  0  0  0  0  0  0  0
    6.5382   13.0432   26.4788 C   0  0  0  0  0  0  0  0  0  0  0  0
    7.3403   14.3126   26.3229 C   0  0  0  0  0  0  0  0  0  0  0  0
    5.6408   12.9563   27.5375 C   0  0  0  0  0  0  0  0  0  0  0  0
    4.9064   11.7898   27.7469 C   0  0  0  0  0  0  0  0  0  0  0  0
    3.7372   11.7745   29.2483 Br  0  0  0  0  0  0  0  0  0  0  0  0
  1  2  1  0
  2  3  2  0
  3  4  1  0
  4  5  1  0
  5  6  2  0
  5  7  1  0
  7  8  1  0
  8  9  1  1
  8 10  1  0
 10 11  1  0
 11 12  2  0
 12 13  1  0
 13 14  1  0
 14 15  2  0
  4 16  2  0
 16 17  1  0
 16 18  1  0
 18 19  2  0
 19 20  1  0
 19  2  1  0
 15 11  1  0
M  END
>  <energy_score>  (834) 
-13.520354

>  <inchikey>  (834) 
None

>  <smiles>  (834) 
None

>  <ref_pdb>  (834) 
A5594a

>  <alias>  (834) 
None

>  <HIPPO Pose ID>  (834) 
499562

>  <name>  (834) 
P499562

>  <HIPPO Compound ID>  (834) 
306373

>  <ref_mols>  (834) 
A3408a,A5594a

>  <distance_score>  (834) 
1.963968

>  <inspiration_score>  (834) 
None

$$$$
P499563
     RDKit          3D

 20 21  0  0  0  0  0  0  0  0999 V2000
    3.8754    9.7932   27.4491 C   0  0  0  0  0  0  0  0  0  0  0  0
    4.6607   10.8721   26.7575 C   0  0  0  0  0  0  0  0  0  0  0  0
    5.7241   10.5128   25.9220 C   0  0  0  0  0  0  0  0  0  0  0  0
    6.6109   11.4647   25.3696 C   0  0  0  0  0  0  0  0  0  0  0  0
    7.8393   10.8643   24.7552 C   0  0  0  0  0  0  0  0  0  0  0  0
    8.1283    9.8181   25.1626 O   0  0  0  0  0  0  0  0  0  0  0  0
    8.5588   11.7722   23.7709 N   0  0  0  0  0  0  0  0  0  0  0  0
    9.8383   11.6360   23.1428 C   0  0  0  0  0  0  0  0  0  0  0  0
   10.6289   12.9388   23.2638 C   0  0  0  0  0  0  0  0  0  0  0  0
   10.0106   14.0596   22.5098 C   0  0  0  0  0  0  0  0  0  0  0  0
    8.6408   14.2113   22.4296 N   0  0  0  0  0  0  0  0  0  0  0  0
    8.4961   15.2769   21.6753 C   0  0  0  0  0  0  0  0  0  0  0  0
    9.6501   15.8345   21.2370 O   0  0  0  0  0  0  0  0  0  0  0  0
   10.6236   15.0701   21.8052 C   0  0  0  0  0  0  0  0  0  0  0  0
   12.0074   15.4655   21.5326 C   0  0  0  0  0  0  0  0  0  0  0  0
    6.4284   12.8274   25.6800 C   0  0  0  0  0  0  0  0  0  0  0  0
    7.3447   13.9672   25.3280 C   0  0  0  0  0  0  0  0  0  0  0  0
    5.2941   13.1867   26.4304 C   0  0  0  0  0  0  0  0  0  0  0  0
    4.4380   12.2287   26.9781 C   0  0  0  0  0  0  0  0  0  0  0  0
    3.0093   12.8557   28.0629 Br  0  0  0  0  0  0  0  0  0  0  0  0
  1  2  1  0
  2  3  2  0
  3  4  1  0
  4  5  1  0
  5  6  2  0
  5  7  1  0
  7  8  1  0
  8  9  1  0
  9 10  1  0
 10 11  1  0
 11 12  2  0
 12 13  1  0
 13 14  1  0
 14 15  1  0
  4 16  2  0
 16 17  1  0
 16 18  1  0
 18 19  2  0
 19 20  1  0
 19  2  1  0
 14 10  2  0
M  END
>  <energy_score>  (835) 
-5.803417

>  <inchikey>  (835) 
None

>  <smiles>  (835) 
None

>  <ref_pdb>  (835) 
A5594a

>  <alias>  (835) 
None

>  <HIPPO Pose ID>  (835) 
499563

>  <name>  (835) 
P499563

>  <HIPPO Compound ID>  (835) 
306375

>  <ref_mols>  (835) 
A3408a,A5594a

>  <distance_score>  (835) 
1.644895

>  <inspiration_score>  (835) 
None

$$$$
P499565
     RDKit          3D

 20 21  0  0  0  0  0  0  0  0999 V2000
   12.1871   15.5752   21.4538 C   0  0  0  0  0  0  0  0  0  0  0  0
   10.8066   15.2756   21.8235 C   0  0  0  0  0  0  0  0  0  0  0  0
    9.8392   16.0059   21.2042 O   0  0  0  0  0  0  0  0  0  0  0  0
    8.6895   15.5596   21.7632 C   0  0  0  0  0  0  0  0  0  0  0  0
    8.8373   14.5893   22.6357 N   0  0  0  0  0  0  0  0  0  0  0  0
   10.1953   14.3831   22.6707 C   0  0  0  0  0  0  0  0  0  0  0  0
   10.8052   13.3093   23.4923 C   0  0  0  0  0  0  0  0  0  0  0  0
   10.0022   12.0214   23.4074 C   0  0  0  0  0  0  0  0  0  0  0  0
    8.8317   12.0333   24.2312 N   0  0  0  0  0  0  0  0  0  0  0  0
    7.7922   10.9445   24.4958 C   0  0  0  0  0  0  0  0  0  0  0  0
    7.7574    9.8368   24.1495 O   0  0  0  0  0  0  0  0  0  0  0  0
    6.6604   11.4508   25.3430 C   0  0  0  0  0  0  0  0  0  0  0  0
    6.0663   10.4892   26.1750 C   0  0  0  0  0  0  0  0  0  0  0  0
    5.0849   10.8557   27.0830 C   0  0  0  0  0  0  0  0  0  0  0  0
    4.3322    9.5929   28.2683 Br  0  0  0  0  0  0  0  0  0  0  0  0
    4.6753   12.1760   27.1689 C   0  0  0  0  0  0  0  0  0  0  0  0
    5.2061   13.1244   26.2988 C   0  0  0  0  0  0  0  0  0  0  0  0
    4.6244   14.7470   26.4750 Cl  0  0  0  0  0  0  0  0  0  0  0  0
    6.1635   12.7727   25.3326 C   0  0  0  0  0  0  0  0  0  0  0  0
    6.5475   13.7847   24.2899 C   0  0  0  0  0  0  0  0  0  0  0  0
  1  2  1  0
  2  3  1  0
  3  4  1  0
  4  5  2  0
  5  6  1  0
  6  7  1  0
  7  8  1  0
  8  9  1  0
  9 10  1  0
 10 11  2  0
 10 12  1  0
 12 13  2  0
 13 14  1  0
 14 15  1  0
 14 16  2  0
 16 17  1  0
 17 18  1  0
 17 19  2  0
 19 20  1  0
  6  2  2  0
 19 12  1  0
M  END
>  <energy_score>  (836) 
-4.40705

>  <inchikey>  (836) 
None

>  <smiles>  (836) 
None

>  <ref_pdb>  (836) 
A5594a

>  <alias>  (836) 
None

>  <HIPPO Pose ID>  (836) 
499565

>  <name>  (836) 
P499565

>  <HIPPO Compound ID>  (836) 
306380

>  <ref_mols>  (836) 
A3408a,A5594a

>  <distance_score>  (836) 
1.686157

>  <inspiration_score>  (836) 
None

$$$$
P499566
     RDKit          3D

 20 21  0  0  0  0  0  0  0  0999 V2000
   10.4938   12.5615   22.4178 C   0  0  0  0  0  0  0  0  0  0  0  0
   10.6161   12.9628   23.8718 C   0  0  1  0  0  0  0  0  0  0  0  0
   11.1201   14.4096   24.0414 C   0  0  0  0  0  0  0  0  0  0  0  0
   10.7153   15.2713   22.9065 C   0  0  0  0  0  0  0  0  0  0  0  0
   11.4822   15.7053   21.8494 C   0  0  0  0  0  0  0  0  0  0  0  0
   10.6508   16.2850   20.9413 O   0  0  0  0  0  0  0  0  0  0  0  0
    9.4274   16.2063   21.5251 C   0  0  0  0  0  0  0  0  0  0  0  0
    9.3981   15.5839   22.6788 N   0  0  0  0  0  0  0  0  0  0  0  0
    9.3394   12.7338   24.5115 N   0  0  0  0  0  0  0  0  0  0  0  0
    8.3876   11.5178   24.4457 C   0  0  0  0  0  0  0  0  0  0  0  0
    8.5202   10.4821   23.9280 O   0  0  0  0  0  0  0  0  0  0  0  0
    7.0823   11.7628   25.1216 C   0  0  0  0  0  0  0  0  0  0  0  0
    6.5010   10.7167   25.8517 C   0  0  0  0  0  0  0  0  0  0  0  0
    5.3394   10.9509   26.5890 C   0  0  0  0  0  0  0  0  0  0  0  0
    4.6883    9.7540   27.6316 Cl  0  0  0  0  0  0  0  0  0  0  0  0
    4.7108   12.1929   26.5516 C   0  0  0  0  0  0  0  0  0  0  0  0
    5.2280   13.2052   25.7541 C   0  0  0  0  0  0  0  0  0  0  0  0
    6.4001   12.9753   25.0347 C   0  0  0  0  0  0  0  0  0  0  0  0
    6.8923   14.0738   24.2236 C   0  0  0  0  0  0  0  0  0  0  0  0
    7.7092   14.8134   24.7559 O   0  0  0  0  0  0  0  0  0  0  0  0
  2  1  1  6
  2  3  1  0
  3  4  1  0
  4  5  2  0
  5  6  1  0
  6  7  1  0
  7  8  2  0
  2  9  1  0
  9 10  1  0
 10 11  2  0
 10 12  1  0
 12 13  2  0
 13 14  1  0
 14 15  1  0
 14 16  2  0
 16 17  1  0
 17 18  2  0
 18 19  1  0
 19 20  2  0
  8  4  1  0
 18 12  1  0
M  END
>  <energy_score>  (837) 
-2.034145

>  <inchikey>  (837) 
None

>  <smiles>  (837) 
None

>  <ref_pdb>  (837) 
A5594a

>  <alias>  (837) 
None

>  <HIPPO Pose ID>  (837) 
499566

>  <name>  (837) 
P499566

>  <HIPPO Compound ID>  (837) 
306381

>  <ref_mols>  (837) 
A3408a,A5594a

>  <distance_score>  (837) 
1.790186

>  <inspiration_score>  (837) 
None

$$$$
P499570
     RDKit          3D

 20 21  0  0  0  0  0  0  0  0999 V2000
    6.8691   14.4993   23.5158 C   0  0  0  0  0  0  0  0  0  0  0  0
    7.3123   14.2097   24.8467 O   0  0  0  0  0  0  0  0  0  0  0  0
    7.0681   12.8876   25.0953 C   0  0  0  0  0  0  0  0  0  0  0  0
    5.9315   12.5930   25.8482 C   0  0  0  0  0  0  0  0  0  0  0  0
    5.5901   11.2708   26.0728 C   0  0  0  0  0  0  0  0  0  0  0  0
    6.3762   10.2611   25.5222 C   0  0  0  0  0  0  0  0  0  0  0  0
    7.5506   10.5485   24.7971 C   0  0  0  0  0  0  0  0  0  0  0  0
    8.3323    9.4203   24.1861 C   0  0  0  0  0  0  0  0  0  0  0  0
    7.9299   11.8911   24.6222 C   0  0  0  0  0  0  0  0  0  0  0  0
    9.2704   12.2517   24.0236 C   0  0  0  0  0  0  0  0  0  0  0  0
    9.7026   11.5877   23.1708 O   0  0  0  0  0  0  0  0  0  0  0  0
    9.8915   13.4496   24.7689 N   0  0  0  0  0  0  0  0  0  0  0  0
   11.1353   14.1392   24.5561 C   0  0  0  0  0  0  0  0  0  0  0  0
   11.5582   14.2519   23.1155 C   0  0  0  0  0  0  0  0  0  0  0  0
   10.6405   15.0283   22.2672 C   0  0  0  0  0  0  0  0  0  0  0  0
    9.5060   15.6600   22.7067 N   0  0  0  0  0  0  0  0  0  0  0  0
    9.0671   16.2728   21.6284 C   0  0  0  0  0  0  0  0  0  0  0  0
    9.7948   16.0632   20.5029 O   0  0  0  0  0  0  0  0  0  0  0  0
   10.8214   15.2892   20.9349 C   0  0  0  0  0  0  0  0  0  0  0  0
   11.8813   14.9629   19.9877 C   0  0  0  0  0  0  0  0  0  0  0  0
  1  2  1  0
  2  3  1  0
  3  4  2  0
  4  5  1  0
  5  6  2  0
  6  7  1  0
  7  8  1  0
  7  9  2  0
  9 10  1  0
 10 11  2  0
 10 12  1  0
 12 13  1  0
 13 14  1  0
 14 15  1  0
 15 16  1  0
 16 17  2  0
 17 18  1  0
 18 19  1  0
 19 20  1  0
  9  3  1  0
 19 15  2  0
M  END
>  <energy_score>  (838) 
-24.477086

>  <inchikey>  (838) 
None

>  <smiles>  (838) 
None

>  <ref_pdb>  (838) 
A5594a

>  <alias>  (838) 
None

>  <HIPPO Pose ID>  (838) 
499570

>  <name>  (838) 
P499570

>  <HIPPO Compound ID>  (838) 
306386

>  <ref_mols>  (838) 
A3408a,A5594a

>  <distance_score>  (838) 
1.582871

>  <inspiration_score>  (838) 
None

$$$$
P499571
     RDKit          3D

 20 21  0  0  0  0  0  0  0  0999 V2000
    2.9583   11.3149   27.6188 C   0  0  0  0  0  0  0  0  0  0  0  0
    4.3682   11.7389   27.9810 C   0  0  0  0  0  0  0  0  0  0  0  0
    5.3299   11.7242   26.8191 C   0  0  0  0  0  0  0  0  0  0  0  0
    5.8997   10.5258   26.3810 C   0  0  0  0  0  0  0  0  0  0  0  0
    6.9349   10.5395   25.4435 C   0  0  0  0  0  0  0  0  0  0  0  0
    7.3892   11.7527   24.9121 C   0  0  0  0  0  0  0  0  0  0  0  0
    8.6581   11.7212   24.1165 C   0  0  0  0  0  0  0  0  0  0  0  0
    8.8181   10.8548   23.3545 O   0  0  0  0  0  0  0  0  0  0  0  0
    9.6014   12.8679   24.5402 N   0  0  0  0  0  0  0  0  0  0  0  0
   10.9083   13.2433   24.0419 C   0  0  2  0  0  0  0  0  0  0  0  0
   11.3837   14.5550   24.6660 C   0  0  0  0  0  0  0  0  0  0  0  0
   10.9631   13.2614   22.5174 C   0  0  0  0  0  0  0  0  0  0  0  0
   10.3656   14.4574   21.8999 C   0  0  0  0  0  0  0  0  0  0  0  0
   10.9395   15.2772   20.9604 C   0  0  0  0  0  0  0  0  0  0  0  0
   10.0496   16.2571   20.6647 O   0  0  0  0  0  0  0  0  0  0  0  0
    8.9869   15.9846   21.4671 C   0  0  0  0  0  0  0  0  0  0  0  0
    9.1123   14.9171   22.2203 N   0  0  0  0  0  0  0  0  0  0  0  0
    6.6833   12.9329   25.1843 C   0  0  0  0  0  0  0  0  0  0  0  0
    6.9162   14.2039   24.4246 C   0  0  0  0  0  0  0  0  0  0  0  0
    5.6895   12.9137   26.1754 C   0  0  0  0  0  0  0  0  0  0  0  0
  1  2  1  0
  2  3  1  0
  3  4  2  0
  4  5  1  0
  5  6  2  0
  6  7  1  0
  7  8  2  0
  7  9  1  0
  9 10  1  0
 10 11  1  1
 10 12  1  0
 12 13  1  0
 13 14  2  0
 14 15  1  0
 15 16  1  0
 16 17  2  0
  6 18  1  0
 18 19  1  0
 18 20  2  0
 20  3  1  0
 17 13  1  0
M  END
>  <energy_score>  (839) 
-4.127366

>  <inchikey>  (839) 
None

>  <smiles>  (839) 
None

>  <ref_pdb>  (839) 
A5594a

>  <alias>  (839) 
None

>  <HIPPO Pose ID>  (839) 
499571

>  <name>  (839) 
P499571

>  <HIPPO Compound ID>  (839) 
306388

>  <ref_mols>  (839) 
A3408a,A5594a

>  <distance_score>  (839) 
1.435605

>  <inspiration_score>  (839) 
None

$$$$
P499573
     RDKit          3D

 20 21  0  0  0  0  0  0  0  0999 V2000
    2.2068   13.2402   27.1700 C   0  0  0  0  0  0  0  0  0  0  0  0
    3.2936   12.4554   27.8899 C   0  0  0  0  0  0  0  0  0  0  0  0
    4.4434   12.0747   26.9909 C   0  0  0  0  0  0  0  0  0  0  0  0
    4.6532   10.7468   26.6359 C   0  0  0  0  0  0  0  0  0  0  0  0
    5.7266   10.4096   25.8209 C   0  0  0  0  0  0  0  0  0  0  0  0
    6.6391   11.3758   25.3577 C   0  0  0  0  0  0  0  0  0  0  0  0
    7.8549   10.7909   24.7039 C   0  0  0  0  0  0  0  0  0  0  0  0
    8.1263    9.7093   25.0222 O   0  0  0  0  0  0  0  0  0  0  0  0
    8.5894   11.7656   23.7980 N   0  0  0  0  0  0  0  0  0  0  0  0
    9.8643   11.6611   23.1598 C   0  0  0  0  0  0  0  0  0  0  0  0
   10.6367   12.9708   23.2871 C   0  0  0  0  0  0  0  0  0  0  0  0
   10.0032   14.0804   22.5304 C   0  0  0  0  0  0  0  0  0  0  0  0
    8.6314   14.2202   22.4586 N   0  0  0  0  0  0  0  0  0  0  0  0
    8.4734   15.2734   21.6904 C   0  0  0  0  0  0  0  0  0  0  0  0
    9.6201   15.8366   21.2389 O   0  0  0  0  0  0  0  0  0  0  0  0
   10.6038   15.0850   21.8074 C   0  0  0  0  0  0  0  0  0  0  0  0
   11.9839   15.4806   21.5155 C   0  0  0  0  0  0  0  0  0  0  0  0
    6.4613   12.7233   25.7364 C   0  0  0  0  0  0  0  0  0  0  0  0
    7.3615   13.8807   25.3981 C   0  0  0  0  0  0  0  0  0  0  0  0
    5.3352   13.0477   26.5206 C   0  0  0  0  0  0  0  0  0  0  0  0
  1  2  1  0
  2  3  1  0
  3  4  2  0
  4  5  1  0
  5  6  2  0
  6  7  1  0
  7  8  2  0
  7  9  1  0
  9 10  1  0
 10 11  1  0
 11 12  1  0
 12 13  1  0
 13 14  2  0
 14 15  1  0
 15 16  1  0
 16 17  1  0
  6 18  1  0
 18 19  1  0
 18 20  2  0
 20  3  1  0
 16 12  2  0
M  END
>  <energy_score>  (840) 
-8.416434

>  <inchikey>  (840) 
None

>  <smiles>  (840) 
None

>  <ref_pdb>  (840) 
A5594a

>  <alias>  (840) 
None

>  <HIPPO Pose ID>  (840) 
499573

>  <name>  (840) 
P499573

>  <HIPPO Compound ID>  (840) 
306390

>  <ref_mols>  (840) 
A3408a,A5594a

>  <distance_score>  (840) 
1.635688

>  <inspiration_score>  (840) 
None

$$$$
P499574
     RDKit          3D

 20 21  0  0  0  0  0  0  0  0999 V2000
    9.7599   15.4532   19.7953 C   0  0  0  0  0  0  0  0  0  0  0  0
   10.4775   15.4668   21.0580 C   0  0  0  0  0  0  0  0  0  0  0  0
   10.1364   15.0021   22.2418 N   0  0  0  0  0  0  0  0  0  0  0  0
   11.3041   15.1166   22.9505 C   0  0  0  0  0  0  0  0  0  0  0  0
   11.4962   14.4432   24.2401 C   0  0  0  0  0  0  0  0  0  0  0  0
   11.2478   12.9570   24.0477 C   0  0  0  0  0  0  0  0  0  0  0  0
    9.9225   12.5842   24.4549 N   0  0  0  0  0  0  0  0  0  0  0  0
    8.9682   11.5192   23.8929 C   0  0  0  0  0  0  0  0  0  0  0  0
    9.1325   10.7239   23.0615 O   0  0  0  0  0  0  0  0  0  0  0  0
    7.6645   11.5921   24.6135 C   0  0  0  0  0  0  0  0  0  0  0  0
    7.1551   10.4026   25.1449 C   0  0  0  0  0  0  0  0  0  0  0  0
    6.0129   10.4308   25.9380 C   0  0  0  0  0  0  0  0  0  0  0  0
    5.3901   11.6450   26.2125 C   0  0  0  0  0  0  0  0  0  0  0  0
    5.8617   12.8416   25.6469 C   0  0  0  0  0  0  0  0  0  0  0  0
    5.1005   14.1158   25.9062 C   0  0  0  0  0  0  0  0  0  0  0  0
    4.3913   14.5174   24.7481 O   0  0  0  0  0  0  0  0  0  0  0  0
    6.9845   12.8137   24.7912 C   0  0  0  0  0  0  0  0  0  0  0  0
    7.4241   14.0588   24.0596 C   0  0  0  0  0  0  0  0  0  0  0  0
   12.2584   15.7324   22.1858 C   0  0  0  0  0  0  0  0  0  0  0  0
   11.7344   15.9717   20.9707 O   0  0  0  0  0  0  0  0  0  0  0  0
  1  2  1  0
  2  3  2  0
  3  4  1  0
  4  5  1  0
  5  6  1  0
  6  7  1  0
  7  8  1  0
  8  9  2  0
  8 10  1  0
 10 11  2  0
 11 12  1  0
 12 13  2  0
 13 14  1  0
 14 15  1  0
 15 16  1  0
 14 17  2  0
 17 18  1  0
  4 19  2  0
 19 20  1  0
 20  2  1  0
 17 10  1  0
M  END
>  <energy_score>  (841) 
-5.152382

>  <inchikey>  (841) 
None

>  <smiles>  (841) 
None

>  <ref_pdb>  (841) 
A5594a

>  <alias>  (841) 
None

>  <HIPPO Pose ID>  (841) 
499574

>  <name>  (841) 
P499574

>  <HIPPO Compound ID>  (841) 
306401

>  <ref_mols>  (841) 
A3408a,A5594a

>  <distance_score>  (841) 
1.712956

>  <inspiration_score>  (841) 
None

$$$$
P499575
     RDKit          3D

 20 21  0  0  0  0  0  0  0  0999 V2000
   11.8828   15.2247   20.1896 C   0  0  0  0  0  0  0  0  0  0  0  0
   10.7140   15.2936   21.0619 C   0  0  0  0  0  0  0  0  0  0  0  0
    9.8160   16.2851   20.8336 O   0  0  0  0  0  0  0  0  0  0  0  0
    8.8751   16.0932   21.7929 C   0  0  0  0  0  0  0  0  0  0  0  0
    9.0923   15.0681   22.5882 N   0  0  0  0  0  0  0  0  0  0  0  0
   10.2652   14.5381   22.1128 C   0  0  0  0  0  0  0  0  0  0  0  0
   10.9044   13.3231   22.6481 C   0  0  0  0  0  0  0  0  0  0  0  0
   10.8120   13.2081   24.1500 C   0  0  0  0  0  0  0  0  0  0  0  0
    9.5034   12.7992   24.5848 N   0  0  0  0  0  0  0  0  0  0  0  0
    8.6313   11.6075   24.1483 C   0  0  0  0  0  0  0  0  0  0  0  0
    8.8656   10.7263   23.4249 O   0  0  0  0  0  0  0  0  0  0  0  0
    7.3255   11.6209   24.8847 C   0  0  0  0  0  0  0  0  0  0  0  0
    6.8971   10.4056   25.4259 C   0  0  0  0  0  0  0  0  0  0  0  0
    5.7715   10.3654   26.2400 C   0  0  0  0  0  0  0  0  0  0  0  0
    5.0779   11.5359   26.5254 C   0  0  0  0  0  0  0  0  0  0  0  0
    5.4364   12.7535   25.9271 C   0  0  0  0  0  0  0  0  0  0  0  0
    4.5822   13.9629   26.2278 C   0  0  0  0  0  0  0  0  0  0  0  0
    5.2776   14.8661   27.0788 O   0  0  0  0  0  0  0  0  0  0  0  0
    6.5471   12.7870   25.0525 C   0  0  0  0  0  0  0  0  0  0  0  0
    6.8471   14.0148   24.2396 C   0  0  0  0  0  0  0  0  0  0  0  0
  1  2  1  0
  2  3  1  0
  3  4  1  0
  4  5  2  0
  5  6  1  0
  6  7  1  0
  7  8  1  0
  8  9  1  0
  9 10  1  0
 10 11  2  0
 10 12  1  0
 12 13  2  0
 13 14  1  0
 14 15  2  0
 15 16  1  0
 16 17  1  0
 17 18  1  0
 16 19  2  0
 19 20  1  0
  6  2  2  0
 19 12  1  0
M  END
>  <energy_score>  (842) 
-6.352039

>  <inchikey>  (842) 
None

>  <smiles>  (842) 
None

>  <ref_pdb>  (842) 
A5594a

>  <alias>  (842) 
None

>  <HIPPO Pose ID>  (842) 
499575

>  <name>  (842) 
P499575

>  <HIPPO Compound ID>  (842) 
306402

>  <ref_mols>  (842) 
A3408a,A5594a

>  <distance_score>  (842) 
1.903877

>  <inspiration_score>  (842) 
None

$$$$
P499576
     RDKit          3D

 20 21  0  0  0  0  0  0  0  0999 V2000
    5.1630   13.7641   26.6385 C   0  0  0  0  0  0  0  0  0  0  0  0
    6.0750   12.7179   26.0514 C   0  0  0  0  0  0  0  0  0  0  0  0
    5.7239   11.3757   26.2224 C   0  0  0  0  0  0  0  0  0  0  0  0
    6.4739   10.3685   25.6296 C   0  0  0  0  0  0  0  0  0  0  0  0
    7.6221   10.6687   24.8857 C   0  0  0  0  0  0  0  0  0  0  0  0
    8.3562    9.5465   24.2000 C   0  0  0  0  0  0  0  0  0  0  0  0
    8.0129   12.0205   24.7302 C   0  0  0  0  0  0  0  0  0  0  0  0
    9.1819   12.3059   23.8324 C   0  0  0  0  0  0  0  0  0  0  0  0
    9.1096   11.8610   22.7616 O   0  0  0  0  0  0  0  0  0  0  0  0
   10.2996   13.1248   24.4972 N   0  0  0  0  0  0  0  0  0  0  0  0
   11.5395   13.6565   23.9456 C   0  0  2  0  0  0  0  0  0  0  0  0
   12.6780   13.6119   24.9408 C   0  0  0  0  0  0  0  0  0  0  0  0
   11.3724   15.0952   23.4482 C   0  0  0  0  0  0  0  0  0  0  0  0
   10.4082   15.1600   22.3437 C   0  0  0  0  0  0  0  0  0  0  0  0
   10.6262   14.9415   21.0075 C   0  0  0  0  0  0  0  0  0  0  0  0
    9.4256   15.0269   20.3784 O   0  0  0  0  0  0  0  0  0  0  0  0
    8.5491   15.2764   21.3832 C   0  0  0  0  0  0  0  0  0  0  0  0
    9.0798   15.3942   22.5752 N   0  0  0  0  0  0  0  0  0  0  0  0
    7.2242   13.0540   25.2905 C   0  0  0  0  0  0  0  0  0  0  0  0
    7.4839   14.4941   24.9512 C   0  0  0  0  0  0  0  0  0  0  0  0
  1  2  1  0
  2  3  2  0
  3  4  1  0
  4  5  2  0
  5  6  1  0
  5  7  1  0
  7  8  1  0
  8  9  2  0
  8 10  1  0
 10 11  1  0
 11 12  1  1
 11 13  1  0
 13 14  1  0
 14 15  2  0
 15 16  1  0
 16 17  1  0
 17 18  2  0
  7 19  2  0
 19 20  1  0
 19  2  1  0
 18 14  1  0
M  END
>  <energy_score>  (843) 
-22.050562

>  <inchikey>  (843) 
None

>  <smiles>  (843) 
None

>  <ref_pdb>  (843) 
A5594a

>  <alias>  (843) 
None

>  <HIPPO Pose ID>  (843) 
499576

>  <name>  (843) 
P499576

>  <HIPPO Compound ID>  (843) 
306405

>  <ref_mols>  (843) 
A3408a,A5594a

>  <distance_score>  (843) 
1.841736

>  <inspiration_score>  (843) 
None

$$$$
P499577
     RDKit          3D

 20 21  0  0  0  0  0  0  0  0999 V2000
    9.9050   15.6470   19.9406 C   0  0  0  0  0  0  0  0  0  0  0  0
   10.4178   15.2498   21.2496 C   0  0  0  0  0  0  0  0  0  0  0  0
    9.9507   14.3527   22.0926 N   0  0  0  0  0  0  0  0  0  0  0  0
   10.9925   14.1829   22.9686 C   0  0  0  0  0  0  0  0  0  0  0  0
   11.0527   13.0488   23.9104 C   0  0  0  0  0  0  0  0  0  0  0  0
   10.0399   11.9683   23.5600 C   0  0  0  0  0  0  0  0  0  0  0  0
    8.8422   12.1536   24.3170 N   0  0  0  0  0  0  0  0  0  0  0  0
    7.6333   11.2466   24.4932 C   0  0  0  0  0  0  0  0  0  0  0  0
    7.4422   10.1690   24.1162 O   0  0  0  0  0  0  0  0  0  0  0  0
    6.5526   11.9830   25.2444 C   0  0  0  0  0  0  0  0  0  0  0  0
    5.7500   11.2702   26.1580 C   0  0  0  0  0  0  0  0  0  0  0  0
    5.7304    9.7840   26.2678 C   0  0  0  0  0  0  0  0  0  0  0  0
    4.8260   11.9558   26.9459 C   0  0  0  0  0  0  0  0  0  0  0  0
    4.6951   13.3305   26.8393 C   0  0  0  0  0  0  0  0  0  0  0  0
    5.4295   14.0495   25.8913 C   0  0  0  0  0  0  0  0  0  0  0  0
    5.1651   15.5279   25.7595 C   0  0  0  0  0  0  0  0  0  0  0  0
    6.3175   13.3674   25.0318 C   0  0  0  0  0  0  0  0  0  0  0  0
    6.9166   14.1266   23.8663 C   0  0  0  0  0  0  0  0  0  0  0  0
   11.9646   15.1138   22.7143 C   0  0  0  0  0  0  0  0  0  0  0  0
   11.6085   15.8067   21.6092 O   0  0  0  0  0  0  0  0  0  0  0  0
  1  2  1  0
  2  3  2  0
  3  4  1  0
  4  5  1  0
  5  6  1  0
  6  7  1  0
  7  8  1  0
  8  9  2  0
  8 10  1  0
 10 11  2  0
 11 12  1  0
 11 13  1  0
 13 14  2  0
 14 15  1  0
 15 16  1  0
 15 17  2  0
 17 18  1  0
  4 19  2  0
 19 20  1  0
 20  2  1  0
 17 10  1  0
M  END
>  <energy_score>  (844) 
-11.271125

>  <inchikey>  (844) 
None

>  <smiles>  (844) 
None

>  <ref_pdb>  (844) 
A5594a

>  <alias>  (844) 
None

>  <HIPPO Pose ID>  (844) 
499577

>  <name>  (844) 
P499577

>  <HIPPO Compound ID>  (844) 
306406

>  <ref_mols>  (844) 
A3408a,A5594a

>  <distance_score>  (844) 
1.876938

>  <inspiration_score>  (844) 
None

$$$$
P499579
     RDKit          3D

 20 21  0  0  0  0  0  0  0  0999 V2000
    6.0540   14.4826   22.0931 C   0  0  0  0  0  0  0  0  0  0  0  0
    7.2017   13.9233   22.8992 C   0  0  0  0  0  0  0  0  0  0  0  0
    7.0306   14.1446   24.4041 C   0  0  0  0  0  0  0  0  0  0  0  0
    6.6854   12.8783   25.1613 C   0  0  0  0  0  0  0  0  0  0  0  0
    5.5387   12.8976   25.9743 C   0  0  0  0  0  0  0  0  0  0  0  0
    5.0451   11.7302   26.5583 C   0  0  0  0  0  0  0  0  0  0  0  0
    5.6723   10.5147   26.3206 C   0  0  0  0  0  0  0  0  0  0  0  0
    6.8351   10.4811   25.5567 C   0  0  0  0  0  0  0  0  0  0  0  0
    7.3826   11.6614   25.0287 C   0  0  0  0  0  0  0  0  0  0  0  0
    8.6618   11.5116   24.2676 C   0  0  0  0  0  0  0  0  0  0  0  0
    8.7896   10.5594   23.6084 O   0  0  0  0  0  0  0  0  0  0  0  0
    9.6004   12.7189   24.4728 N   0  0  0  0  0  0  0  0  0  0  0  0
   10.8554   13.0532   23.8339 C   0  0  1  0  0  0  0  0  0  0  0  0
   10.7311   12.7553   22.3501 C   0  0  0  0  0  0  0  0  0  0  0  0
   11.3293   14.4944   24.1132 C   0  0  0  0  0  0  0  0  0  0  0  0
   10.9035   15.4354   23.0511 C   0  0  0  0  0  0  0  0  0  0  0  0
   11.5700   15.7594   21.8899 C   0  0  0  0  0  0  0  0  0  0  0  0
   10.6992   16.4127   21.0761 O   0  0  0  0  0  0  0  0  0  0  0  0
    9.5725   16.5180   21.8264 C   0  0  0  0  0  0  0  0  0  0  0  0
    9.6430   15.9710   23.0240 N   0  0  0  0  0  0  0  0  0  0  0  0
  1  2  1  0
  2  3  1  0
  3  4  1  0
  4  5  2  0
  5  6  1  0
  6  7  2  0
  7  8  1  0
  8  9  2  0
  9 10  1  0
 10 11  2  0
 10 12  1  0
 12 13  1  0
 13 14  1  6
 13 15  1  0
 15 16  1  0
 16 17  2  0
 17 18  1  0
 18 19  1  0
 19 20  2  0
  9  4  1  0
 20 16  1  0
M  END
>  <energy_score>  (845) 
-1.09986

>  <inchikey>  (845) 
None

>  <smiles>  (845) 
None

>  <ref_pdb>  (845) 
A5594a

>  <alias>  (845) 
None

>  <HIPPO Pose ID>  (845) 
499579

>  <name>  (845) 
P499579

>  <HIPPO Compound ID>  (845) 
306410

>  <ref_mols>  (845) 
A3408a,A5594a

>  <distance_score>  (845) 
1.432274

>  <inspiration_score>  (845) 
None

$$$$
P499581
     RDKit          3D

 20 22  0  0  0  0  0  0  0  0999 V2000
   12.7156   13.5140   24.9310 C   0  0  0  0  0  0  0  0  0  0  0  0
   11.6593   13.5562   23.8453 C   0  0  2  0  0  0  0  0  0  0  0  0
   11.5373   15.0046   23.3700 C   0  0  0  0  0  0  0  0  0  0  0  0
   10.7727   15.0804   22.1238 C   0  0  0  0  0  0  0  0  0  0  0  0
   11.2450   15.0742   20.8357 C   0  0  0  0  0  0  0  0  0  0  0  0
   10.1706   15.0975   20.0059 O   0  0  0  0  0  0  0  0  0  0  0  0
    9.1145   15.1012   20.8552 C   0  0  0  0  0  0  0  0  0  0  0  0
    9.4078   15.1079   22.1299 N   0  0  0  0  0  0  0  0  0  0  0  0
   10.3804   13.0332   24.3099 N   0  0  0  0  0  0  0  0  0  0  0  0
    9.4953   11.8994   23.7454 C   0  0  0  0  0  0  0  0  0  0  0  0
    9.6874   11.1573   22.8682 O   0  0  0  0  0  0  0  0  0  0  0  0
    8.2054   11.7900   24.4769 C   0  0  0  0  0  0  0  0  0  0  0  0
    7.7279   10.5398   24.8972 C   0  0  0  0  0  0  0  0  0  0  0  0
    6.5058   10.4310   25.5852 C   0  0  0  0  0  0  0  0  0  0  0  0
    5.7205   11.5582   25.8126 C   0  0  0  0  0  0  0  0  0  0  0  0
    6.1658   12.7666   25.3088 C   0  0  0  0  0  0  0  0  0  0  0  0
    7.3928   12.8896   24.6683 C   0  0  0  0  0  0  0  0  0  0  0  0
    7.5179   14.2700   24.1417 C   0  0  0  0  0  0  0  0  0  0  0  0
    6.4723   14.9891   24.8216 O   0  0  0  0  0  0  0  0  0  0  0  0
    5.4421   14.0540   25.1879 C   0  0  0  0  0  0  0  0  0  0  0  0
  2  1  1  1
  2  3  1  0
  3  4  1  0
  4  5  2  0
  5  6  1  0
  6  7  1  0
  7  8  2  0
  2  9  1  0
  9 10  1  0
 10 11  2  0
 10 12  1  0
 12 13  2  0
 13 14  1  0
 14 15  2  0
 15 16  1  0
 16 17  2  0
 17 18  1  0
 18 19  1  0
 19 20  1  0
  8  4  1  0
 17 12  1  0
 20 16  1  0
M  END
>  <energy_score>  (846) 
-5.630455

>  <inchikey>  (846) 
None

>  <smiles>  (846) 
None

>  <ref_pdb>  (846) 
A5594a

>  <alias>  (846) 
None

>  <HIPPO Pose ID>  (846) 
499581

>  <name>  (846) 
P499581

>  <HIPPO Compound ID>  (846) 
306421

>  <ref_mols>  (846) 
A3408a,A5594a

>  <distance_score>  (846) 
1.992448

>  <inspiration_score>  (846) 
None

$$$$
P499582
     RDKit          3D

 20 21  0  0  0  0  0  0  0  0999 V2000
    7.0320   14.2907   22.9463 C   0  0  0  0  0  0  0  0  0  0  0  0
    7.1076   14.2927   24.4650 C   0  0  0  0  0  0  0  0  0  0  0  0
    6.9023   12.9276   25.0757 C   0  0  0  0  0  0  0  0  0  0  0  0
    5.7697   12.7566   25.8959 C   0  0  0  0  0  0  0  0  0  0  0  0
    5.3853   11.4952   26.3370 C   0  0  0  0  0  0  0  0  0  0  0  0
    6.1186   10.3849   25.9453 C   0  0  0  0  0  0  0  0  0  0  0  0
    7.2701   10.5407   25.1755 C   0  0  0  0  0  0  0  0  0  0  0  0
    7.9484    9.4390   24.8328 F   0  0  0  0  0  0  0  0  0  0  0  0
    7.7078   11.8065   24.7816 C   0  0  0  0  0  0  0  0  0  0  0  0
    8.9355   11.9149   23.9385 C   0  0  0  0  0  0  0  0  0  0  0  0
    9.0138   11.2260   23.0041 O   0  0  0  0  0  0  0  0  0  0  0  0
    9.8686   13.0395   24.4320 N   0  0  0  0  0  0  0  0  0  0  0  0
   11.0512   13.6184   23.8218 C   0  0  2  0  0  0  0  0  0  0  0  0
   12.2782   13.5758   24.7085 C   0  0  0  0  0  0  0  0  0  0  0  0
   10.7724   15.0846   23.4524 C   0  0  0  0  0  0  0  0  0  0  0  0
   10.6960   15.2457   21.9981 C   0  0  0  0  0  0  0  0  0  0  0  0
   11.7349   15.3792   21.1117 C   0  0  0  0  0  0  0  0  0  0  0  0
   11.2069   15.4683   19.8663 O   0  0  0  0  0  0  0  0  0  0  0  0
    9.8688   15.4040   20.0795 C   0  0  0  0  0  0  0  0  0  0  0  0
    9.5000   15.2576   21.3309 N   0  0  0  0  0  0  0  0  0  0  0  0
  1  2  1  0
  2  3  1  0
  3  4  2  0
  4  5  1  0
  5  6  2  0
  6  7  1  0
  7  8  1  0
  7  9  2  0
  9 10  1  0
 10 11  2  0
 10 12  1  0
 12 13  1  0
 13 14  1  1
 13 15  1  0
 15 16  1  0
 16 17  2  0
 17 18  1  0
 18 19  1  0
 19 20  2  0
  9  3  1  0
 20 16  1  0
M  END
>  <energy_score>  (847) 
-15.172574

>  <inchikey>  (847) 
None

>  <smiles>  (847) 
None

>  <ref_pdb>  (847) 
A5594a

>  <alias>  (847) 
None

>  <HIPPO Pose ID>  (847) 
499582

>  <name>  (847) 
P499582

>  <HIPPO Compound ID>  (847) 
306424

>  <ref_mols>  (847) 
A3408a,A5594a

>  <distance_score>  (847) 
1.304892

>  <inspiration_score>  (847) 
None

$$$$
P499583
     RDKit          3D

 20 21  0  0  0  0  0  0  0  0999 V2000
    7.0810   14.7057   23.8293 C   0  0  0  0  0  0  0  0  0  0  0  0
    7.4217   14.0222   25.1494 C   0  0  0  0  0  0  0  0  0  0  0  0
    6.4590   12.9117   25.5136 C   0  0  0  0  0  0  0  0  0  0  0  0
    5.3344   13.2976   26.2687 C   0  0  0  0  0  0  0  0  0  0  0  0
    4.4348   12.3599   26.7778 C   0  0  0  0  0  0  0  0  0  0  0  0
    4.6064   11.0132   26.4997 C   0  0  0  0  0  0  0  0  0  0  0  0
    5.6642   10.6163   25.7002 C   0  0  0  0  0  0  0  0  0  0  0  0
    5.7392    9.3171   25.3824 F   0  0  0  0  0  0  0  0  0  0  0  0
    6.6110   11.5350   25.2207 C   0  0  0  0  0  0  0  0  0  0  0  0
    7.8723   10.9161   24.7440 C   0  0  0  0  0  0  0  0  0  0  0  0
    8.1492    9.9069   25.2373 O   0  0  0  0  0  0  0  0  0  0  0  0
    8.6395   11.7697   23.7541 N   0  0  0  0  0  0  0  0  0  0  0  0
    9.9546   11.6196   23.2247 C   0  0  0  0  0  0  0  0  0  0  0  0
   10.8239   12.7417   23.8075 C   0  0  0  0  0  0  0  0  0  0  0  0
   10.8116   13.9568   22.9696 C   0  0  0  0  0  0  0  0  0  0  0  0
   11.7768   14.9277   22.8890 C   0  0  0  0  0  0  0  0  0  0  0  0
   11.4977   15.7076   21.8184 O   0  0  0  0  0  0  0  0  0  0  0  0
   10.3580   15.1586   21.3067 C   0  0  0  0  0  0  0  0  0  0  0  0
    9.9518   15.6524   19.9911 C   0  0  0  0  0  0  0  0  0  0  0  0
    9.8399   14.1860   22.0288 N   0  0  0  0  0  0  0  0  0  0  0  0
  1  2  1  0
  2  3  1  0
  3  4  2  0
  4  5  1  0
  5  6  2  0
  6  7  1  0
  7  8  1  0
  7  9  2  0
  9 10  1  0
 10 11  2  0
 10 12  1  0
 12 13  1  0
 13 14  1  0
 14 15  1  0
 15 16  2  0
 16 17  1  0
 17 18  1  0
 18 19  1  0
 18 20  2  0
  9  3  1  0
 20 15  1  0
M  END
>  <energy_score>  (848) 
-2.76466

>  <inchikey>  (848) 
None

>  <smiles>  (848) 
None

>  <ref_pdb>  (848) 
A5594a

>  <alias>  (848) 
None

>  <HIPPO Pose ID>  (848) 
499583

>  <name>  (848) 
P499583

>  <HIPPO Compound ID>  (848) 
306425

>  <ref_mols>  (848) 
A3408a,A5594a

>  <distance_score>  (848) 
1.687713

>  <inspiration_score>  (848) 
None

$$$$
P499584
     RDKit          3D

 20 21  0  0  0  0  0  0  0  0999 V2000
    6.9284   14.7296   24.3126 C   0  0  0  0  0  0  0  0  0  0  0  0
    7.4783   13.8572   25.4282 C   0  0  0  0  0  0  0  0  0  0  0  0
    6.5471   12.7038   25.7234 C   0  0  0  0  0  0  0  0  0  0  0  0
    5.4398   13.0149   26.5408 C   0  0  0  0  0  0  0  0  0  0  0  0
    4.5336   12.0405   26.9543 C   0  0  0  0  0  0  0  0  0  0  0  0
    4.6884   10.7336   26.5258 C   0  0  0  0  0  0  0  0  0  0  0  0
    5.7376   10.4162   25.6786 C   0  0  0  0  0  0  0  0  0  0  0  0
    5.7934    9.1584   25.2234 F   0  0  0  0  0  0  0  0  0  0  0  0
    6.6878   11.3693   25.2811 C   0  0  0  0  0  0  0  0  0  0  0  0
    7.9169   10.7932   24.6701 C   0  0  0  0  0  0  0  0  0  0  0  0
    8.2100    9.7375   25.0449 O   0  0  0  0  0  0  0  0  0  0  0  0
    8.6376   11.7376   23.7246 N   0  0  0  0  0  0  0  0  0  0  0  0
    9.9216   11.6322   23.1059 C   0  0  0  0  0  0  0  0  0  0  0  0
   10.7015   12.9393   23.2288 C   0  0  0  0  0  0  0  0  0  0  0  0
   10.1200   14.0232   22.4033 C   0  0  0  0  0  0  0  0  0  0  0  0
    8.7741   14.0602   22.1199 N   0  0  0  0  0  0  0  0  0  0  0  0
    8.6502   15.1352   21.3789 C   0  0  0  0  0  0  0  0  0  0  0  0
    9.7992   15.7981   21.1196 O   0  0  0  0  0  0  0  0  0  0  0  0
   10.7433   15.0905   21.7992 C   0  0  0  0  0  0  0  0  0  0  0  0
   12.1141   15.5920   21.7105 C   0  0  0  0  0  0  0  0  0  0  0  0
  1  2  1  0
  2  3  1  0
  3  4  2  0
  4  5  1  0
  5  6  2  0
  6  7  1  0
  7  8  1  0
  7  9  2  0
  9 10  1  0
 10 11  2  0
 10 12  1  0
 12 13  1  0
 13 14  1  0
 14 15  1  0
 15 16  1  0
 16 17  2  0
 17 18  1  0
 18 19  1  0
 19 20  1  0
  9  3  1  0
 19 15  2  0
M  END
>  <energy_score>  (849) 
-2.747821

>  <inchikey>  (849) 
None

>  <smiles>  (849) 
None

>  <ref_pdb>  (849) 
A5594a

>  <alias>  (849) 
None

>  <HIPPO Pose ID>  (849) 
499584

>  <name>  (849) 
P499584

>  <HIPPO Compound ID>  (849) 
306426

>  <ref_mols>  (849) 
A3408a,A5594a

>  <distance_score>  (849) 
1.56177

>  <inspiration_score>  (849) 
None

$$$$
P499585
     RDKit          3D

 20 21  0  0  0  0  0  0  0  0999 V2000
    7.0306   14.5080   24.7446 C   0  0  0  0  0  0  0  0  0  0  0  0
    6.7581   13.1140   25.2229 C   0  0  0  0  0  0  0  0  0  0  0  0
    5.6819   12.8829   26.0896 C   0  0  0  0  0  0  0  0  0  0  0  0
    5.3287   11.5832   26.4464 C   0  0  0  0  0  0  0  0  0  0  0  0
    4.0020   11.3252   27.5123 Cl  0  0  0  0  0  0  0  0  0  0  0  0
    6.0328   10.4938   25.9404 C   0  0  0  0  0  0  0  0  0  0  0  0
    7.1419   10.6991   25.1089 C   0  0  0  0  0  0  0  0  0  0  0  0
    7.9016    9.5378   24.5363 C   0  0  0  0  0  0  0  0  0  0  0  0
    7.5149   12.0179   24.7828 C   0  0  0  0  0  0  0  0  0  0  0  0
    8.7056   12.2033   23.9176 C   0  0  0  0  0  0  0  0  0  0  0  0
    8.7354   11.6283   22.9111 O   0  0  0  0  0  0  0  0  0  0  0  0
    9.7337   13.1360   24.5566 N   0  0  0  0  0  0  0  0  0  0  0  0
   11.0646   13.4888   24.1370 C   0  0  2  0  0  0  0  0  0  0  0  0
   11.4959   14.8007   24.7708 C   0  0  0  0  0  0  0  0  0  0  0  0
   11.2096   13.5035   22.6170 C   0  0  0  0  0  0  0  0  0  0  0  0
   10.5017   14.6000   21.9319 C   0  0  0  0  0  0  0  0  0  0  0  0
   10.9258   15.2778   20.8170 C   0  0  0  0  0  0  0  0  0  0  0  0
    9.9756   16.1911   20.4969 O   0  0  0  0  0  0  0  0  0  0  0  0
    9.0279   16.0244   21.4564 C   0  0  0  0  0  0  0  0  0  0  0  0
    9.2808   15.0852   22.3368 N   0  0  0  0  0  0  0  0  0  0  0  0
  1  2  1  0
  2  3  2  0
  3  4  1  0
  4  5  1  0
  4  6  2  0
  6  7  1  0
  7  8  1  0
  7  9  2  0
  9 10  1  0
 10 11  2  0
 10 12  1  0
 12 13  1  0
 13 14  1  6
 13 15  1  0
 15 16  1  0
 16 17  2  0
 17 18  1  0
 18 19  1  0
 19 20  2  0
  9  2  1  0
 20 16  1  0
M  END
>  <energy_score>  (850) 
-20.680495

>  <inchikey>  (850) 
None

>  <smiles>  (850) 
None

>  <ref_pdb>  (850) 
A5594a

>  <alias>  (850) 
None

>  <HIPPO Pose ID>  (850) 
499585

>  <name>  (850) 
P499585

>  <HIPPO Compound ID>  (850) 
306427

>  <ref_mols>  (850) 
A3408a,A5594a

>  <distance_score>  (850) 
1.516529

>  <inspiration_score>  (850) 
None

$$$$
P499587
     RDKit          3D

 20 21  0  0  0  0  0  0  0  0999 V2000
    7.0913   14.4374   24.5700 C   0  0  0  0  0  0  0  0  0  0  0  0
    6.9117   13.0287   25.0449 C   0  0  0  0  0  0  0  0  0  0  0  0
    5.8244   12.7414   25.8840 C   0  0  0  0  0  0  0  0  0  0  0  0
    5.5285   11.4285   26.2242 C   0  0  0  0  0  0  0  0  0  0  0  0
    4.2163   11.0949   27.2851 Cl  0  0  0  0  0  0  0  0  0  0  0  0
    6.2836   10.3853   25.7000 C   0  0  0  0  0  0  0  0  0  0  0  0
    7.4080   10.6463   24.8973 C   0  0  0  0  0  0  0  0  0  0  0  0
    8.1873    9.5030   24.3090 C   0  0  0  0  0  0  0  0  0  0  0  0
    7.7550   11.9847   24.6188 C   0  0  0  0  0  0  0  0  0  0  0  0
    9.0608   12.2649   23.9260 C   0  0  0  0  0  0  0  0  0  0  0  0
    9.3361   11.6663   22.9685 O   0  0  0  0  0  0  0  0  0  0  0  0
    9.8760   13.2927   24.7272 N   0  0  0  0  0  0  0  0  0  0  0  0
   11.1657   13.8705   24.4651 C   0  0  0  0  0  0  0  0  0  0  0  0
   11.4871   14.0649   23.0074 C   0  0  0  0  0  0  0  0  0  0  0  0
   10.5462   14.9193   22.2659 C   0  0  0  0  0  0  0  0  0  0  0  0
    9.3836   15.4454   22.7697 N   0  0  0  0  0  0  0  0  0  0  0  0
    8.8858   16.1050   21.7459 C   0  0  0  0  0  0  0  0  0  0  0  0
    9.6264   16.0587   20.6093 O   0  0  0  0  0  0  0  0  0  0  0  0
   10.7040   15.3163   20.9646 C   0  0  0  0  0  0  0  0  0  0  0  0
   11.7610   15.1153   19.9772 C   0  0  0  0  0  0  0  0  0  0  0  0
  1  2  1  0
  2  3  2  0
  3  4  1  0
  4  5  1  0
  4  6  2  0
  6  7  1  0
  7  8  1  0
  7  9  2  0
  9 10  1  0
 10 11  2  0
 10 12  1  0
 12 13  1  0
 13 14  1  0
 14 15  1  0
 15 16  1  0
 16 17  2  0
 17 18  1  0
 18 19  1  0
 19 20  1  0
  9  2  1  0
 19 15  2  0
M  END
>  <energy_score>  (851) 
-10.565709

>  <inchikey>  (851) 
None

>  <smiles>  (851) 
None

>  <ref_pdb>  (851) 
A5594a

>  <alias>  (851) 
None

>  <HIPPO Pose ID>  (851) 
499587

>  <name>  (851) 
P499587

>  <HIPPO Compound ID>  (851) 
306429

>  <ref_mols>  (851) 
A3408a,A5594a

>  <distance_score>  (851) 
1.686126

>  <inspiration_score>  (851) 
None

$$$$
P499588
     RDKit          3D

 20 21  0  0  0  0  0  0  0  0999 V2000
    4.6229    9.9502   27.9517 C   0  0  0  0  0  0  0  0  0  0  0  0
    5.1679    9.7981   26.2345 S   0  0  0  0  0  0  0  0  0  0  0  0
    6.0317   11.3069   25.9554 C   0  0  0  0  0  0  0  0  0  0  0  0
    5.4973   12.5118   26.3935 C   0  0  0  0  0  0  0  0  0  0  0  0
    6.1107   13.7059   26.0502 C   0  0  0  0  0  0  0  0  0  0  0  0
    7.2763   13.7236   25.2694 C   0  0  0  0  0  0  0  0  0  0  0  0
    7.7136   15.0618   24.7648 C   0  0  0  0  0  0  0  0  0  0  0  0
    7.8532   12.5066   24.8677 C   0  0  0  0  0  0  0  0  0  0  0  0
    9.0751   12.4262   24.0036 C   0  0  0  0  0  0  0  0  0  0  0  0
    8.9848   11.8086   23.0197 O   0  0  0  0  0  0  0  0  0  0  0  0
   10.2467   13.2719   24.5510 N   0  0  0  0  0  0  0  0  0  0  0  0
   11.5316   13.6144   23.9478 C   0  0  2  0  0  0  0  0  0  0  0  0
   12.6672   13.5556   24.9491 C   0  0  0  0  0  0  0  0  0  0  0  0
   11.5067   15.0290   23.3560 C   0  0  0  0  0  0  0  0  0  0  0  0
   10.6525   15.0869   22.1673 C   0  0  0  0  0  0  0  0  0  0  0  0
   11.0228   15.0269   20.8486 C   0  0  0  0  0  0  0  0  0  0  0  0
    9.8868   15.0377   20.1048 O   0  0  0  0  0  0  0  0  0  0  0  0
    8.8964   15.0738   21.0312 C   0  0  0  0  0  0  0  0  0  0  0  0
    9.2921   15.1509   22.2755 N   0  0  0  0  0  0  0  0  0  0  0  0
    7.2072   11.3010   25.1921 C   0  0  0  0  0  0  0  0  0  0  0  0
  1  2  1  0
  2  3  1  0
  3  4  2  0
  4  5  1  0
  5  6  2  0
  6  7  1  0
  6  8  1  0
  8  9  1  0
  9 10  2  0
  9 11  1  0
 11 12  1  0
 12 13  1  1
 12 14  1  0
 14 15  1  0
 15 16  2  0
 16 17  1  0
 17 18  1  0
 18 19  2  0
  8 20  2  0
 20  3  1  0
 19 15  1  0
M  END
>  <energy_score>  (852) 
-5.4434

>  <inchikey>  (852) 
None

>  <smiles>  (852) 
None

>  <ref_pdb>  (852) 
A5594a

>  <alias>  (852) 
None

>  <HIPPO Pose ID>  (852) 
499588

>  <name>  (852) 
P499588

>  <HIPPO Compound ID>  (852) 
306430

>  <ref_mols>  (852) 
A3408a,A5594a

>  <distance_score>  (852) 
1.76066

>  <inspiration_score>  (852) 
None

$$$$
P499591
     RDKit          3D

 20 21  0  0  0  0  0  0  0  0999 V2000
    7.4720   14.9039   24.2698 C   0  0  0  0  0  0  0  0  0  0  0  0
    6.6064   13.7030   23.9226 C   0  0  0  0  0  0  0  0  0  0  0  0
    6.2510   12.7964   25.0913 C   0  0  0  0  0  0  0  0  0  0  0  0
    5.2927   13.2833   25.9948 C   0  0  0  0  0  0  0  0  0  0  0  0
    4.7255   12.4541   26.9623 C   0  0  0  0  0  0  0  0  0  0  0  0
    5.0870   11.1153   27.0278 C   0  0  0  0  0  0  0  0  0  0  0  0
    4.2849    9.9962   28.3207 Br  0  0  0  0  0  0  0  0  0  0  0  0
    6.0502   10.6117   26.1693 C   0  0  0  0  0  0  0  0  0  0  0  0
    6.6771   11.4534   25.2391 C   0  0  0  0  0  0  0  0  0  0  0  0
    7.7905   10.8077   24.4742 C   0  0  0  0  0  0  0  0  0  0  0  0
    7.7390    9.6751   24.2340 O   0  0  0  0  0  0  0  0  0  0  0  0
    8.8367   11.8476   24.1050 N   0  0  0  0  0  0  0  0  0  0  0  0
   10.0873   11.7065   23.4445 C   0  0  0  0  0  0  0  0  0  0  0  0
   11.0060   12.8421   23.8982 C   0  0  0  0  0  0  0  0  0  0  0  0
   10.9438   14.0112   22.9986 C   0  0  0  0  0  0  0  0  0  0  0  0
   11.8922   14.9847   22.8213 C   0  0  0  0  0  0  0  0  0  0  0  0
   11.5436   15.7219   21.7419 O   0  0  0  0  0  0  0  0  0  0  0  0
   10.3794   15.1487   21.3229 C   0  0  0  0  0  0  0  0  0  0  0  0
    9.8780   15.6050   20.0282 C   0  0  0  0  0  0  0  0  0  0  0  0
    9.9179   14.1974   22.1083 N   0  0  0  0  0  0  0  0  0  0  0  0
  1  2  1  0
  2  3  1  0
  3  4  2  0
  4  5  1  0
  5  6  2  0
  6  7  1  0
  6  8  1  0
  8  9  2  0
  9 10  1  0
 10 11  2  0
 10 12  1  0
 12 13  1  0
 13 14  1  0
 14 15  1  0
 15 16  2  0
 16 17  1  0
 17 18  1  0
 18 19  1  0
 18 20  2  0
  9  3  1  0
 20 15  1  0
M  END
>  <energy_score>  (853) 
-1.910431

>  <inchikey>  (853) 
None

>  <smiles>  (853) 
None

>  <ref_pdb>  (853) 
A5594a

>  <alias>  (853) 
None

>  <HIPPO Pose ID>  (853) 
499591

>  <name>  (853) 
P499591

>  <HIPPO Compound ID>  (853) 
306434

>  <ref_mols>  (853) 
A3408a,A5594a

>  <distance_score>  (853) 
1.908178

>  <inspiration_score>  (853) 
None

$$$$
P499592
     RDKit          3D

 20 21  0  0  0  0  0  0  0  0999 V2000
    7.0156   13.9837   22.6607 C   0  0  0  0  0  0  0  0  0  0  0  0
    7.0302   14.3157   24.1423 C   0  0  0  0  0  0  0  0  0  0  0  0
    6.6230   13.1643   25.0271 C   0  0  0  0  0  0  0  0  0  0  0  0
    5.5150   13.3871   25.8602 C   0  0  0  0  0  0  0  0  0  0  0  0
    4.9767   12.3647   26.6259 C   0  0  0  0  0  0  0  0  0  0  0  0
    5.5236   11.0920   26.5551 C   0  0  0  0  0  0  0  0  0  0  0  0
    4.7405    9.7728   27.6506 Br  0  0  0  0  0  0  0  0  0  0  0  0
    6.6324   10.8369   25.7465 C   0  0  0  0  0  0  0  0  0  0  0  0
    7.2243   11.8892   25.0231 C   0  0  0  0  0  0  0  0  0  0  0  0
    8.4776   11.5857   24.2532 C   0  0  0  0  0  0  0  0  0  0  0  0
    8.5227   10.6036   23.6310 O   0  0  0  0  0  0  0  0  0  0  0  0
    9.5172   12.7086   24.4217 N   0  0  0  0  0  0  0  0  0  0  0  0
   10.7969   12.9054   23.7831 C   0  0  0  0  0  0  0  0  0  0  0  0
   11.2381   14.3636   23.7609 C   0  0  0  0  0  0  0  0  0  0  0  0
   10.5268   15.1431   22.7265 C   0  0  0  0  0  0  0  0  0  0  0  0
    9.4336   15.9159   23.0198 N   0  0  0  0  0  0  0  0  0  0  0  0
    9.1227   16.4599   21.8610 C   0  0  0  0  0  0  0  0  0  0  0  0
    9.8928   16.0761   20.8167 O   0  0  0  0  0  0  0  0  0  0  0  0
   10.8112   15.2535   21.3863 C   0  0  0  0  0  0  0  0  0  0  0  0
   11.8434   14.7279   20.5000 C   0  0  0  0  0  0  0  0  0  0  0  0
  1  2  1  0
  2  3  1  0
  3  4  2  0
  4  5  1  0
  5  6  2  0
  6  7  1  0
  6  8  1  0
  8  9  2  0
  9 10  1  0
 10 11  2  0
 10 12  1  0
 12 13  1  0
 13 14  1  0
 14 15  1  0
 15 16  1  0
 16 17  2  0
 17 18  1  0
 18 19  1  0
 19 20  1  0
  9  3  1  0
 19 15  2  0
M  END
>  <energy_score>  (854) 
-10.711014

>  <inchikey>  (854) 
None

>  <smiles>  (854) 
None

>  <ref_pdb>  (854) 
A5594a

>  <alias>  (854) 
None

>  <HIPPO Pose ID>  (854) 
499592

>  <name>  (854) 
P499592

>  <HIPPO Compound ID>  (854) 
306435

>  <ref_mols>  (854) 
A3408a,A5594a

>  <distance_score>  (854) 
1.425162

>  <inspiration_score>  (854) 
None

$$$$
P499593
     RDKit          3D

 20 21  0  0  0  0  0  0  0  0999 V2000
    3.9970   11.4630   27.4988 C   0  0  0  0  0  0  0  0  0  0  0  0
    5.1530   11.5812   26.5415 C   0  0  0  0  0  0  0  0  0  0  0  0
    5.8404   10.4165   26.1867 C   0  0  0  0  0  0  0  0  0  0  0  0
    6.9648   10.4759   25.3685 C   0  0  0  0  0  0  0  0  0  0  0  0
    7.4062   11.7030   24.8630 C   0  0  0  0  0  0  0  0  0  0  0  0
    8.7103   11.6885   24.1233 C   0  0  0  0  0  0  0  0  0  0  0  0
    8.9204   10.8048   23.3938 O   0  0  0  0  0  0  0  0  0  0  0  0
    9.6047   12.8746   24.5411 N   0  0  0  0  0  0  0  0  0  0  0  0
   10.9161   13.2746   24.0733 C   0  0  2  0  0  0  0  0  0  0  0  0
   11.3533   14.5932   24.7080 C   0  0  0  0  0  0  0  0  0  0  0  0
   11.0048   13.2894   22.5492 C   0  0  0  0  0  0  0  0  0  0  0  0
   10.4209   14.4805   21.9094 C   0  0  0  0  0  0  0  0  0  0  0  0
   11.0007   15.2708   20.9484 C   0  0  0  0  0  0  0  0  0  0  0  0
   10.1210   16.2539   20.6326 O   0  0  0  0  0  0  0  0  0  0  0  0
    9.0594   16.0154   21.4466 C   0  0  0  0  0  0  0  0  0  0  0  0
    9.1744   14.9627   22.2227 N   0  0  0  0  0  0  0  0  0  0  0  0
    6.6390   12.8644   25.0684 C   0  0  0  0  0  0  0  0  0  0  0  0
    6.9191   14.1074   24.2710 C   0  0  0  0  0  0  0  0  0  0  0  0
    5.5550   12.8043   25.9715 C   0  0  0  0  0  0  0  0  0  0  0  0
    4.6112   14.4013   26.4435 Br  0  0  0  0  0  0  0  0  0  0  0  0
  1  2  1  0
  2  3  2  0
  3  4  1  0
  4  5  2  0
  5  6  1  0
  6  7  2  0
  6  8  1  0
  8  9  1  0
  9 10  1  6
  9 11  1  0
 11 12  1  0
 12 13  2  0
 13 14  1  0
 14 15  1  0
 15 16  2  0
  5 17  1  0
 17 18  1  0
 17 19  2  0
 19 20  1  0
 19  2  1  0
 16 12  1  0
M  END
>  <energy_score>  (855) 
-10.361338

>  <inchikey>  (855) 
None

>  <smiles>  (855) 
None

>  <ref_pdb>  (855) 
A5594a

>  <alias>  (855) 
None

>  <HIPPO Pose ID>  (855) 
499593

>  <name>  (855) 
P499593

>  <HIPPO Compound ID>  (855) 
306436

>  <ref_mols>  (855) 
A3408a,A5594a

>  <distance_score>  (855) 
1.399696

>  <inspiration_score>  (855) 
None

$$$$
P499595
     RDKit          3D

 20 21  0  0  0  0  0  0  0  0999 V2000
    4.4025   10.8850   27.4639 C   0  0  0  0  0  0  0  0  0  0  0  0
    5.4952   11.3174   26.5303 C   0  0  0  0  0  0  0  0  0  0  0  0
    6.2607   10.3583   25.8542 C   0  0  0  0  0  0  0  0  0  0  0  0
    7.3009   10.7277   24.9946 C   0  0  0  0  0  0  0  0  0  0  0  0
    8.1369    9.6973   24.2967 C   0  0  0  0  0  0  0  0  0  0  0  0
    7.5197   12.0940   24.7871 C   0  0  0  0  0  0  0  0  0  0  0  0
    8.4491   12.5441   23.7394 C   0  0  0  0  0  0  0  0  0  0  0  0
    8.0657   12.5620   22.6438 O   0  0  0  0  0  0  0  0  0  0  0  0
    9.7784   13.0169   24.3340 N   0  0  0  0  0  0  0  0  0  0  0  0
   10.8879   13.7026   23.7197 C   0  0  2  0  0  0  0  0  0  0  0  0
   12.1399   13.6896   24.5759 C   0  0  0  0  0  0  0  0  0  0  0  0
   10.4881   15.1521   23.4077 C   0  0  0  0  0  0  0  0  0  0  0  0
   10.5447   15.3640   21.9591 C   0  0  0  0  0  0  0  0  0  0  0  0
   11.6581   15.4991   21.1671 C   0  0  0  0  0  0  0  0  0  0  0  0
   11.2391   15.5633   19.8788 O   0  0  0  0  0  0  0  0  0  0  0  0
    9.8875   15.4796   19.9733 C   0  0  0  0  0  0  0  0  0  0  0  0
    9.4111   15.3530   21.1904 N   0  0  0  0  0  0  0  0  0  0  0  0
    6.7793   13.0763   25.4588 C   0  0  0  0  0  0  0  0  0  0  0  0
    7.0363   14.5318   25.2104 C   0  0  0  0  0  0  0  0  0  0  0  0
    5.7820   12.6737   26.3508 C   0  0  0  0  0  0  0  0  0  0  0  0
  1  2  1  0
  2  3  2  0
  3  4  1  0
  4  5  1  0
  4  6  2  0
  6  7  1  0
  7  8  2  0
  7  9  1  0
  9 10  1  0
 10 11  1  1
 10 12  1  0
 12 13  1  0
 13 14  2  0
 14 15  1  0
 15 16  1  0
 16 17  2  0
  6 18  1  0
 18 19  1  0
 18 20  2  0
 20  2  1  0
 17 13  1  0
M  END
>  <energy_score>  (856) 
-20.018383

>  <inchikey>  (856) 
None

>  <smiles>  (856) 
None

>  <ref_pdb>  (856) 
A5594a

>  <alias>  (856) 
None

>  <HIPPO Pose ID>  (856) 
499595

>  <name>  (856) 
P499595

>  <HIPPO Compound ID>  (856) 
306439

>  <ref_mols>  (856) 
A3408a,A5594a

>  <distance_score>  (856) 
1.828617

>  <inspiration_score>  (856) 
None

$$$$
P499600
     RDKit          3D

 20 21  0  0  0  0  0  0  0  0999 V2000
   10.7758   14.4260   24.6688 C   0  0  0  0  0  0  0  0  0  0  0  0
   10.4785   13.0514   24.0991 C   0  0  2  0  0  0  0  0  0  0  0  0
   10.6497   12.9682   22.5863 C   0  0  0  0  0  0  0  0  0  0  0  0
   10.1390   14.1481   21.8742 C   0  0  0  0  0  0  0  0  0  0  0  0
   10.8667   15.1166   21.2247 C   0  0  0  0  0  0  0  0  0  0  0  0
   10.0055   16.1002   20.8630 O   0  0  0  0  0  0  0  0  0  0  0  0
    8.8058   15.6657   21.3301 C   0  0  0  0  0  0  0  0  0  0  0  0
    8.8078   14.4665   21.8638 N   0  0  0  0  0  0  0  0  0  0  0  0
    9.1637   12.7124   24.5762 N   0  0  0  0  0  0  0  0  0  0  0  0
    8.3170   11.4470   24.3584 C   0  0  0  0  0  0  0  0  0  0  0  0
    8.5783   10.4486   23.8239 O   0  0  0  0  0  0  0  0  0  0  0  0
    6.9803   11.6389   25.0008 C   0  0  0  0  0  0  0  0  0  0  0  0
    6.4400   10.6351   25.8098 C   0  0  0  0  0  0  0  0  0  0  0  0
    5.3293   10.9337   26.6065 C   0  0  0  0  0  0  0  0  0  0  0  0
    4.6350    9.6979   27.8541 Br  0  0  0  0  0  0  0  0  0  0  0  0
    4.7323   12.1948   26.5683 C   0  0  0  0  0  0  0  0  0  0  0  0
    5.2191   13.1654   25.7053 C   0  0  0  0  0  0  0  0  0  0  0  0
    6.3221   12.8692   24.9102 C   0  0  0  0  0  0  0  0  0  0  0  0
    6.7735   13.8963   23.9761 C   0  0  0  0  0  0  0  0  0  0  0  0
    7.3127   14.8965   24.4304 O   0  0  0  0  0  0  0  0  0  0  0  0
  2  1  1  6
  2  3  1  0
  3  4  1  0
  4  5  2  0
  5  6  1  0
  6  7  1  0
  7  8  2  0
  2  9  1  0
  9 10  1  0
 10 11  2  0
 10 12  1  0
 12 13  2  0
 13 14  1  0
 14 15  1  0
 14 16  2  0
 16 17  1  0
 17 18  2  0
 18 19  1  0
 19 20  2  0
  8  4  1  0
 18 12  1  0
M  END
>  <energy_score>  (857) 
-5.965253

>  <inchikey>  (857) 
None

>  <smiles>  (857) 
None

>  <ref_pdb>  (857) 
A5594a

>  <alias>  (857) 
None

>  <HIPPO Pose ID>  (857) 
499600

>  <name>  (857) 
P499600

>  <HIPPO Compound ID>  (857) 
306445

>  <ref_mols>  (857) 
A3408a,A5594a

>  <distance_score>  (857) 
1.920035

>  <inspiration_score>  (857) 
None

$$$$
P499601
     RDKit          3D

 20 21  0  0  0  0  0  0  0  0999 V2000
   11.9068   15.4940   21.6348 C   0  0  0  0  0  0  0  0  0  0  0  0
   10.5416   14.9839   21.7983 C   0  0  0  0  0  0  0  0  0  0  0  0
    9.5416   15.7345   21.2577 O   0  0  0  0  0  0  0  0  0  0  0  0
    8.4110   15.0615   21.5837 C   0  0  0  0  0  0  0  0  0  0  0  0
    8.5985   13.9223   22.2111 N   0  0  0  0  0  0  0  0  0  0  0  0
    9.9667   13.8771   22.3814 C   0  0  0  0  0  0  0  0  0  0  0  0
   10.6232   12.7655   23.1145 C   0  0  0  0  0  0  0  0  0  0  0  0
    9.8424   11.4457   23.0735 C   0  0  0  0  0  0  0  0  0  0  0  0
    8.5656   11.6344   23.6892 N   0  0  0  0  0  0  0  0  0  0  0  0
    7.8301   10.7911   24.7199 C   0  0  0  0  0  0  0  0  0  0  0  0
    8.1024    9.7650   25.1832 O   0  0  0  0  0  0  0  0  0  0  0  0
    6.6208   11.4434   25.2881 C   0  0  0  0  0  0  0  0  0  0  0  0
    5.7156   10.5916   25.9483 C   0  0  0  0  0  0  0  0  0  0  0  0
    4.6989   11.1251   26.7303 C   0  0  0  0  0  0  0  0  0  0  0  0
    3.6357   10.0036   27.8174 Br  0  0  0  0  0  0  0  0  0  0  0  0
    4.5028   12.5004   26.7886 C   0  0  0  0  0  0  0  0  0  0  0  0
    5.3820   13.3551   26.1299 C   0  0  0  0  0  0  0  0  0  0  0  0
    6.4779   12.8324   25.4366 C   0  0  0  0  0  0  0  0  0  0  0  0
    7.5130   13.8172   25.0693 C   0  0  0  0  0  0  0  0  0  0  0  0
    7.2199   14.9010   24.5860 O   0  0  0  0  0  0  0  0  0  0  0  0
  1  2  1  0
  2  3  1  0
  3  4  1  0
  4  5  2  0
  5  6  1  0
  6  7  1  0
  7  8  1  0
  8  9  1  0
  9 10  1  0
 10 11  2  0
 10 12  1  0
 12 13  2  0
 13 14  1  0
 14 15  1  0
 14 16  2  0
 16 17  1  0
 17 18  2  0
 18 19  1  0
 19 20  2  0
  6  2  2  0
 18 12  1  0
M  END
>  <energy_score>  (858) 
-3.5419

>  <inchikey>  (858) 
None

>  <smiles>  (858) 
None

>  <ref_pdb>  (858) 
A5594a

>  <alias>  (858) 
None

>  <HIPPO Pose ID>  (858) 
499601

>  <name>  (858) 
P499601

>  <HIPPO Compound ID>  (858) 
306447

>  <ref_mols>  (858) 
A3408a,A5594a

>  <distance_score>  (858) 
1.455411

>  <inspiration_score>  (858) 
None

$$$$
P499602
     RDKit          3D

 20 21  0  0  0  0  0  0  0  0999 V2000
    3.6861   13.0530   27.2152 C   0  0  0  0  0  0  0  0  0  0  0  0
    4.9599   12.7405   26.4904 C   0  0  0  0  0  0  0  0  0  0  0  0
    5.3135   11.4237   26.2038 C   0  0  0  0  0  0  0  0  0  0  0  0
    6.4806   11.1278   25.4738 C   0  0  0  0  0  0  0  0  0  0  0  0
    6.7707    9.6942   25.2126 C   0  0  0  0  0  0  0  0  0  0  0  0
    7.3409   12.1623   25.0646 C   0  0  0  0  0  0  0  0  0  0  0  0
    8.6497   11.8817   24.3722 C   0  0  0  0  0  0  0  0  0  0  0  0
    8.7281   10.9063   23.7443 O   0  0  0  0  0  0  0  0  0  0  0  0
    9.6831   12.9930   24.6196 N   0  0  0  0  0  0  0  0  0  0  0  0
   10.9957   13.1847   24.0706 C   0  0  0  0  0  0  0  0  0  0  0  0
   10.9051   13.1114   22.5559 C   0  0  0  0  0  0  0  0  0  0  0  0
   10.1001   14.2314   22.0429 C   0  0  0  0  0  0  0  0  0  0  0  0
    8.7256   14.2203   22.0164 N   0  0  0  0  0  0  0  0  0  0  0  0
    8.4347   15.4159   21.5612 C   0  0  0  0  0  0  0  0  0  0  0  0
    9.5028   16.2024   21.2590 O   0  0  0  0  0  0  0  0  0  0  0  0
   10.5725   15.4362   21.5989 C   0  0  0  0  0  0  0  0  0  0  0  0
   11.9138   15.9939   21.4410 C   0  0  0  0  0  0  0  0  0  0  0  0
    6.9478   13.4705   25.3231 C   0  0  0  0  0  0  0  0  0  0  0  0
    7.7206   14.4977   24.9457 F   0  0  0  0  0  0  0  0  0  0  0  0
    5.7782   13.7653   26.0197 C   0  0  0  0  0  0  0  0  0  0  0  0
  1  2  1  0
  2  3  2  0
  3  4  1  0
  4  5  1  0
  4  6  2  0
  6  7  1  0
  7  8  2  0
  7  9  1  0
  9 10  1  0
 10 11  1  0
 11 12  1  0
 12 13  1  0
 13 14  2  0
 14 15  1  0
 15 16  1  0
 16 17  1  0
  6 18  1  0
 18 19  1  0
 18 20  2  0
 20  2  1  0
 16 12  2  0
M  END
>  <energy_score>  (859) 
-2.891033

>  <inchikey>  (859) 
None

>  <smiles>  (859) 
None

>  <ref_pdb>  (859) 
A5594a

>  <alias>  (859) 
None

>  <HIPPO Pose ID>  (859) 
499602

>  <name>  (859) 
P499602

>  <HIPPO Compound ID>  (859) 
306448

>  <ref_mols>  (859) 
A3408a,A5594a

>  <distance_score>  (859) 
1.564088

>  <inspiration_score>  (859) 
None

$$$$
P499604
     RDKit          3D

 20 21  0  0  0  0  0  0  0  0999 V2000
   10.1737   15.3890   19.6111 C   0  0  0  0  0  0  0  0  0  0  0  0
   10.0856   14.9145   20.9982 C   0  0  0  0  0  0  0  0  0  0  0  0
    9.7408   13.7294   21.4692 N   0  0  0  0  0  0  0  0  0  0  0  0
   10.2633   13.7267   22.7281 C   0  0  0  0  0  0  0  0  0  0  0  0
   10.5112   12.5289   23.5559 C   0  0  0  0  0  0  0  0  0  0  0  0
    9.6947   11.3005   23.2038 C   0  0  0  0  0  0  0  0  0  0  0  0
    8.4071   11.5067   23.7835 N   0  0  0  0  0  0  0  0  0  0  0  0
    7.6483   10.6937   24.8118 C   0  0  0  0  0  0  0  0  0  0  0  0
    7.9057    9.6791   25.3053 O   0  0  0  0  0  0  0  0  0  0  0  0
    6.4249   11.3694   25.3339 C   0  0  0  0  0  0  0  0  0  0  0  0
    5.5082   10.4958   25.9484 C   0  0  0  0  0  0  0  0  0  0  0  0
    4.4673   10.9778   26.7265 C   0  0  0  0  0  0  0  0  0  0  0  0
    4.3079   12.3464   26.8781 C   0  0  0  0  0  0  0  0  0  0  0  0
    5.1969   13.2296   26.2653 C   0  0  0  0  0  0  0  0  0  0  0  0
    6.2840   12.7664   25.5031 C   0  0  0  0  0  0  0  0  0  0  0  0
    7.2404   13.8088   24.9846 C   0  0  0  0  0  0  0  0  0  0  0  0
    7.3651   13.7783   23.6287 F   0  0  0  0  0  0  0  0  0  0  0  0
   10.6927   14.9850   23.0315 C   0  0  0  0  0  0  0  0  0  0  0  0
   11.3297   15.5318   24.2031 C   0  0  0  0  0  0  0  0  0  0  0  0
   10.5940   15.7637   21.9335 O   0  0  0  0  0  0  0  0  0  0  0  0
  1  2  1  0
  2  3  2  0
  3  4  1  0
  4  5  1  0
  5  6  1  0
  6  7  1  0
  7  8  1  0
  8  9  2  0
  8 10  1  0
 10 11  2  0
 11 12  1  0
 12 13  2  0
 13 14  1  0
 14 15  2  0
 15 16  1  0
 16 17  1  0
  4 18  2  0
 18 19  1  0
 18 20  1  0
 20  2  1  0
 15 10  1  0
M  END
>  <energy_score>  (860) 
-8.501317

>  <inchikey>  (860) 
None

>  <smiles>  (860) 
None

>  <ref_pdb>  (860) 
A5594a

>  <alias>  (860) 
None

>  <HIPPO Pose ID>  (860) 
499604

>  <name>  (860) 
P499604

>  <HIPPO Compound ID>  (860) 
306455

>  <ref_mols>  (860) 
A3408a,A5594a

>  <distance_score>  (860) 
1.644259

>  <inspiration_score>  (860) 
None

$$$$
P499605
     RDKit          3D

 20 21  0  0  0  0  0  0  0  0999 V2000
    9.8383   15.6518   20.0978 C   0  0  0  0  0  0  0  0  0  0  0  0
   10.3856   15.2446   21.3898 C   0  0  0  0  0  0  0  0  0  0  0  0
    9.9246   14.3605   22.2477 N   0  0  0  0  0  0  0  0  0  0  0  0
   11.0015   14.1265   23.0591 C   0  0  0  0  0  0  0  0  0  0  0  0
   11.0657   12.9506   23.9524 C   0  0  0  0  0  0  0  0  0  0  0  0
   10.0414   11.8830   23.5668 C   0  0  0  0  0  0  0  0  0  0  0  0
    8.8211   12.1582   24.2600 N   0  0  0  0  0  0  0  0  0  0  0  0
    7.6255   11.2507   24.5702 C   0  0  0  0  0  0  0  0  0  0  0  0
    7.4731   10.1156   24.3803 O   0  0  0  0  0  0  0  0  0  0  0  0
    6.4973   12.0657   25.1214 C   0  0  0  0  0  0  0  0  0  0  0  0
    5.6777   11.5619   26.1373 C   0  0  0  0  0  0  0  0  0  0  0  0
    5.7144    9.9697   26.7376 Cl  0  0  0  0  0  0  0  0  0  0  0  0
    4.7222   12.3715   26.7543 C   0  0  0  0  0  0  0  0  0  0  0  0
    4.5531   13.6871   26.3563 C   0  0  0  0  0  0  0  0  0  0  0  0
    5.2978   14.1818   25.2946 C   0  0  0  0  0  0  0  0  0  0  0  0
    6.2331   13.3645   24.6507 C   0  0  0  0  0  0  0  0  0  0  0  0
    6.7905   13.9191   23.3943 C   0  0  0  0  0  0  0  0  0  0  0  0
    7.0850   13.2143   22.4389 O   0  0  0  0  0  0  0  0  0  0  0  0
   11.9794   15.0492   22.7964 C   0  0  0  0  0  0  0  0  0  0  0  0
   11.5989   15.7734   21.7173 O   0  0  0  0  0  0  0  0  0  0  0  0
  1  2  1  0
  2  3  2  0
  3  4  1  0
  4  5  1  0
  5  6  1  0
  6  7  1  0
  7  8  1  0
  8  9  2  0
  8 10  1  0
 10 11  2  0
 11 12  1  0
 11 13  1  0
 13 14  2  0
 14 15  1  0
 15 16  2  0
 16 17  1  0
 17 18  2  0
  4 19  2  0
 19 20  1  0
 20  2  1  0
 16 10  1  0
M  END
>  <energy_score>  (861) 
-2.00869

>  <inchikey>  (861) 
None

>  <smiles>  (861) 
None

>  <ref_pdb>  (861) 
A5594a

>  <alias>  (861) 
None

>  <HIPPO Pose ID>  (861) 
499605

>  <name>  (861) 
P499605

>  <HIPPO Compound ID>  (861) 
306457

>  <ref_mols>  (861) 
A3408a,A5594a

>  <distance_score>  (861) 
1.668924

>  <inspiration_score>  (861) 
None

$$$$
P499606
     RDKit          3D

 20 21  0  0  0  0  0  0  0  0999 V2000
    6.8972   14.1451   22.6678 C   0  0  0  0  0  0  0  0  0  0  0  0
    7.0675   14.4546   24.1467 C   0  0  0  0  0  0  0  0  0  0  0  0
    6.7095   13.2690   25.0096 C   0  0  0  0  0  0  0  0  0  0  0  0
    5.5596   13.3813   25.8051 C   0  0  0  0  0  0  0  0  0  0  0  0
    5.0158   12.2727   26.4430 C   0  0  0  0  0  0  0  0  0  0  0  0
    5.5892   11.0142   26.2758 C   0  0  0  0  0  0  0  0  0  0  0  0
    4.9035    9.8171   26.8558 C   0  0  0  0  0  0  0  0  0  0  0  0
    6.7798   10.8963   25.5435 C   0  0  0  0  0  0  0  0  0  0  0  0
    7.3690   12.0287   24.9520 C   0  0  0  0  0  0  0  0  0  0  0  0
    8.6777   11.8498   24.2448 C   0  0  0  0  0  0  0  0  0  0  0  0
    8.8270   10.9136   23.5683 O   0  0  0  0  0  0  0  0  0  0  0  0
    9.6470   12.9998   24.5882 N   0  0  0  0  0  0  0  0  0  0  0  0
   10.9757   13.2884   24.0932 C   0  0  2  0  0  0  0  0  0  0  0  0
   11.5316   14.5718   24.7044 C   0  0  0  0  0  0  0  0  0  0  0  0
   11.0448   13.2796   22.5685 C   0  0  0  0  0  0  0  0  0  0  0  0
   10.6180   14.5172   21.8896 C   0  0  0  0  0  0  0  0  0  0  0  0
   11.1935   15.0848   20.7792 C   0  0  0  0  0  0  0  0  0  0  0  0
   10.4717   16.1833   20.4452 O   0  0  0  0  0  0  0  0  0  0  0  0
    9.5110   16.2411   21.4025 C   0  0  0  0  0  0  0  0  0  0  0  0
    9.5530   15.2784   22.2957 N   0  0  0  0  0  0  0  0  0  0  0  0
  1  2  1  0
  2  3  1  0
  3  4  2  0
  4  5  1  0
  5  6  2  0
  6  7  1  0
  6  8  1  0
  8  9  2  0
  9 10  1  0
 10 11  2  0
 10 12  1  0
 12 13  1  0
 13 14  1  6
 13 15  1  0
 15 16  1  0
 16 17  2  0
 17 18  1  0
 18 19  1  0
 19 20  2  0
  9  3  1  0
 20 16  1  0
M  END
>  <energy_score>  (862) 
-9.618172

>  <inchikey>  (862) 
None

>  <smiles>  (862) 
None

>  <ref_pdb>  (862) 
A5594a

>  <alias>  (862) 
None

>  <HIPPO Pose ID>  (862) 
499606

>  <name>  (862) 
P499606

>  <HIPPO Compound ID>  (862) 
306462

>  <ref_mols>  (862) 
A3408a,A5594a

>  <distance_score>  (862) 
1.53488

>  <inspiration_score>  (862) 
None

$$$$
P499607
     RDKit          3D

 20 21  0  0  0  0  0  0  0  0999 V2000
    6.7674   14.2100   23.9846 C   0  0  0  0  0  0  0  0  0  0  0  0
    6.4083   13.1132   24.9347 C   0  0  0  0  0  0  0  0  0  0  0  0
    5.2797   13.2899   25.7446 C   0  0  0  0  0  0  0  0  0  0  0  0
    4.8247   12.2583   26.5549 C   0  0  0  0  0  0  0  0  0  0  0  0
    5.4780   11.0312   26.5410 C   0  0  0  0  0  0  0  0  0  0  0  0
    4.8929    9.8164   27.6056 Cl  0  0  0  0  0  0  0  0  0  0  0  0
    6.6108   10.8458   25.7481 C   0  0  0  0  0  0  0  0  0  0  0  0
    7.2454    9.6683   25.7625 F   0  0  0  0  0  0  0  0  0  0  0  0
    7.1227   11.9058   24.9987 C   0  0  0  0  0  0  0  0  0  0  0  0
    8.4390   11.7305   24.3170 C   0  0  0  0  0  0  0  0  0  0  0  0
    8.6145   10.7893   23.6558 O   0  0  0  0  0  0  0  0  0  0  0  0
    9.3816   12.9039   24.6561 N   0  0  0  0  0  0  0  0  0  0  0  0
   10.7058   13.2106   24.1745 C   0  0  0  0  0  0  0  0  0  0  0  0
   10.7820   13.2828   22.6667 C   0  0  0  0  0  0  0  0  0  0  0  0
   10.2418   14.5377   22.1112 C   0  0  0  0  0  0  0  0  0  0  0  0
    9.0971   15.1424   22.5626 N   0  0  0  0  0  0  0  0  0  0  0  0
    8.9501   16.1688   21.7545 C   0  0  0  0  0  0  0  0  0  0  0  0
    9.9246   16.3090   20.8222 O   0  0  0  0  0  0  0  0  0  0  0  0
   10.7579   15.2665   21.0707 C   0  0  0  0  0  0  0  0  0  0  0  0
   11.9344   15.1363   20.2169 C   0  0  0  0  0  0  0  0  0  0  0  0
  1  2  1  0
  2  3  2  0
  3  4  1  0
  4  5  2  0
  5  6  1  0
  5  7  1  0
  7  8  1  0
  7  9  2  0
  9 10  1  0
 10 11  2  0
 10 12  1  0
 12 13  1  0
 13 14  1  0
 14 15  1  0
 15 16  1  0
 16 17  2  0
 17 18  1  0
 18 19  1  0
 19 20  1  0
  9  2  1  0
 19 15  2  0
M  END
>  <energy_score>  (863) 
-7.573693

>  <inchikey>  (863) 
None

>  <smiles>  (863) 
None

>  <ref_pdb>  (863) 
A5594a

>  <alias>  (863) 
None

>  <HIPPO Pose ID>  (863) 
499607

>  <name>  (863) 
P499607

>  <HIPPO Compound ID>  (863) 
306465

>  <ref_mols>  (863) 
A3408a,A5594a

>  <distance_score>  (863) 
1.503169

>  <inspiration_score>  (863) 
None

$$$$
P499608
     RDKit          3D

 20 21  0  0  0  0  0  0  0  0999 V2000
    4.9798    9.8684   28.5747 C   0  0  0  0  0  0  0  0  0  0  0  0
    4.6730    9.9942   27.0922 C   0  0  0  0  0  0  0  0  0  0  0  0
    5.4066   11.1310   26.4339 C   0  0  0  0  0  0  0  0  0  0  0  0
    4.8561   12.4109   26.5223 C   0  0  0  0  0  0  0  0  0  0  0  0
    5.4098   13.4661   25.8104 C   0  0  0  0  0  0  0  0  0  0  0  0
    6.5437   13.2719   25.0163 C   0  0  0  0  0  0  0  0  0  0  0  0
    6.9452   14.3804   24.0899 C   0  0  0  0  0  0  0  0  0  0  0  0
    7.1981   12.0283   25.0465 C   0  0  0  0  0  0  0  0  0  0  0  0
    8.5087   11.8165   24.3450 C   0  0  0  0  0  0  0  0  0  0  0  0
    8.6604   10.8512   23.7108 O   0  0  0  0  0  0  0  0  0  0  0  0
    9.4421   13.0268   24.5640 N   0  0  0  0  0  0  0  0  0  0  0  0
   10.8020   13.2584   24.1215 C   0  0  2  0  0  0  0  0  0  0  0  0
   11.3548   14.5571   24.7090 C   0  0  0  0  0  0  0  0  0  0  0  0
   10.9175   13.2072   22.5987 C   0  0  0  0  0  0  0  0  0  0  0  0
   10.4463   14.4212   21.9063 C   0  0  0  0  0  0  0  0  0  0  0  0
   11.1283   15.1665   20.9758 C   0  0  0  0  0  0  0  0  0  0  0  0
   10.3308   16.1995   20.6033 O   0  0  0  0  0  0  0  0  0  0  0  0
    9.2117   16.0333   21.3552 C   0  0  0  0  0  0  0  0  0  0  0  0
    9.2165   14.9824   22.1406 N   0  0  0  0  0  0  0  0  0  0  0  0
    6.5956   10.9443   25.7082 C   0  0  0  0  0  0  0  0  0  0  0  0
  1  2  1  0
  2  3  1  0
  3  4  2  0
  4  5  1  0
  5  6  2  0
  6  7  1  0
  6  8  1  0
  8  9  1  0
  9 10  2  0
  9 11  1  0
 11 12  1  0
 12 13  1  6
 12 14  1  0
 14 15  1  0
 15 16  2  0
 16 17  1  0
 17 18  1  0
 18 19  2  0
  8 20  2  0
 20  3  1  0
 19 15  1  0
M  END
>  <energy_score>  (864) 
-9.13462

>  <inchikey>  (864) 
None

>  <smiles>  (864) 
None

>  <ref_pdb>  (864) 
A5594a

>  <alias>  (864) 
None

>  <HIPPO Pose ID>  (864) 
499608

>  <name>  (864) 
P499608

>  <HIPPO Compound ID>  (864) 
306469

>  <ref_mols>  (864) 
A3408a,A5594a

>  <distance_score>  (864) 
1.350454

>  <inspiration_score>  (864) 
None

$$$$
P499610
     RDKit          3D

 21 22  0  0  0  0  0  0  0  0999 V2000
    7.0088   13.8890   23.0628 C   0  0  0  0  0  0  0  0  0  0  0  0
    7.0052   14.0158   24.5784 C   0  0  0  0  0  0  0  0  0  0  0  0
    6.3787   12.8835   25.3822 C   0  0  0  0  0  0  0  0  0  0  0  0
    5.3566   13.2894   26.2652 C   0  0  0  0  0  0  0  0  0  0  0  0
    4.6542   12.3808   27.0559 C   0  0  0  0  0  0  0  0  0  0  0  0
    4.9463   11.0306   26.9804 C   0  0  0  0  0  0  0  0  0  0  0  0
    4.0054    9.8158   28.0771 Br  0  0  0  0  0  0  0  0  0  0  0  0
    5.9448   10.5881   26.1300 C   0  0  0  0  0  0  0  0  0  0  0  0
    6.6918   11.4991   25.3537 C   0  0  0  0  0  0  0  0  0  0  0  0
    7.7719   10.8293   24.5551 C   0  0  0  0  0  0  0  0  0  0  0  0
    7.6184    9.7300   24.2272 O   0  0  0  0  0  0  0  0  0  0  0  0
    8.9122   11.7868   24.2787 N   0  0  0  0  0  0  0  0  0  0  0  0
   10.0724   11.6375   23.4601 C   0  0  0  0  0  0  0  0  0  0  0  0
   11.0654   12.7435   23.7831 C   0  0  0  0  0  0  0  0  0  0  0  0
   10.6959   14.0062   23.1365 C   0  0  0  0  0  0  0  0  0  0  0  0
   10.4086   14.0350   21.8071 N   0  0  0  0  0  0  0  0  0  0  0  0
   10.3036   15.3113   21.5326 C   0  0  0  0  0  0  0  0  0  0  0  0
   10.1716   15.9333   20.2107 C   0  0  0  0  0  0  0  0  0  0  0  0
   10.3976   16.1267   22.6295 O   0  0  0  0  0  0  0  0  0  0  0  0
   10.6244   15.2654   23.6665 C   0  0  0  0  0  0  0  0  0  0  0  0
   10.7377   15.7947   25.0341 C   0  0  0  0  0  0  0  0  0  0  0  0
  1  2  1  0
  2  3  1  0
  3  4  2  0
  4  5  1  0
  5  6  2  0
  6  7  1  0
  6  8  1  0
  8  9  2  0
  9 10  1  0
 10 11  2  0
 10 12  1  0
 12 13  1  0
 13 14  1  0
 14 15  1  0
 15 16  1  0
 16 17  2  0
 17 18  1  0
 17 19  1  0
 19 20  1  0
 20 21  1  0
  9  3  1  0
 20 15  2  0
M  END
>  <energy_score>  (865) 
-8.494624

>  <inchikey>  (865) 
None

>  <smiles>  (865) 
None

>  <ref_pdb>  (865) 
A5594a

>  <alias>  (865) 
None

>  <HIPPO Pose ID>  (865) 
499610

>  <name>  (865) 
P499610

>  <HIPPO Compound ID>  (865) 
306474

>  <ref_mols>  (865) 
A3408a,A5594a

>  <distance_score>  (865) 
1.527318

>  <inspiration_score>  (865) 
None

$$$$
P499611
     RDKit          3D

 21 22  0  0  0  0  0  0  0  0999 V2000
    7.1075   14.7463   23.5800 C   0  0  0  0  0  0  0  0  0  0  0  0
    7.2564   14.1587   24.7746 C   0  0  0  0  0  0  0  0  0  0  0  0
    6.2035   13.3010   25.3332 C   0  0  0  0  0  0  0  0  0  0  0  0
    5.1313   13.9926   25.9110 C   0  0  0  0  0  0  0  0  0  0  0  0
    4.1322   13.3193   26.6012 C   0  0  0  0  0  0  0  0  0  0  0  0
    4.1751   11.9402   26.7071 C   0  0  0  0  0  0  0  0  0  0  0  0
    5.1967   11.2109   26.0925 C   0  0  0  0  0  0  0  0  0  0  0  0
    5.1595    9.7291   26.2871 C   0  0  0  0  0  0  0  0  0  0  0  0
    6.2312   11.8892   25.4054 C   0  0  0  0  0  0  0  0  0  0  0  0
    7.4833   11.1425   25.0871 C   0  0  0  0  0  0  0  0  0  0  0  0
    7.7701   10.3219   25.8521 O   0  0  0  0  0  0  0  0  0  0  0  0
    8.2274   11.6530   23.8631 N   0  0  0  0  0  0  0  0  0  0  0  0
    9.5323   11.3319   23.3652 C   0  0  0  0  0  0  0  0  0  0  0  0
   10.4436   12.4546   23.8634 C   0  0  0  0  0  0  0  0  0  0  0  0
   10.3799   13.7088   23.0927 C   0  0  0  0  0  0  0  0  0  0  0  0
    9.9990   13.7568   21.7864 N   0  0  0  0  0  0  0  0  0  0  0  0
   10.2910   14.9859   21.4197 C   0  0  0  0  0  0  0  0  0  0  0  0
   10.2853   15.5593   20.0676 C   0  0  0  0  0  0  0  0  0  0  0  0
   10.7012   15.7975   22.4453 O   0  0  0  0  0  0  0  0  0  0  0  0
   10.7187   14.9662   23.5248 C   0  0  0  0  0  0  0  0  0  0  0  0
   11.0665   15.5035   24.8445 C   0  0  0  0  0  0  0  0  0  0  0  0
  1  2  2  0
  2  3  1  0
  3  4  2  0
  4  5  1  0
  5  6  2  0
  6  7  1  0
  7  8  1  0
  7  9  2  0
  9 10  1  0
 10 11  2  0
 10 12  1  0
 12 13  1  0
 13 14  1  0
 14 15  1  0
 15 16  1  0
 16 17  2  0
 17 18  1  0
 17 19  1  0
 19 20  1  0
 20 21  1  0
  9  3  1  0
 20 15  2  0
M  END
>  <energy_score>  (866) 
-13.77921

>  <inchikey>  (866) 
None

>  <smiles>  (866) 
None

>  <ref_pdb>  (866) 
A5594a

>  <alias>  (866) 
None

>  <HIPPO Pose ID>  (866) 
499611

>  <name>  (866) 
P499611

>  <HIPPO Compound ID>  (866) 
306478

>  <ref_mols>  (866) 
A3408a,A5594a

>  <distance_score>  (866) 
1.877049

>  <inspiration_score>  (866) 
None

$$$$
P499612
     RDKit          3D

 21 22  0  0  0  0  0  0  0  0999 V2000
    6.9490   14.3658   23.1802 C   0  0  0  0  0  0  0  0  0  0  0  0
    7.3599   14.2697   24.5519 O   0  0  0  0  0  0  0  0  0  0  0  0
    6.5227   13.4187   25.2336 C   0  0  0  0  0  0  0  0  0  0  0  0
    5.5067   14.0219   25.9711 C   0  0  0  0  0  0  0  0  0  0  0  0
    4.6215   13.2420   26.7008 C   0  0  0  0  0  0  0  0  0  0  0  0
    4.7589   11.8620   26.7001 C   0  0  0  0  0  0  0  0  0  0  0  0
    5.8010   11.2428   25.9935 C   0  0  0  0  0  0  0  0  0  0  0  0
    5.8203    9.7541   26.0415 C   0  0  0  0  0  0  0  0  0  0  0  0
    6.7127   12.0286   25.2593 C   0  0  0  0  0  0  0  0  0  0  0  0
    7.8684   11.3966   24.5305 C   0  0  0  0  0  0  0  0  0  0  0  0
    7.7517   10.3167   24.1214 O   0  0  0  0  0  0  0  0  0  0  0  0
    9.0475   12.3684   24.4434 N   0  0  0  0  0  0  0  0  0  0  0  0
   10.3549   12.1875   23.9222 C   0  0  0  0  0  0  0  0  0  0  0  0
   10.5560   12.7116   22.5497 C   0  0  0  0  0  0  0  0  0  0  0  0
   10.1953   14.0954   22.3051 C   0  0  0  0  0  0  0  0  0  0  0  0
    9.6350   14.4111   21.1116 N   0  0  0  0  0  0  0  0  0  0  0  0
   10.0202   15.6508   20.9465 C   0  0  0  0  0  0  0  0  0  0  0  0
   10.2011   16.3406   19.6696 C   0  0  0  0  0  0  0  0  0  0  0  0
   10.5105   16.2516   22.0780 O   0  0  0  0  0  0  0  0  0  0  0  0
   10.5676   15.2270   22.9812 C   0  0  0  0  0  0  0  0  0  0  0  0
   11.1225   15.4763   24.3140 C   0  0  0  0  0  0  0  0  0  0  0  0
  1  2  1  0
  2  3  1  0
  3  4  2  0
  4  5  1  0
  5  6  2  0
  6  7  1  0
  7  8  1  0
  7  9  2  0
  9 10  1  0
 10 11  2  0
 10 12  1  0
 12 13  1  0
 13 14  1  0
 14 15  1  0
 15 16  1  0
 16 17  2  0
 17 18  1  0
 17 19  1  0
 19 20  1  0
 20 21  1  0
  9  3  1  0
 20 15  2  0
M  END
>  <energy_score>  (867) 
-21.242873

>  <inchikey>  (867) 
None

>  <smiles>  (867) 
None

>  <ref_pdb>  (867) 
A5594a

>  <alias>  (867) 
None

>  <HIPPO Pose ID>  (867) 
499612

>  <name>  (867) 
P499612

>  <HIPPO Compound ID>  (867) 
306488

>  <ref_mols>  (867) 
A3408a,A5594a

>  <distance_score>  (867) 
1.996579

>  <inspiration_score>  (867) 
None

$$$$
P499613
     RDKit          3D

 21 22  0  0  0  0  0  0  0  0999 V2000
    6.1895   14.0763   23.7707 C   0  0  0  0  0  0  0  0  0  0  0  0
    6.5150   13.9552   25.2497 C   0  0  0  0  0  0  0  0  0  0  0  0
    6.1601   12.6066   25.8585 C   0  0  0  0  0  0  0  0  0  0  0  0
    5.0856   12.6187   26.7675 C   0  0  0  0  0  0  0  0  0  0  0  0
    4.5408   11.4390   27.2853 C   0  0  0  0  0  0  0  0  0  0  0  0
    3.3461   11.4828   28.1921 C   0  0  0  0  0  0  0  0  0  0  0  0
    5.0526   10.2150   26.8669 C   0  0  0  0  0  0  0  0  0  0  0  0
    6.1347   10.1738   25.9978 C   0  0  0  0  0  0  0  0  0  0  0  0
    6.7253   11.3468   25.5283 C   0  0  0  0  0  0  0  0  0  0  0  0
    7.8318   11.1382   24.5455 C   0  0  0  0  0  0  0  0  0  0  0  0
    7.7936   10.2374   23.8236 O   0  0  0  0  0  0  0  0  0  0  0  0
    8.8119   12.2839   24.6317 N   0  0  0  0  0  0  0  0  0  0  0  0
    9.9076   12.6294   23.7925 C   0  0  0  0  0  0  0  0  0  0  0  0
    9.3101   13.7883   23.0265 C   0  0  0  0  0  0  0  0  0  0  0  0
   10.1363   14.4079   22.0301 C   0  0  0  0  0  0  0  0  0  0  0  0
    9.6174   14.6339   20.7991 N   0  0  0  0  0  0  0  0  0  0  0  0
   10.6179   15.1950   20.1631 C   0  0  0  0  0  0  0  0  0  0  0  0
   10.7007   15.5421   18.7508 C   0  0  0  0  0  0  0  0  0  0  0  0
   11.7317   15.4291   20.9214 O   0  0  0  0  0  0  0  0  0  0  0  0
   11.3916   14.9245   22.1346 C   0  0  0  0  0  0  0  0  0  0  0  0
   12.3305   15.0436   23.2362 C   0  0  0  0  0  0  0  0  0  0  0  0
  1  2  1  0
  2  3  1  0
  3  4  2  0
  4  5  1  0
  5  6  1  0
  5  7  2  0
  7  8  1  0
  8  9  2  0
  9 10  1  0
 10 11  2  0
 10 12  1  0
 12 13  1  0
 13 14  1  0
 14 15  1  0
 15 16  1  0
 16 17  2  0
 17 18  1  0
 17 19  1  0
 19 20  1  0
 20 21  1  0
  9  3  1  0
 20 15  2  0
M  END
>  <energy_score>  (868) 
-9.171822

>  <inchikey>  (868) 
None

>  <smiles>  (868) 
None

>  <ref_pdb>  (868) 
A5594a

>  <alias>  (868) 
None

>  <HIPPO Pose ID>  (868) 
499613

>  <name>  (868) 
P499613

>  <HIPPO Compound ID>  (868) 
306497

>  <ref_mols>  (868) 
A3408a,A5594a

>  <distance_score>  (868) 
1.601222

>  <inspiration_score>  (868) 
None

$$$$
P499614
     RDKit          3D

 21 22  0  0  0  0  0  0  0  0999 V2000
    7.0110   14.5865   23.7509 C   0  0  0  0  0  0  0  0  0  0  0  0
    7.2979   13.9386   25.1004 C   0  0  0  0  0  0  0  0  0  0  0  0
    6.2526   12.9305   25.5379 C   0  0  0  0  0  0  0  0  0  0  0  0
    5.1436   13.4749   26.2083 C   0  0  0  0  0  0  0  0  0  0  0  0
    4.2035   12.6628   26.8377 C   0  0  0  0  0  0  0  0  0  0  0  0
    4.3384   11.2868   26.7813 C   0  0  0  0  0  0  0  0  0  0  0  0
    3.4658   10.4702   27.4320 O   0  0  0  0  0  0  0  0  0  0  0  0
    5.3671   10.7085   26.0621 C   0  0  0  0  0  0  0  0  0  0  0  0
    6.3285   11.5167   25.4301 C   0  0  0  0  0  0  0  0  0  0  0  0
    7.5320   10.7752   24.9651 C   0  0  0  0  0  0  0  0  0  0  0  0
    7.7887    9.8035   25.5371 O   0  0  0  0  0  0  0  0  0  0  0  0
    8.2807   11.4923   23.8630 N   0  0  0  0  0  0  0  0  0  0  0  0
    9.5571   11.2272   23.2841 C   0  0  0  0  0  0  0  0  0  0  0  0
   10.4127   12.4242   23.6568 C   0  0  0  0  0  0  0  0  0  0  0  0
   10.3451   13.5972   22.7628 C   0  0  0  0  0  0  0  0  0  0  0  0
    9.4981   13.7877   21.7013 N   0  0  0  0  0  0  0  0  0  0  0  0
   10.0217   14.8478   21.1001 C   0  0  0  0  0  0  0  0  0  0  0  0
    9.8131   15.4209   19.7732 C   0  0  0  0  0  0  0  0  0  0  0  0
   11.0179   15.4602   21.7820 O   0  0  0  0  0  0  0  0  0  0  0  0
   11.2204   14.6424   22.8244 C   0  0  0  0  0  0  0  0  0  0  0  0
   12.3105   14.9747   23.7012 C   0  0  0  0  0  0  0  0  0  0  0  0
  1  2  1  0
  2  3  1  0
  3  4  2  0
  4  5  1  0
  5  6  2  0
  6  7  1  0
  6  8  1  0
  8  9  2  0
  9 10  1  0
 10 11  2  0
 10 12  1  0
 12 13  1  0
 13 14  1  0
 14 15  1  0
 15 16  1  0
 16 17  2  0
 17 18  1  0
 17 19  1  0
 19 20  1  0
 20 21  1  0
  9  3  1  0
 20 15  2  0
M  END
>  <energy_score>  (869) 
-0.203585

>  <inchikey>  (869) 
None

>  <smiles>  (869) 
None

>  <ref_pdb>  (869) 
A5594a

>  <alias>  (869) 
None

>  <HIPPO Pose ID>  (869) 
499614

>  <name>  (869) 
P499614

>  <HIPPO Compound ID>  (869) 
306498

>  <ref_mols>  (869) 
A3408a,A5594a

>  <distance_score>  (869) 
1.752354

>  <inspiration_score>  (869) 
None

$$$$
P499615
     RDKit          3D

 21 22  0  0  0  0  0  0  0  0999 V2000
    6.9226   14.5256   23.6762 C   0  0  0  0  0  0  0  0  0  0  0  0
    7.2605   13.9458   25.0469 C   0  0  0  0  0  0  0  0  0  0  0  0
    6.3240   12.8353   25.4784 C   0  0  0  0  0  0  0  0  0  0  0  0
    5.2030   13.2591   26.2168 C   0  0  0  0  0  0  0  0  0  0  0  0
    4.3564   12.3527   26.8548 C   0  0  0  0  0  0  0  0  0  0  0  0
    4.5691   10.9844   26.7377 C   0  0  0  0  0  0  0  0  0  0  0  0
    3.7494   10.0123   27.5335 C   0  0  0  0  0  0  0  0  0  0  0  0
    5.6156   10.5427   25.9327 C   0  0  0  0  0  0  0  0  0  0  0  0
    6.5039   11.4419   25.3013 C   0  0  0  0  0  0  0  0  0  0  0  0
    7.7541   10.7849   24.8065 C   0  0  0  0  0  0  0  0  0  0  0  0
    8.0187    9.7816   25.3192 O   0  0  0  0  0  0  0  0  0  0  0  0
    8.5200   11.5973   23.7825 N   0  0  0  0  0  0  0  0  0  0  0  0
    9.8244   11.4056   23.2313 C   0  0  0  0  0  0  0  0  0  0  0  0
   10.6823   12.5542   23.7686 C   0  0  0  0  0  0  0  0  0  0  0  0
   10.4589   13.8387   23.0838 C   0  0  0  0  0  0  0  0  0  0  0  0
   10.0717   13.9064   21.7805 N   0  0  0  0  0  0  0  0  0  0  0  0
   10.2272   15.1745   21.4751 C   0  0  0  0  0  0  0  0  0  0  0  0
   10.1961   15.7978   20.1462 C   0  0  0  0  0  0  0  0  0  0  0  0
   10.5371   15.9755   22.5430 O   0  0  0  0  0  0  0  0  0  0  0  0
   10.6447   15.1015   23.5844 C   0  0  0  0  0  0  0  0  0  0  0  0
   10.9210   15.6139   24.9330 C   0  0  0  0  0  0  0  0  0  0  0  0
  1  2  1  0
  2  3  1  0
  3  4  2  0
  4  5  1  0
  5  6  2  0
  6  7  1  0
  6  8  1  0
  8  9  2  0
  9 10  1  0
 10 11  2  0
 10 12  1  0
 12 13  1  0
 13 14  1  0
 14 15  1  0
 15 16  1  0
 16 17  2  0
 17 18  1  0
 17 19  1  0
 19 20  1  0
 20 21  1  0
  9  3  1  0
 20 15  2  0
M  END
>  <energy_score>  (870) 
-11.274584

>  <inchikey>  (870) 
None

>  <smiles>  (870) 
None

>  <ref_pdb>  (870) 
A5594a

>  <alias>  (870) 
None

>  <HIPPO Pose ID>  (870) 
499615

>  <name>  (870) 
P499615

>  <HIPPO Compound ID>  (870) 
306504

>  <ref_mols>  (870) 
A3408a,A5594a

>  <distance_score>  (870) 
1.657998

>  <inspiration_score>  (870) 
None

$$$$
P499616
     RDKit          3D

 23 24  0  0  0  0  0  0  0  0999 V2000
    7.1147   14.1453   22.0359 C   0  0  0  0  0  0  0  0  0  0  0  0
    6.6046   14.7335   23.3320 C   0  0  0  0  0  0  0  0  0  0  0  0
    7.4715   14.4155   24.5459 C   0  0  0  0  0  0  0  0  0  0  0  0
    7.2417   13.0128   25.0567 C   0  0  0  0  0  0  0  0  0  0  0  0
    6.0910   12.8049   25.8467 C   0  0  0  0  0  0  0  0  0  0  0  0
    5.6693   11.5237   26.1918 C   0  0  0  0  0  0  0  0  0  0  0  0
    6.3778   10.4223   25.7336 C   0  0  0  0  0  0  0  0  0  0  0  0
    7.5401   10.6040   24.9821 C   0  0  0  0  0  0  0  0  0  0  0  0
    8.0048   11.8956   24.6753 C   0  0  0  0  0  0  0  0  0  0  0  0
    9.2602   11.9894   23.8639 C   0  0  0  0  0  0  0  0  0  0  0  0
    9.3454   11.2999   22.9314 O   0  0  0  0  0  0  0  0  0  0  0  0
   10.2223   13.0617   24.4018 N   0  0  0  0  0  0  0  0  0  0  0  0
   11.4663   13.5857   23.8443 C   0  0  1  0  0  0  0  0  0  0  0  0
   11.3348   15.0499   23.4204 C   0  0  0  0  0  0  0  0  0  0  0  0
   10.7456   15.2479   22.0961 C   0  0  0  0  0  0  0  0  0  0  0  0
   10.1465   16.3597   21.5653 C   0  0  0  0  0  0  0  0  0  0  0  0
    9.9567   16.1433   20.2369 O   0  0  0  0  0  0  0  0  0  0  0  0
   10.4696   14.9066   20.0404 C   0  0  0  0  0  0  0  0  0  0  0  0
   10.8961   14.3085   21.1252 N   0  0  0  0  0  0  0  0  0  0  0  0
   12.5003   13.6315   24.9405 C   0  0  0  0  0  0  0  0  0  0  0  0
   12.3650   14.3572   25.9222 O   0  0  0  0  0  0  0  0  0  0  0  0
   13.5252   12.7668   24.7393 O   0  0  0  0  0  0  0  0  0  0  0  0
   14.5005   12.6996   25.7885 C   0  0  0  0  0  0  0  0  0  0  0  0
  1  2  1  0
  2  3  1  0
  3  4  1  0
  4  5  2  0
  5  6  1  0
  6  7  2  0
  7  8  1  0
  8  9  2  0
  9 10  1  0
 10 11  2  0
 10 12  1  0
 12 13  1  0
 13 14  1  1
 14 15  1  0
 15 16  2  0
 16 17  1  0
 17 18  1  0
 18 19  2  0
 13 20  1  0
 20 21  2  0
 20 22  1  0
 22 23  1  0
  9  4  1  0
 19 15  1  0
M  END
>  <energy_score>  (871) 
-17.449536

>  <inchikey>  (871) 
None

>  <smiles>  (871) 
None

>  <ref_pdb>  (871) 
A5594a

>  <alias>  (871) 
None

>  <HIPPO Pose ID>  (871) 
499616

>  <name>  (871) 
P499616

>  <HIPPO Compound ID>  (871) 
306513

>  <ref_mols>  (871) 
A3408a,A5594a

>  <distance_score>  (871) 
1.642046

>  <inspiration_score>  (871) 
None

$$$$
P499617
     RDKit          3D

 26 27  0  0  0  0  0  0  0  0999 V2000
   15.6607   12.6256   28.1444 C   0  0  0  0  0  0  0  0  0  0  0  0
   14.6472   13.5389   28.5481 O   0  0  0  0  0  0  0  0  0  0  0  0
   13.7413   13.9131   27.5942 C   0  0  0  0  0  0  0  0  0  0  0  0
   12.7660   14.8296   28.0347 C   0  0  0  0  0  0  0  0  0  0  0  0
   11.7490   15.2716   27.1693 C   0  0  0  0  0  0  0  0  0  0  0  0
   11.6698   14.7534   25.8622 C   0  0  0  0  0  0  0  0  0  0  0  0
   10.7334   15.3729   24.9135 C   0  0  0  0  0  0  0  0  0  0  0  0
   10.9761   16.4753   24.6608 O   0  0  0  0  0  0  0  0  0  0  0  0
    9.6334   14.4589   24.3901 N   0  0  0  0  0  0  0  0  0  0  0  0
    8.6300   14.6796   23.3501 C   0  0  2  0  0  0  0  0  0  0  0  0
    7.3431   13.8976   23.5738 C   0  0  0  0  0  0  0  0  0  0  0  0
    6.2135   14.4641   22.7897 C   0  0  0  0  0  0  0  0  0  0  0  0
    5.5321   15.6498   22.9554 C   0  0  0  0  0  0  0  0  0  0  0  0
    4.5893   15.7333   21.9728 O   0  0  0  0  0  0  0  0  0  0  0  0
    4.7633   14.5880   21.2585 C   0  0  0  0  0  0  0  0  0  0  0  0
    5.7249   13.8010   21.6868 N   0  0  0  0  0  0  0  0  0  0  0  0
    9.1820   14.4685   21.9240 C   0  0  0  0  0  0  0  0  0  0  0  0
    8.5025   14.1991   20.9464 O   0  0  0  0  0  0  0  0  0  0  0  0
   10.5092   14.7168   21.8820 O   0  0  0  0  0  0  0  0  0  0  0  0
   11.0973   15.4742   20.7936 C   0  0  0  0  0  0  0  0  0  0  0  0
   11.6139   14.5825   19.6688 C   0  0  0  0  0  0  0  0  0  0  0  0
   10.1436   16.4951   20.1745 C   0  0  0  0  0  0  0  0  0  0  0  0
   12.2488   16.1754   21.5112 C   0  0  0  0  0  0  0  0  0  0  0  0
   12.6225   13.8134   25.4073 C   0  0  0  0  0  0  0  0  0  0  0  0
   12.4040   13.0795   24.1309 C   0  0  0  0  0  0  0  0  0  0  0  0
   13.6905   13.4288   26.2712 C   0  0  0  0  0  0  0  0  0  0  0  0
  1  2  1  0
  2  3  1  0
  3  4  2  0
  4  5  1  0
  5  6  2  0
  6  7  1  0
  7  8  2  0
  7  9  1  0
  9 10  1  0
 10 11  1  1
 11 12  1  0
 12 13  2  0
 13 14  1  0
 14 15  1  0
 15 16  2  0
 10 17  1  0
 17 18  2  0
 17 19  1  0
 19 20  1  0
 20 21  1  0
 20 22  1  0
 20 23  1  0
  6 24  1  0
 24 25  1  0
 24 26  2  0
 26  3  1  0
 16 12  1  0
M  END
>  <energy_score>  (872) 
-6.146083

>  <inchikey>  (872) 
None

>  <smiles>  (872) 
None

>  <ref_pdb>  (872) 
A5594a

>  <alias>  (872) 
None

>  <HIPPO Pose ID>  (872) 
499617

>  <name>  (872) 
P499617

>  <HIPPO Compound ID>  (872) 
306543

>  <ref_mols>  (872) 
A3408a,A5594a

>  <distance_score>  (872) 
1.416673

>  <inspiration_score>  (872) 
None

$$$$
P499621
     RDKit          3D

 23 24  0  0  0  0  0  0  0  0999 V2000
   11.2688   14.9477   18.6218 C   0  0  0  0  0  0  0  0  0  0  0  0
   10.9702   15.2801   20.0129 C   0  0  0  0  0  0  0  0  0  0  0  0
   11.3627   14.6706   21.1739 C   0  0  0  0  0  0  0  0  0  0  0  0
   10.8081   15.4558   22.1892 C   0  0  0  0  0  0  0  0  0  0  0  0
   10.8484   15.2038   23.6419 C   0  0  0  0  0  0  0  0  0  0  0  0
    9.7627   14.2333   24.0413 C   0  0  0  0  0  0  0  0  0  0  0  0
    9.9785   13.3148   24.7316 O   0  0  0  0  0  0  0  0  0  0  0  0
    8.4348   14.7157   23.3924 N   0  0  0  0  0  0  0  0  0  0  0  0
    7.1329   14.1175   23.3836 C   0  0  2  0  0  0  0  0  0  0  0  0
    6.5736   14.1707   21.9687 C   0  0  0  0  0  0  0  0  0  0  0  0
    6.1666   14.7124   24.4258 C   0  0  0  0  0  0  0  0  0  0  0  0
    4.9254   13.8087   24.5963 C   0  0  0  0  0  0  0  0  0  0  0  0
    4.7474   13.3050   26.0275 C   0  0  0  0  0  0  0  0  0  0  0  0
    5.9598   12.7244   26.5872 N   0  0  0  0  0  0  0  0  0  0  0  0
    6.2449   11.3052   26.2653 C   0  0  0  0  0  0  0  0  0  0  0  0
    7.2887   10.8078   25.2429 C   0  0  0  0  0  0  0  0  0  0  0  0
    6.9958   11.1365   23.9797 F   0  0  0  0  0  0  0  0  0  0  0  0
    8.5155   11.2668   25.5066 F   0  0  0  0  0  0  0  0  0  0  0  0
    7.3445    9.4537   25.2994 F   0  0  0  0  0  0  0  0  0  0  0  0
    7.0925   13.6355   26.5089 C   0  0  0  0  0  0  0  0  0  0  0  0
    6.8038   14.9545   25.7989 C   0  0  0  0  0  0  0  0  0  0  0  0
   10.0512   16.4475   21.7008 N   0  0  0  0  0  0  0  0  0  0  0  0
   10.1820   16.3264   20.3739 N   0  0  0  0  0  0  0  0  0  0  0  0
  1  2  1  0
  2  3  2  0
  3  4  1  0
  4  5  1  0
  5  6  1  0
  6  7  2  0
  6  8  1  0
  8  9  1  0
  9 10  1  6
  9 11  1  0
 11 12  1  0
 12 13  1  0
 13 14  1  0
 14 15  1  0
 15 16  1  0
 16 17  1  0
 16 18  1  0
 16 19  1  0
 14 20  1  0
 20 21  1  0
  4 22  2  0
 22 23  1  0
 23  2  1  0
 21 11  1  0
M  END
>  <energy_score>  (873) 
-8.864612

>  <inchikey>  (873) 
None

>  <smiles>  (873) 
None

>  <ref_pdb>  (873) 
A4846a

>  <alias>  (873) 
None

>  <HIPPO Pose ID>  (873) 
499621

>  <name>  (873) 
P499621

>  <HIPPO Compound ID>  (873) 
307155

>  <ref_mols>  (873) 
A0556a,A4846a

>  <distance_score>  (873) 
1.940007

>  <inspiration_score>  (873) 
None

$$$$
P499622
     RDKit          3D

 23 24  0  0  0  0  0  0  0  0999 V2000
    6.6790   14.0998   22.1535 C   0  0  0  0  0  0  0  0  0  0  0  0
    6.9649   15.0661   23.3061 C   0  0  2  0  0  0  0  0  0  0  0  0
    8.3759   15.3776   23.2687 N   0  0  0  0  0  0  0  0  0  0  0  0
    9.6198   14.4654   23.4946 C   0  0  0  0  0  0  0  0  0  0  0  0
    9.6880   13.3443   23.8206 O   0  0  0  0  0  0  0  0  0  0  0  0
   10.8399   15.2947   23.1705 C   0  0  0  0  0  0  0  0  0  0  0  0
   10.8579   15.4044   21.6960 C   0  0  0  0  0  0  0  0  0  0  0  0
   11.3486   14.4777   20.8701 C   0  0  0  0  0  0  0  0  0  0  0  0
   11.1446   15.0227   19.5258 C   0  0  0  0  0  0  0  0  0  0  0  0
   11.6244   14.5564   18.5137 O   0  0  0  0  0  0  0  0  0  0  0  0
   10.4152   16.1921   19.6677 N   0  0  0  0  0  0  0  0  0  0  0  0
   10.2451   16.4496   21.0321 N   0  0  0  0  0  0  0  0  0  0  0  0
    6.4007   14.7108   24.7181 C   0  0  0  0  0  0  0  0  0  0  0  0
    7.4410   14.3442   25.7984 C   0  0  0  0  0  0  0  0  0  0  0  0
    6.8545   13.7101   27.0551 C   0  0  0  0  0  0  0  0  0  0  0  0
    5.9108   12.6321   26.7776 N   0  0  0  0  0  0  0  0  0  0  0  0
    6.4368   11.3629   26.1824 C   0  0  0  0  0  0  0  0  0  0  0  0
    7.5103   11.2176   25.0762 C   0  0  0  0  0  0  0  0  0  0  0  0
    8.7402   11.5037   25.5179 F   0  0  0  0  0  0  0  0  0  0  0  0
    7.5608    9.9431   24.6357 F   0  0  0  0  0  0  0  0  0  0  0  0
    7.2412   11.9861   24.0184 F   0  0  0  0  0  0  0  0  0  0  0  0
    4.8053   13.2381   26.0445 C   0  0  0  0  0  0  0  0  0  0  0  0
    5.1917   13.7584   24.6712 C   0  0  0  0  0  0  0  0  0  0  0  0
  2  1  1  6
  2  3  1  0
  3  4  1  0
  4  5  2  0
  4  6  1  0
  6  7  1  0
  7  8  2  0
  8  9  1  0
  9 10  2  0
  9 11  1  0
 11 12  1  0
  2 13  1  0
 13 14  1  0
 14 15  1  0
 15 16  1  0
 16 17  1  0
 17 18  1  0
 18 19  1  0
 18 20  1  0
 18 21  1  0
 16 22  1  0
 22 23  1  0
 12  7  1  0
 23 13  1  0
M  END
>  <energy_score>  (874) 
-11.123094

>  <inchikey>  (874) 
None

>  <smiles>  (874) 
None

>  <ref_pdb>  (874) 
A4846a

>  <alias>  (874) 
None

>  <HIPPO Pose ID>  (874) 
499622

>  <name>  (874) 
P499622

>  <HIPPO Compound ID>  (874) 
307156

>  <ref_mols>  (874) 
A0556a,A4846a

>  <distance_score>  (874) 
1.999721

>  <inspiration_score>  (874) 
None

$$$$
P499623
     RDKit          3D

 23 24  0  0  0  0  0  0  0  0999 V2000
   11.4086   13.3713   23.1159 C   0  0  0  0  0  0  0  0  0  0  0  0
   11.0086   14.8348   22.9216 C   0  0  2  0  0  0  0  0  0  0  0  0
    9.7195   14.9799   23.7496 C   0  0  0  0  0  0  0  0  0  0  0  0
    9.7402   15.3623   24.8542 O   0  0  0  0  0  0  0  0  0  0  0  0
    8.5410   14.4470   22.8920 N   0  0  0  0  0  0  0  0  0  0  0  0
    7.1634   14.1850   23.2470 C   0  0  2  0  0  0  0  0  0  0  0  0
    6.4090   14.1563   21.9092 C   0  0  0  0  0  0  0  0  0  0  0  0
    6.3307   14.9715   24.2908 C   0  0  0  0  0  0  0  0  0  0  0  0
    6.9626   15.2817   25.6451 C   0  0  0  0  0  0  0  0  0  0  0  0
    7.3611   13.9855   26.3504 C   0  0  0  0  0  0  0  0  0  0  0  0
    6.2518   13.0388   26.4806 N   0  0  0  0  0  0  0  0  0  0  0  0
    6.5321   11.6084   26.2974 C   0  0  0  0  0  0  0  0  0  0  0  0
    7.3512   11.0399   25.1349 C   0  0  0  0  0  0  0  0  0  0  0  0
    7.3991    9.6892   25.2380 F   0  0  0  0  0  0  0  0  0  0  0  0
    6.7390   11.3277   23.9775 F   0  0  0  0  0  0  0  0  0  0  0  0
    8.6181   11.4828   25.0569 F   0  0  0  0  0  0  0  0  0  0  0  0
    4.9792   13.5344   25.9917 C   0  0  0  0  0  0  0  0  0  0  0  0
    5.0233   14.1688   24.5961 C   0  0  0  0  0  0  0  0  0  0  0  0
   10.9358   15.1915   21.4662 C   0  0  0  0  0  0  0  0  0  0  0  0
    9.9635   15.7219   20.6422 C   0  0  0  0  0  0  0  0  0  0  0  0
   10.4387   15.5048   19.3395 C   0  0  0  0  0  0  0  0  0  0  0  0
   11.6844   15.0441   19.3311 N   0  0  0  0  0  0  0  0  0  0  0  0
   12.0110   15.0211   20.6273 N   0  0  0  0  0  0  0  0  0  0  0  0
  2  1  1  6
  2  3  1  0
  3  4  2  0
  3  5  1  0
  5  6  1  0
  6  7  1  6
  6  8  1  0
  8  9  1  0
  9 10  1  0
 10 11  1  0
 11 12  1  0
 12 13  1  0
 13 14  1  0
 13 15  1  0
 13 16  1  0
 11 17  1  0
 17 18  1  0
  2 19  1  0
 19 20  2  0
 20 21  1  0
 21 22  2  0
 22 23  1  0
 18  8  1  0
 23 19  1  0
M  END
>  <energy_score>  (875) 
-1.836406

>  <inchikey>  (875) 
None

>  <smiles>  (875) 
None

>  <ref_pdb>  (875) 
A4846a

>  <alias>  (875) 
None

>  <HIPPO Pose ID>  (875) 
499623

>  <name>  (875) 
P499623

>  <HIPPO Compound ID>  (875) 
307157

>  <ref_mols>  (875) 
A0556a,A4846a

>  <distance_score>  (875) 
1.754742

>  <inspiration_score>  (875) 
None

$$$$
P499626
     RDKit          3D

 23 24  0  0  0  0  0  0  0  0999 V2000
    6.8329   14.1622   21.8615 C   0  0  0  0  0  0  0  0  0  0  0  0
    7.4303   14.1916   23.2626 C   0  0  1  0  0  0  0  0  0  0  0  0
    8.7544   14.7330   23.1827 N   0  0  0  0  0  0  0  0  0  0  0  0
   10.1324   14.0818   23.4971 C   0  0  0  0  0  0  0  0  0  0  0  0
   10.3900   13.0321   23.9419 O   0  0  0  0  0  0  0  0  0  0  0  0
   11.2026   15.0384   23.0115 C   0  0  0  0  0  0  0  0  0  0  0  0
   11.1652   15.0800   21.5306 C   0  0  0  0  0  0  0  0  0  0  0  0
   11.7230   14.1313   20.7223 N   0  0  0  0  0  0  0  0  0  0  0  0
   11.6768   14.4373   19.4141 N   0  0  0  0  0  0  0  0  0  0  0  0
   10.8537   15.4825   19.3732 C   0  0  0  0  0  0  0  0  0  0  0  0
   10.5004   15.8957   20.6570 C   0  0  0  0  0  0  0  0  0  0  0  0
    9.3213   17.2511   21.1122 Br  0  0  0  0  0  0  0  0  0  0  0  0
    6.4731   14.8387   24.2793 C   0  0  0  0  0  0  0  0  0  0  0  0
    7.1076   15.1402   25.6398 C   0  0  0  0  0  0  0  0  0  0  0  0
    7.4038   13.8406   26.3851 C   0  0  0  0  0  0  0  0  0  0  0  0
    6.2773   12.9065   26.4933 N   0  0  0  0  0  0  0  0  0  0  0  0
    6.5496   11.4787   26.1940 C   0  0  0  0  0  0  0  0  0  0  0  0
    7.4713   11.0184   25.0596 C   0  0  0  0  0  0  0  0  0  0  0  0
    6.9624   11.4135   23.8849 F   0  0  0  0  0  0  0  0  0  0  0  0
    8.7233   11.4725   25.1824 F   0  0  0  0  0  0  0  0  0  0  0  0
    7.5534    9.6751   25.0177 F   0  0  0  0  0  0  0  0  0  0  0  0
    5.0550   13.4351   25.9100 C   0  0  0  0  0  0  0  0  0  0  0  0
    5.2261   13.9392   24.4802 C   0  0  0  0  0  0  0  0  0  0  0  0
  2  1  1  6
  2  3  1  0
  3  4  1  0
  4  5  2  0
  4  6  1  0
  6  7  1  0
  7  8  1  0
  8  9  1  0
  9 10  2  0
 10 11  1  0
 11 12  1  0
  2 13  1  0
 13 14  1  0
 14 15  1  0
 15 16  1  0
 16 17  1  0
 17 18  1  0
 18 19  1  0
 18 20  1  0
 18 21  1  0
 16 22  1  0
 22 23  1  0
 11  7  2  0
 23 13  1  0
M  END
>  <energy_score>  (876) 
-3.217301

>  <inchikey>  (876) 
None

>  <smiles>  (876) 
None

>  <ref_pdb>  (876) 
A4846a

>  <alias>  (876) 
None

>  <HIPPO Pose ID>  (876) 
499626

>  <name>  (876) 
P499626

>  <HIPPO Compound ID>  (876) 
307158

>  <ref_mols>  (876) 
A0556a,A4846a

>  <distance_score>  (876) 
1.73759

>  <inspiration_score>  (876) 
None

$$$$
P499629
     RDKit          3D

 24 25  0  0  0  0  0  0  0  0999 V2000
    6.2533   14.3979   22.1601 C   0  0  0  0  0  0  0  0  0  0  0  0
    6.9851   14.4667   23.4921 C   0  0  1  0  0  0  0  0  0  0  0  0
    8.3039   14.9904   23.2910 N   0  0  0  0  0  0  0  0  0  0  0  0
    9.6590   14.5685   23.9116 C   0  0  0  0  0  0  0  0  0  0  0  0
    9.9218   13.6804   24.6231 O   0  0  0  0  0  0  0  0  0  0  0  0
   10.7146   15.5036   23.3669 C   0  0  0  0  0  0  0  0  0  0  0  0
   10.7879   15.4351   21.8905 C   0  0  0  0  0  0  0  0  0  0  0  0
   10.2899   16.1885   20.8643 C   0  0  0  0  0  0  0  0  0  0  0  0
    9.0980   17.7918   21.0728 I   0  0  0  0  0  0  0  0  0  0  0  0
   10.7478   15.6084   19.6776 C   0  0  0  0  0  0  0  0  0  0  0  0
   11.4595   14.5129   19.9260 N   0  0  0  0  0  0  0  0  0  0  0  0
   11.3574   14.3795   21.2594 N   0  0  0  0  0  0  0  0  0  0  0  0
   11.6366   13.1325   21.8995 C   0  0  0  0  0  0  0  0  0  0  0  0
    6.2342   15.2246   24.6097 C   0  0  0  0  0  0  0  0  0  0  0  0
    6.9589   15.2033   25.9622 C   0  0  0  0  0  0  0  0  0  0  0  0
    7.1482   13.7703   26.4529 C   0  0  0  0  0  0  0  0  0  0  0  0
    5.9832   12.8828   26.3921 N   0  0  0  0  0  0  0  0  0  0  0  0
    6.3897   11.4472   26.3020 C   0  0  0  0  0  0  0  0  0  0  0  0
    7.2968   10.9244   25.1626 C   0  0  0  0  0  0  0  0  0  0  0  0
    6.9035   11.4073   23.9725 F   0  0  0  0  0  0  0  0  0  0  0  0
    8.5955   11.2242   25.3066 F   0  0  0  0  0  0  0  0  0  0  0  0
    7.1966    9.5733   25.1076 F   0  0  0  0  0  0  0  0  0  0  0  0
    4.9745   13.1958   25.3808 C   0  0  0  0  0  0  0  0  0  0  0  0
    4.8550   14.6443   24.9159 C   0  0  0  0  0  0  0  0  0  0  0  0
  2  1  1  6
  2  3  1  0
  3  4  1  0
  4  5  2  0
  4  6  1  0
  6  7  1  0
  7  8  2  0
  8  9  1  0
  8 10  1  0
 10 11  2  0
 11 12  1  0
 12 13  1  0
  2 14  1  0
 14 15  1  0
 15 16  1  0
 16 17  1  0
 17 18  1  0
 18 19  1  0
 19 20  1  0
 19 21  1  0
 19 22  1  0
 17 23  1  0
 23 24  1  0
 12  7  1  0
 24 14  1  0
M  END
>  <energy_score>  (877) 
-28.164507

>  <inchikey>  (877) 
None

>  <smiles>  (877) 
None

>  <ref_pdb>  (877) 
A4846a

>  <alias>  (877) 
None

>  <HIPPO Pose ID>  (877) 
499629

>  <name>  (877) 
P499629

>  <HIPPO Compound ID>  (877) 
307167

>  <ref_mols>  (877) 
A0556a,A4846a

>  <distance_score>  (877) 
1.976502

>  <inspiration_score>  (877) 
None

$$$$
P499630
     RDKit          3D

 24 25  0  0  0  0  0  0  0  0999 V2000
    6.2986   14.6688   22.1902 C   0  0  0  0  0  0  0  0  0  0  0  0
    7.1455   14.3274   23.4048 C   0  0  1  0  0  0  0  0  0  0  0  0
    8.4105   14.9956   23.3506 N   0  0  0  0  0  0  0  0  0  0  0  0
    9.8079   14.5484   23.8543 C   0  0  0  0  0  0  0  0  0  0  0  0
   10.1274   13.6008   24.4593 O   0  0  0  0  0  0  0  0  0  0  0  0
   10.8117   15.5391   23.3261 C   0  0  0  0  0  0  0  0  0  0  0  0
   10.8421   15.4795   21.8504 C   0  0  0  0  0  0  0  0  0  0  0  0
   10.2643   16.2169   20.8581 C   0  0  0  0  0  0  0  0  0  0  0  0
    9.1159   17.6427   21.1021 Br  0  0  0  0  0  0  0  0  0  0  0  0
   10.6556   15.6438   19.6460 C   0  0  0  0  0  0  0  0  0  0  0  0
   11.4068   14.5637   19.8501 N   0  0  0  0  0  0  0  0  0  0  0  0
   11.3914   14.4306   21.1879 N   0  0  0  0  0  0  0  0  0  0  0  0
   11.6754   13.1720   21.8053 C   0  0  0  0  0  0  0  0  0  0  0  0
    6.4359   14.4903   24.7713 C   0  0  0  0  0  0  0  0  0  0  0  0
    7.3937   14.1845   25.9470 C   0  0  0  0  0  0  0  0  0  0  0  0
    6.7764   13.5870   27.2018 C   0  0  0  0  0  0  0  0  0  0  0  0
    5.7956   12.5494   26.9169 N   0  0  0  0  0  0  0  0  0  0  0  0
    6.2832   11.2447   26.3767 C   0  0  0  0  0  0  0  0  0  0  0  0
    7.3192   11.0089   25.2497 C   0  0  0  0  0  0  0  0  0  0  0  0
    6.9356   11.5835   24.1057 F   0  0  0  0  0  0  0  0  0  0  0  0
    7.4372    9.6897   24.9839 F   0  0  0  0  0  0  0  0  0  0  0  0
    8.5511   11.4288   25.5513 F   0  0  0  0  0  0  0  0  0  0  0  0
    4.7261   13.1981   26.1733 C   0  0  0  0  0  0  0  0  0  0  0  0
    5.1350   13.6705   24.7936 C   0  0  0  0  0  0  0  0  0  0  0  0
  2  1  1  6
  2  3  1  0
  3  4  1  0
  4  5  2  0
  4  6  1  0
  6  7  1  0
  7  8  2  0
  8  9  1  0
  8 10  1  0
 10 11  2  0
 11 12  1  0
 12 13  1  0
  2 14  1  0
 14 15  1  0
 15 16  1  0
 16 17  1  0
 17 18  1  0
 18 19  1  0
 19 20  1  0
 19 21  1  0
 19 22  1  0
 17 23  1  0
 23 24  1  0
 12  7  1  0
 24 14  1  0
M  END
>  <energy_score>  (878) 
-7.066061

>  <inchikey>  (878) 
None

>  <smiles>  (878) 
None

>  <ref_pdb>  (878) 
A4846a

>  <alias>  (878) 
None

>  <HIPPO Pose ID>  (878) 
499630

>  <name>  (878) 
P499630

>  <HIPPO Compound ID>  (878) 
307168

>  <ref_mols>  (878) 
A0556a,A4846a

>  <distance_score>  (878) 
1.922687

>  <inspiration_score>  (878) 
None

$$$$
P499631
     RDKit          3D

 24 25  0  0  0  0  0  0  0  0999 V2000
   10.8097   15.3141   18.8188 C   0  0  0  0  0  0  0  0  0  0  0  0
   10.9534   15.3638   20.2846 C   0  0  0  0  0  0  0  0  0  0  0  0
   11.4879   14.4221   21.1373 C   0  0  0  0  0  0  0  0  0  0  0  0
   11.2645   14.9150   22.4270 C   0  0  0  0  0  0  0  0  0  0  0  0
   11.2193   14.1749   23.7125 C   0  0  0  0  0  0  0  0  0  0  0  0
    9.9206   14.4441   24.5116 C   0  0  0  0  0  0  0  0  0  0  0  0
    9.9145   14.3971   25.6843 O   0  0  0  0  0  0  0  0  0  0  0  0
    8.7484   14.6765   23.5002 N   0  0  0  0  0  0  0  0  0  0  0  0
    7.3469   14.9937   23.7342 C   0  0  1  0  0  0  0  0  0  0  0  0
    6.6583   14.7300   22.3815 C   0  0  0  0  0  0  0  0  0  0  0  0
    6.7537   14.1483   24.8551 C   0  0  0  0  0  0  0  0  0  0  0  0
    5.2693   13.7776   24.6860 C   0  0  0  0  0  0  0  0  0  0  0  0
    4.6721   13.2768   25.9956 C   0  0  0  0  0  0  0  0  0  0  0  0
    5.6266   12.5795   26.8453 N   0  0  0  0  0  0  0  0  0  0  0  0
    6.1467   11.2657   26.3644 C   0  0  0  0  0  0  0  0  0  0  0  0
    7.2574   10.9717   25.3174 C   0  0  0  0  0  0  0  0  0  0  0  0
    8.3991   11.6287   25.5682 F   0  0  0  0  0  0  0  0  0  0  0  0
    6.9118   11.2599   24.0510 F   0  0  0  0  0  0  0  0  0  0  0  0
    7.5479    9.6461   25.3493 F   0  0  0  0  0  0  0  0  0  0  0  0
    6.6205   13.5558   27.2952 C   0  0  0  0  0  0  0  0  0  0  0  0
    6.9340   14.6809   26.2810 C   0  0  0  0  0  0  0  0  0  0  0  0
   10.8120   16.1648   22.3800 N   0  0  0  0  0  0  0  0  0  0  0  0
   10.4956   16.3700   21.0935 N   0  0  0  0  0  0  0  0  0  0  0  0
    9.6092   17.4724   20.8038 C   0  0  0  0  0  0  0  0  0  0  0  0
  1  2  1  0
  2  3  2  0
  3  4  1  0
  4  5  1  0
  5  6  1  0
  6  7  2  0
  6  8  1  0
  8  9  1  0
  9 10  1  6
  9 11  1  0
 11 12  1  0
 12 13  1  0
 13 14  1  0
 14 15  1  0
 15 16  1  0
 16 17  1  0
 16 18  1  0
 16 19  1  0
 14 20  1  0
 20 21  1  0
  4 22  2  0
 22 23  1  0
 23 24  1  0
 23  2  1  0
 21 11  1  0
M  END
>  <energy_score>  (879) 
-7.076027

>  <inchikey>  (879) 
None

>  <smiles>  (879) 
None

>  <ref_pdb>  (879) 
A4846a

>  <alias>  (879) 
None

>  <HIPPO Pose ID>  (879) 
499631

>  <name>  (879) 
P499631

>  <HIPPO Compound ID>  (879) 
307172

>  <ref_mols>  (879) 
A0556a,A4846a

>  <distance_score>  (879) 
1.834449

>  <inspiration_score>  (879) 
None

$$$$
P499633
     RDKit          3D

 24 25  0  0  0  0  0  0  0  0999 V2000
    6.3283   14.5746   22.1540 C   0  0  0  0  0  0  0  0  0  0  0  0
    7.1597   13.9929   23.2773 C   0  0  1  0  0  0  0  0  0  0  0  0
    8.4636   14.5558   23.3150 N   0  0  0  0  0  0  0  0  0  0  0  0
    9.8295   13.9101   23.6659 C   0  0  0  0  0  0  0  0  0  0  0  0
   10.0834   12.8346   24.0529 O   0  0  0  0  0  0  0  0  0  0  0  0
   10.8906   14.9917   23.5244 C   0  0  1  0  0  0  0  0  0  0  0  0
   12.0451   14.4454   24.2061 O   0  0  0  0  0  0  0  0  0  0  0  0
   11.1489   15.2452   22.0906 C   0  0  0  0  0  0  0  0  0  0  0  0
   12.4050   15.4894   21.5332 C   0  0  0  0  0  0  0  0  0  0  0  0
   12.2371   15.2178   20.2073 C   0  0  0  0  0  0  0  0  0  0  0  0
   10.9058   15.2156   20.0117 N   0  0  0  0  0  0  0  0  0  0  0  0
   10.3133   15.2969   18.7191 C   0  0  0  0  0  0  0  0  0  0  0  0
   10.1952   15.2041   21.1435 N   0  0  0  0  0  0  0  0  0  0  0  0
    6.5282   14.0746   24.6816 C   0  0  0  0  0  0  0  0  0  0  0  0
    7.5338   13.6639   25.7895 C   0  0  0  0  0  0  0  0  0  0  0  0
    6.9107   13.1027   27.0559 C   0  0  0  0  0  0  0  0  0  0  0  0
    5.9416   12.0736   26.7637 N   0  0  0  0  0  0  0  0  0  0  0  0
    6.4418   10.7845   26.1389 C   0  0  0  0  0  0  0  0  0  0  0  0
    7.5703   10.5052   25.1144 C   0  0  0  0  0  0  0  0  0  0  0  0
    7.6641    9.1692   24.9166 F   0  0  0  0  0  0  0  0  0  0  0  0
    7.3670   11.0737   23.9221 F   0  0  0  0  0  0  0  0  0  0  0  0
    8.7550   10.9149   25.5727 F   0  0  0  0  0  0  0  0  0  0  0  0
    4.8748   12.7943   26.0917 C   0  0  0  0  0  0  0  0  0  0  0  0
    5.2557   13.2352   24.7011 C   0  0  0  0  0  0  0  0  0  0  0  0
  2  1  1  6
  2  3  1  0
  3  4  1  0
  4  5  2  0
  4  6  1  0
  6  7  1  1
  6  8  1  0
  8  9  1  0
  9 10  2  0
 10 11  1  0
 11 12  1  0
 11 13  1  0
  2 14  1  0
 14 15  1  0
 15 16  1  0
 16 17  1  0
 17 18  1  0
 18 19  1  0
 19 20  1  0
 19 21  1  0
 19 22  1  0
 17 23  1  0
 23 24  1  0
 13  8  2  0
 24 14  1  0
M  END
>  <energy_score>  (880) 
-5.891521

>  <inchikey>  (880) 
None

>  <smiles>  (880) 
None

>  <ref_pdb>  (880) 
A4846a

>  <alias>  (880) 
None

>  <HIPPO Pose ID>  (880) 
499633

>  <name>  (880) 
P499633

>  <HIPPO Compound ID>  (880) 
307174

>  <ref_mols>  (880) 
A0556a,A4846a

>  <distance_score>  (880) 
1.865714

>  <inspiration_score>  (880) 
None

$$$$
P499634
     RDKit          3D

 24 25  0  0  0  0  0  0  0  0999 V2000
   11.5978   14.4446   23.5171 C   0  0  0  0  0  0  0  0  0  0  0  0
   10.6671   15.5128   22.9328 C   0  0  2  0  0  0  0  0  0  0  0  0
    9.2966   15.3476   23.6492 C   0  0  0  0  0  0  0  0  0  0  0  0
    9.2343   15.4910   24.8086 O   0  0  0  0  0  0  0  0  0  0  0  0
    8.2153   14.8996   22.6336 N   0  0  0  0  0  0  0  0  0  0  0  0
    6.8677   14.4458   22.8439 C   0  0  2  0  0  0  0  0  0  0  0  0
    5.9695   15.4902   23.4337 C   0  0  0  0  0  0  0  0  0  0  0  0
    6.8849   13.1081   23.6065 C   0  0  0  0  0  0  0  0  0  0  0  0
    8.1585   12.3403   23.2544 C   0  0  0  0  0  0  0  0  0  0  0  0
    9.0031   12.0317   24.4626 C   0  0  0  0  0  0  0  0  0  0  0  0
    8.2687   11.0945   25.3012 N   0  0  0  0  0  0  0  0  0  0  0  0
    8.1796    9.7561   24.6245 C   0  0  0  0  0  0  0  0  0  0  0  0
    9.2252    9.2653   23.5959 C   0  0  0  0  0  0  0  0  0  0  0  0
   10.4226    9.1069   24.1539 F   0  0  0  0  0  0  0  0  0  0  0  0
    8.8645    8.0949   23.0478 F   0  0  0  0  0  0  0  0  0  0  0  0
    9.3847   10.1376   22.5815 F   0  0  0  0  0  0  0  0  0  0  0  0
    6.9514   11.6648   25.6920 C   0  0  0  0  0  0  0  0  0  0  0  0
    6.6603   13.0840   25.1276 C   0  0  0  0  0  0  0  0  0  0  0  0
   10.6764   15.4757   21.4337 C   0  0  0  0  0  0  0  0  0  0  0  0
   11.3255   14.6576   20.5282 C   0  0  0  0  0  0  0  0  0  0  0  0
   10.9305   15.1018   19.2579 C   0  0  0  0  0  0  0  0  0  0  0  0
   10.0624   16.1067   19.3445 N   0  0  0  0  0  0  0  0  0  0  0  0
   10.0075   16.3820   20.6528 N   0  0  0  0  0  0  0  0  0  0  0  0
    9.2845   17.5477   21.0792 C   0  0  0  0  0  0  0  0  0  0  0  0
  2  1  1  1
  2  3  1  0
  3  4  2  0
  3  5  1  0
  5  6  1  0
  6  7  1  1
  6  8  1  0
  8  9  1  0
  9 10  1  0
 10 11  1  0
 11 12  1  0
 12 13  1  0
 13 14  1  0
 13 15  1  0
 13 16  1  0
 11 17  1  0
 17 18  1  0
  2 19  1  0
 19 20  2  0
 20 21  1  0
 21 22  2  0
 22 23  1  0
 23 24  1  0
 18  8  1  0
 23 19  1  0
M  END
>  <energy_score>  (881) 
-9.550148

>  <inchikey>  (881) 
None

>  <smiles>  (881) 
None

>  <ref_pdb>  (881) 
A4846a

>  <alias>  (881) 
None

>  <HIPPO Pose ID>  (881) 
499634

>  <name>  (881) 
P499634

>  <HIPPO Compound ID>  (881) 
307175

>  <ref_mols>  (881) 
A0556a,A4846a

>  <distance_score>  (881) 
1.771466

>  <inspiration_score>  (881) 
None

$$$$
P499635
     RDKit          3D

 25 26  0  0  0  0  0  0  0  0999 V2000
    6.3116   16.6038   24.2557 C   0  0  0  0  0  0  0  0  0  0  0  0
    6.8578   15.3480   23.6522 C   0  0  1  0  0  0  0  0  0  0  0  0
    8.2675   15.4636   23.3758 N   0  0  0  0  0  0  0  0  0  0  0  0
    9.4883   14.7977   24.0660 C   0  0  0  0  0  0  0  0  0  0  0  0
    9.5342   13.9938   24.9147 O   0  0  0  0  0  0  0  0  0  0  0  0
   10.7280   15.4332   23.5433 C   0  0  0  0  0  0  0  0  0  0  0  0
   11.0207   15.2797   22.1149 C   0  0  0  0  0  0  0  0  0  0  0  0
   12.3214   15.3478   21.6093 C   0  0  0  0  0  0  0  0  0  0  0  0
   12.2031   15.0658   20.2841 C   0  0  0  0  0  0  0  0  0  0  0  0
   10.8736   15.1016   20.0203 N   0  0  0  0  0  0  0  0  0  0  0  0
   10.3965   15.2702   18.6660 C   0  0  0  0  0  0  0  0  0  0  0  0
   11.0398   16.3244   18.1045 F   0  0  0  0  0  0  0  0  0  0  0  0
    9.0777   15.5369   18.5881 F   0  0  0  0  0  0  0  0  0  0  0  0
   10.1097   15.1640   21.1392 N   0  0  0  0  0  0  0  0  0  0  0  0
    6.4134   14.1357   24.4624 C   0  0  0  0  0  0  0  0  0  0  0  0
    6.7493   12.9128   23.6560 C   0  0  0  0  0  0  0  0  0  0  0  0
    6.2453   11.7503   24.4394 C   0  0  0  0  0  0  0  0  0  0  0  0
    6.9414   11.4723   25.6469 N   0  0  0  0  0  0  0  0  0  0  0  0
    8.3113   11.0024   25.3015 C   0  0  0  0  0  0  0  0  0  0  0  0
    8.6409   10.0746   24.1108 C   0  0  0  0  0  0  0  0  0  0  0  0
    7.8413    8.9938   24.1478 F   0  0  0  0  0  0  0  0  0  0  0  0
    8.4937   10.7250   22.9455 F   0  0  0  0  0  0  0  0  0  0  0  0
    9.9083    9.6216   24.1269 F   0  0  0  0  0  0  0  0  0  0  0  0
    6.7099   12.6030   26.5453 C   0  0  0  0  0  0  0  0  0  0  0  0
    6.8295   14.0240   25.9465 C   0  0  0  0  0  0  0  0  0  0  0  0
  2  1  1  1
  2  3  1  0
  3  4  1  0
  4  5  2  0
  4  6  1  0
  6  7  1  0
  7  8  1  0
  8  9  2  0
  9 10  1  0
 10 11  1  0
 11 12  1  0
 11 13  1  0
 10 14  1  0
  2 15  1  0
 15 16  1  0
 16 17  1  0
 17 18  1  0
 18 19  1  0
 19 20  1  0
 20 21  1  0
 20 22  1  0
 20 23  1  0
 18 24  1  0
 24 25  1  0
 14  7  2  0
 25 15  1  0
M  END
>  <energy_score>  (882) 
-949.800076

>  <inchikey>  (882) 
None

>  <smiles>  (882) 
None

>  <ref_pdb>  (882) 
A4846a

>  <alias>  (882) 
None

>  <HIPPO Pose ID>  (882) 
499635

>  <name>  (882) 
P499635

>  <HIPPO Compound ID>  (882) 
307178

>  <ref_mols>  (882) 
A0556a,A4846a

>  <distance_score>  (882) 
1.800282

>  <inspiration_score>  (882) 
None

$$$$
P499637
     RDKit          3D

 25 27  0  0  0  0  0  0  0  0999 V2000
    9.4183   16.8094   21.1441 C   0  0  0  0  0  0  0  0  0  0  0  0
   10.3659   15.7810   20.6892 C   0  0  0  0  0  0  0  0  0  0  0  0
   10.8308   15.5662   19.3734 C   0  0  0  0  0  0  0  0  0  0  0  0
   11.6499   14.5268   19.2751 N   0  0  0  0  0  0  0  0  0  0  0  0
   11.7028   14.0717   20.5261 N   0  0  0  0  0  0  0  0  0  0  0  0
   10.9936   14.8038   21.4269 C   0  0  0  0  0  0  0  0  0  0  0  0
   10.8401   14.4875   22.9512 C   0  0  0  0  0  0  0  0  0  0  0  0
    9.5708   14.9174   23.5822 C   0  0  0  0  0  0  0  0  0  0  0  0
    9.5765   15.6501   24.4825 O   0  0  0  0  0  0  0  0  0  0  0  0
    8.4160   14.1723   22.9199 N   0  0  0  0  0  0  0  0  0  0  0  0
    7.0353   14.0926   23.2782 C   0  0  2  0  0  0  0  0  0  0  0  0
    6.1916   14.8288   22.2582 C   0  0  0  0  0  0  0  0  0  0  0  0
    6.8071   14.5105   24.7524 C   0  0  0  0  0  0  0  0  0  0  0  0
    7.6796   13.7202   25.7678 C   0  0  0  0  0  0  0  0  0  0  0  0
    6.8876   12.6983   26.5826 C   0  0  0  0  0  0  0  0  0  0  0  0
    5.9828   11.9531   25.7571 N   0  0  0  0  0  0  0  0  0  0  0  0
    6.6293   10.9970   24.8091 C   0  0  0  0  0  0  0  0  0  0  0  0
    8.0021   10.3760   24.8950 C   0  0  0  0  0  0  0  0  0  0  0  0
    8.1277    9.3460   24.0400 F   0  0  0  0  0  0  0  0  0  0  0  0
    8.9927   11.2401   24.6473 F   0  0  0  0  0  0  0  0  0  0  0  0
    8.1079    9.8760   26.1266 F   0  0  0  0  0  0  0  0  0  0  0  0
    4.9908   12.8737   25.1911 C   0  0  0  0  0  0  0  0  0  0  0  0
    5.3599   14.3541   25.1841 C   0  0  0  0  0  0  0  0  0  0  0  0
   12.0575   14.3962   23.8248 C   0  0  0  0  0  0  0  0  0  0  0  0
   11.3698   13.1476   23.4180 C   0  0  0  0  0  0  0  0  0  0  0  0
  1  2  1  0
  2  3  1  0
  3  4  2  0
  4  5  1  0
  5  6  1  0
  6  7  1  0
  7  8  1  0
  8  9  2  0
  8 10  1  0
 10 11  1  0
 11 12  1  6
 11 13  1  0
 13 14  1  0
 14 15  1  0
 15 16  1  0
 16 17  1  0
 17 18  1  0
 18 19  1  0
 18 20  1  0
 18 21  1  0
 16 22  1  0
 22 23  1  0
  7 24  1  0
 24 25  1  0
  6  2  2  0
 25  7  1  0
 23 13  1  0
M  END
>  <energy_score>  (883) 
-1.045786

>  <inchikey>  (883) 
None

>  <smiles>  (883) 
None

>  <ref_pdb>  (883) 
A4846a

>  <alias>  (883) 
None

>  <HIPPO Pose ID>  (883) 
499637

>  <name>  (883) 
P499637

>  <HIPPO Compound ID>  (883) 
307182

>  <ref_mols>  (883) 
A0556a,A4846a

>  <distance_score>  (883) 
1.745553

>  <inspiration_score>  (883) 
None

$$$$
P499638
     RDKit          3D

 25 27  0  0  0  0  0  0  0  0999 V2000
    5.8787   15.2755   22.4819 C   0  0  0  0  0  0  0  0  0  0  0  0
    6.8531   15.1774   23.6527 C   0  0  2  0  0  0  0  0  0  0  0  0
    8.1724   14.8945   23.1357 N   0  0  0  0  0  0  0  0  0  0  0  0
    9.5507   15.1079   23.7601 C   0  0  0  0  0  0  0  0  0  0  0  0
    9.8546   15.6161   24.7599 O   0  0  0  0  0  0  0  0  0  0  0  0
   10.6196   14.5626   22.8557 C   0  0  0  0  0  0  0  0  0  0  0  0
   10.6677   15.0825   21.3527 C   0  0  0  0  0  0  0  0  0  0  0  0
   11.4648   14.5827   20.3422 C   0  0  0  0  0  0  0  0  0  0  0  0
   11.0726   15.2525   19.1748 C   0  0  0  0  0  0  0  0  0  0  0  0
   10.1051   16.1318   19.4230 N   0  0  0  0  0  0  0  0  0  0  0  0
    9.9620   16.0864   20.7559 N   0  0  0  0  0  0  0  0  0  0  0  0
    9.1417   17.0882   21.3652 C   0  0  0  0  0  0  0  0  0  0  0  0
   11.9388   14.2042   23.4986 C   0  0  0  0  0  0  0  0  0  0  0  0
   11.0152   13.1152   23.0597 C   0  0  0  0  0  0  0  0  0  0  0  0
    6.3862   14.1131   24.6511 C   0  0  0  0  0  0  0  0  0  0  0  0
    6.2857   12.7685   23.9507 C   0  0  0  0  0  0  0  0  0  0  0  0
    5.9800   11.6738   24.9394 C   0  0  0  0  0  0  0  0  0  0  0  0
    6.9509   11.5462   25.9795 N   0  0  0  0  0  0  0  0  0  0  0  0
    8.2481   11.1687   25.3352 C   0  0  0  0  0  0  0  0  0  0  0  0
    8.3902   10.0573   24.2889 C   0  0  0  0  0  0  0  0  0  0  0  0
    9.6036    9.4922   24.3151 F   0  0  0  0  0  0  0  0  0  0  0  0
    8.2484   10.5896   23.0668 F   0  0  0  0  0  0  0  0  0  0  0  0
    7.5025    9.0707   24.4952 F   0  0  0  0  0  0  0  0  0  0  0  0
    6.8588   12.7921   26.7550 C   0  0  0  0  0  0  0  0  0  0  0  0
    7.2185   14.0309   25.9369 C   0  0  0  0  0  0  0  0  0  0  0  0
  2  1  1  6
  2  3  1  0
  3  4  1  0
  4  5  2  0
  4  6  1  0
  6  7  1  0
  7  8  2  0
  8  9  1  0
  9 10  2  0
 10 11  1  0
 11 12  1  0
  6 13  1  0
 13 14  1  0
  2 15  1  0
 15 16  1  0
 16 17  1  0
 17 18  1  0
 18 19  1  0
 19 20  1  0
 20 21  1  0
 20 22  1  0
 20 23  1  0
 18 24  1  0
 24 25  1  0
 14  6  1  0
 25 15  1  0
 11  7  1  0
M  END
>  <energy_score>  (884) 
-31.703336

>  <inchikey>  (884) 
None

>  <smiles>  (884) 
None

>  <ref_pdb>  (884) 
A4846a

>  <alias>  (884) 
None

>  <HIPPO Pose ID>  (884) 
499638

>  <name>  (884) 
P499638

>  <HIPPO Compound ID>  (884) 
307187

>  <ref_mols>  (884) 
A0556a,A4846a

>  <distance_score>  (884) 
1.73174

>  <inspiration_score>  (884) 
None

$$$$
P499640
     RDKit          3D

 26 27  0  0  0  0  0  0  0  0999 V2000
    6.0906   15.3570   23.4464 C   0  0  0  0  0  0  0  0  0  0  0  0
    6.9291   14.9914   24.6687 C   0  0  2  0  0  0  0  0  0  0  0  0
    8.3276   15.3230   24.4724 N   0  0  0  0  0  0  0  0  0  0  0  0
    9.5568   15.0765   25.3819 C   0  0  0  0  0  0  0  0  0  0  0  0
    9.6231   14.6385   26.4637 O   0  0  0  0  0  0  0  0  0  0  0  0
   10.8124   15.3960   24.6205 C   0  0  0  0  0  0  0  0  0  0  0  0
   10.8048   15.1422   23.1532 C   0  0  0  0  0  0  0  0  0  0  0  0
   11.5329   14.2288   22.3671 C   0  0  0  0  0  0  0  0  0  0  0  0
   11.2838   14.5970   21.0599 C   0  0  0  0  0  0  0  0  0  0  0  0
   10.4239   15.6455   21.1372 N   0  0  0  0  0  0  0  0  0  0  0  0
    9.9252   16.4732   20.0671 C   0  0  0  0  0  0  0  0  0  0  0  0
    9.2703   17.7532   20.5987 C   0  0  0  0  0  0  0  0  0  0  0  0
    8.8122   18.5113   19.5691 F   0  0  0  0  0  0  0  0  0  0  0  0
   10.1792   18.5289   21.2261 F   0  0  0  0  0  0  0  0  0  0  0  0
   10.0083   15.8836   22.3852 N   0  0  0  0  0  0  0  0  0  0  0  0
    7.0799   13.4776   24.8368 C   0  0  0  0  0  0  0  0  0  0  0  0
    7.6645   12.8979   23.5459 C   0  0  0  0  0  0  0  0  0  0  0  0
    8.3839   11.6503   23.9071 C   0  0  0  0  0  0  0  0  0  0  0  0
    7.4002   10.6875   24.3703 N   0  0  0  0  0  0  0  0  0  0  0  0
    8.0946    9.4001   24.5899 C   0  0  0  0  0  0  0  0  0  0  0  0
    9.2501    9.0022   23.6585 C   0  0  0  0  0  0  0  0  0  0  0  0
   10.3473    9.6918   23.9982 F   0  0  0  0  0  0  0  0  0  0  0  0
    9.0092    9.3218   22.3849 F   0  0  0  0  0  0  0  0  0  0  0  0
    9.5702    7.7020   23.7241 F   0  0  0  0  0  0  0  0  0  0  0  0
    6.6028   11.1640   25.5227 C   0  0  0  0  0  0  0  0  0  0  0  0
    5.9623   12.5650   25.2903 C   0  0  0  0  0  0  0  0  0  0  0  0
  2  1  1  6
  2  3  1  0
  3  4  1  0
  4  5  2  0
  4  6  1  0
  6  7  1  0
  7  8  1  0
  8  9  2  0
  9 10  1  0
 10 11  1  0
 11 12  1  0
 12 13  1  0
 12 14  1  0
 10 15  1  0
  2 16  1  0
 16 17  1  0
 17 18  1  0
 18 19  1  0
 19 20  1  0
 20 21  1  0
 21 22  1  0
 21 23  1  0
 21 24  1  0
 19 25  1  0
 25 26  1  0
 15  7  2  0
 26 16  1  0
M  END
>  <energy_score>  (885) 
-3.449294

>  <inchikey>  (885) 
None

>  <smiles>  (885) 
None

>  <ref_pdb>  (885) 
A4846a

>  <alias>  (885) 
None

>  <HIPPO Pose ID>  (885) 
499640

>  <name>  (885) 
P499640

>  <HIPPO Compound ID>  (885) 
307191

>  <ref_mols>  (885) 
A0556a,A4846a

>  <distance_score>  (885) 
1.917946

>  <inspiration_score>  (885) 
None

$$$$
P499642
     RDKit          3D

 26 28  0  0  0  0  0  0  0  0999 V2000
    5.6525   14.7457   22.9937 C   0  0  0  0  0  0  0  0  0  0  0  0
    6.5856   13.7754   23.6791 C   0  0  1  0  0  0  0  0  0  0  0  0
    7.9698   14.0515   23.3540 N   0  0  0  0  0  0  0  0  0  0  0  0
    9.0002   14.9574   24.0533 C   0  0  0  0  0  0  0  0  0  0  0  0
    8.8777   15.6838   24.9551 O   0  0  0  0  0  0  0  0  0  0  0  0
   10.3401   14.7087   23.4553 C   0  0  0  0  0  0  0  0  0  0  0  0
   10.4831   15.2621   22.0207 C   0  0  0  0  0  0  0  0  0  0  0  0
   11.4307   14.8367   21.1320 C   0  0  0  0  0  0  0  0  0  0  0  0
   10.9659   15.3158   19.9238 C   0  0  0  0  0  0  0  0  0  0  0  0
   11.6051   14.6982   18.3436 Br  0  0  0  0  0  0  0  0  0  0  0  0
    9.9266   16.1224   20.0154 N   0  0  0  0  0  0  0  0  0  0  0  0
    9.6489   16.0907   21.3214 N   0  0  0  0  0  0  0  0  0  0  0  0
    8.4239   16.7161   21.7124 C   0  0  0  0  0  0  0  0  0  0  0  0
   10.9328   13.3204   23.7396 C   0  0  0  0  0  0  0  0  0  0  0  0
   11.5802   14.5339   24.2922 C   0  0  0  0  0  0  0  0  0  0  0  0
    6.3736   13.6506   25.2221 C   0  0  0  0  0  0  0  0  0  0  0  0
    7.6044   13.1391   25.9374 C   0  0  0  0  0  0  0  0  0  0  0  0
    8.0740   11.8664   25.2410 C   0  0  0  0  0  0  0  0  0  0  0  0
    6.9836   10.9458   24.9728 N   0  0  0  0  0  0  0  0  0  0  0  0
    7.5818    9.6044   24.8427 C   0  0  0  0  0  0  0  0  0  0  0  0
    8.6464    9.4377   23.7308 C   0  0  0  0  0  0  0  0  0  0  0  0
    9.8605    9.3500   24.2878 F   0  0  0  0  0  0  0  0  0  0  0  0
    8.6951   10.5025   22.9004 F   0  0  0  0  0  0  0  0  0  0  0  0
    8.4657    8.3326   22.9984 F   0  0  0  0  0  0  0  0  0  0  0  0
    5.9249   11.1830   25.9428 C   0  0  0  0  0  0  0  0  0  0  0  0
    5.3132   12.5938   25.6143 C   0  0  0  0  0  0  0  0  0  0  0  0
  2  1  1  1
  2  3  1  0
  3  4  1  0
  4  5  2  0
  4  6  1  0
  6  7  1  0
  7  8  2  0
  8  9  1  0
  9 10  1  0
  9 11  2  0
 11 12  1  0
 12 13  1  0
  6 14  1  0
 14 15  1  0
  2 16  1  0
 16 17  1  0
 17 18  1  0
 18 19  1  0
 19 20  1  0
 20 21  1  0
 21 22  1  0
 21 23  1  0
 21 24  1  0
 19 25  1  0
 25 26  1  0
 15  6  1  0
 26 16  1  0
 12  7  1  0
M  END
>  <energy_score>  (886) 
-0.556259

>  <inchikey>  (886) 
None

>  <smiles>  (886) 
None

>  <ref_pdb>  (886) 
A4846a

>  <alias>  (886) 
None

>  <HIPPO Pose ID>  (886) 
499642

>  <name>  (886) 
P499642

>  <HIPPO Compound ID>  (886) 
307198

>  <ref_mols>  (886) 
A0556a,A4846a

>  <distance_score>  (886) 
1.722004

>  <inspiration_score>  (886) 
None

$$$$
P499646
     RDKit          3D

 27 28  0  0  0  0  0  0  0  0999 V2000
    6.5728   14.9069   22.3971 C   0  0  0  0  0  0  0  0  0  0  0  0
    7.2640   15.1946   23.7396 C   0  0  2  0  0  0  0  0  0  0  0  0
    8.6614   14.8174   23.5332 N   0  0  0  0  0  0  0  0  0  0  0  0
    9.8298   14.6346   24.5639 C   0  0  0  0  0  0  0  0  0  0  0  0
    9.8235   14.6842   25.7374 O   0  0  0  0  0  0  0  0  0  0  0  0
   11.1110   14.2424   23.7863 C   0  0  0  0  0  0  0  0  0  0  0  0
   11.2059   14.9305   22.4744 C   0  0  0  0  0  0  0  0  0  0  0  0
   11.4430   14.3906   21.2057 C   0  0  0  0  0  0  0  0  0  0  0  0
   10.9495   15.3219   20.3126 C   0  0  0  0  0  0  0  0  0  0  0  0
   10.7969   15.2552   18.8518 C   0  0  0  0  0  0  0  0  0  0  0  0
   11.5895   16.1420   18.2199 F   0  0  0  0  0  0  0  0  0  0  0  0
    9.5180   15.5465   18.5054 F   0  0  0  0  0  0  0  0  0  0  0  0
   11.0912   14.0294   18.3641 F   0  0  0  0  0  0  0  0  0  0  0  0
   10.5053   16.3605   21.0815 N   0  0  0  0  0  0  0  0  0  0  0  0
    9.6307   17.4663   20.7665 C   0  0  0  0  0  0  0  0  0  0  0  0
   10.8167   16.1972   22.3756 N   0  0  0  0  0  0  0  0  0  0  0  0
    6.6556   14.3873   24.8756 C   0  0  0  0  0  0  0  0  0  0  0  0
    6.8293   14.9205   26.2975 C   0  0  0  0  0  0  0  0  0  0  0  0
    6.6640   13.7369   27.2830 C   0  0  0  0  0  0  0  0  0  0  0  0
    5.7495   12.6722   26.8295 N   0  0  0  0  0  0  0  0  0  0  0  0
    6.3472   11.4160   26.2727 C   0  0  0  0  0  0  0  0  0  0  0  0
    7.3622   11.2650   25.1038 C   0  0  0  0  0  0  0  0  0  0  0  0
    6.8147   11.6032   23.9176 F   0  0  0  0  0  0  0  0  0  0  0  0
    7.7685    9.9820   24.9800 F   0  0  0  0  0  0  0  0  0  0  0  0
    8.4794   11.9911   25.2795 F   0  0  0  0  0  0  0  0  0  0  0  0
    4.7068   13.2952   26.0245 C   0  0  0  0  0  0  0  0  0  0  0  0
    5.1961   13.9383   24.7264 C   0  0  0  0  0  0  0  0  0  0  0  0
  2  1  1  6
  2  3  1  0
  3  4  1  0
  4  5  2  0
  4  6  1  0
  6  7  1  0
  7  8  1  0
  8  9  2  0
  9 10  1  0
 10 11  1  0
 10 12  1  0
 10 13  1  0
  9 14  1  0
 14 15  1  0
 14 16  1  0
  2 17  1  0
 17 18  1  0
 18 19  1  0
 19 20  1  0
 20 21  1  0
 21 22  1  0
 22 23  1  0
 22 24  1  0
 22 25  1  0
 20 26  1  0
 26 27  1  0
 16  7  2  0
 27 17  1  0
M  END
>  <energy_score>  (887) 
-0.753457

>  <inchikey>  (887) 
None

>  <smiles>  (887) 
None

>  <ref_pdb>  (887) 
A4846a

>  <alias>  (887) 
None

>  <HIPPO Pose ID>  (887) 
499646

>  <name>  (887) 
P499646

>  <HIPPO Compound ID>  (887) 
307210

>  <ref_mols>  (887) 
A0556a,A4846a

>  <distance_score>  (887) 
1.652912

>  <inspiration_score>  (887) 
None

$$$$
P499652
     RDKit          3D

 24 26  0  0  0  0  0  0  0  0999 V2000
    3.9573   15.2079   23.5759 O   0  0  0  0  0  0  0  0  0  0  0  0
    4.2744   14.5987   22.6268 C   0  0  0  0  0  0  0  0  0  0  0  0
    5.7837   14.3400   22.3623 C   0  0  0  0  0  0  0  0  0  0  0  0
    6.6976   13.9622   23.6065 C   0  0  1  0  0  0  0  0  0  0  0  0
    5.9827   13.9137   24.9854 C   0  0  0  0  0  0  0  0  0  0  0  0
    6.3967   12.7779   25.8992 C   0  0  0  0  0  0  0  0  0  0  0  0
    7.8568   12.5142   25.7329 C   0  0  0  0  0  0  0  0  0  0  0  0
    8.2616   12.1497   24.3094 C   0  0  1  0  0  0  0  0  0  0  0  0
    8.3848   10.5986   24.2430 C   0  0  0  0  0  0  0  0  0  0  0  0
    8.8977   10.1505   23.0825 F   0  0  0  0  0  0  0  0  0  0  0  0
    9.2291   10.1770   25.2041 F   0  0  0  0  0  0  0  0  0  0  0  0
    7.2202    9.9678   24.5049 F   0  0  0  0  0  0  0  0  0  0  0  0
    7.4138   12.7306   23.2886 O   0  0  0  0  0  0  0  0  0  0  0  0
    3.4019   13.9505   21.5011 N   0  0  0  0  0  0  0  0  0  0  0  0
    1.9580   13.8418   21.3720 C   0  0  0  0  0  0  0  0  0  0  0  0
    1.3539   13.8829   19.9939 C   0  0  0  0  0  0  0  0  0  0  0  0
    0.8476   14.9480   19.2698 C   0  0  0  0  0  0  0  0  0  0  0  0
    0.1554   14.4073   18.1986 N   0  0  0  0  0  0  0  0  0  0  0  0
   -0.6080   15.0106   17.2030 C   0  0  0  0  0  0  0  0  0  0  0  0
   -1.1828   14.2540   16.2598 C   0  0  0  0  0  0  0  0  0  0  0  0
   -0.9444   12.7928   16.4033 C   0  0  0  0  0  0  0  0  0  0  0  0
   -0.2668   12.2107   17.3449 N   0  0  0  0  0  0  0  0  0  0  0  0
    0.3065   13.0298   18.2761 C   0  0  0  0  0  0  0  0  0  0  0  0
    1.0108   12.7110   19.3472 N   0  0  0  0  0  0  0  0  0  0  0  0
  1  2  2  0
  2  3  1  0
  4  3  1  6
  4  5  1  0
  5  6  1  0
  6  7  1  0
  7  8  1  0
  8  9  1  1
  9 10  1  0
  9 11  1  0
  9 12  1  0
  8 13  1  0
  2 14  1  0
 14 15  1  0
 15 16  1  0
 16 17  2  0
 17 18  1  0
 18 19  1  0
 19 20  2  0
 20 21  1  0
 21 22  2  0
 22 23  1  0
 23 24  2  0
 13  4  1  0
 24 16  1  0
 23 18  1  0
M  END
>  <energy_score>  (888) 
-17.397233

>  <inchikey>  (888) 
None

>  <smiles>  (888) 
None

>  <ref_pdb>  (888) 
A1209a

>  <alias>  (888) 
None

>  <HIPPO Pose ID>  (888) 
499652

>  <name>  (888) 
P499652

>  <HIPPO Compound ID>  (888) 
307670

>  <ref_mols>  (888) 
A0473a,A1209a

>  <distance_score>  (888) 
1.788659

>  <inspiration_score>  (888) 
None

$$$$
P499654
     RDKit          3D

 24 26  0  0  0  0  0  0  0  0999 V2000
    3.5869   13.9409   22.9707 O   0  0  0  0  0  0  0  0  0  0  0  0
    4.2159   13.9332   21.9797 C   0  0  0  0  0  0  0  0  0  0  0  0
    5.6986   14.4302   21.9630 C   0  0  0  0  0  0  0  0  0  0  0  0
    6.6503   14.1955   23.1947 C   0  0  1  0  0  0  0  0  0  0  0  0
    6.0697   14.6209   24.5517 C   0  0  0  0  0  0  0  0  0  0  0  0
    6.0919   13.5368   25.6181 C   0  0  0  0  0  0  0  0  0  0  0  0
    7.4521   12.8911   25.6748 C   0  0  0  0  0  0  0  0  0  0  0  0
    8.0207   12.4517   24.3155 C   0  0  1  0  0  0  0  0  0  0  0  0
    8.2819   10.9160   24.3888 C   0  0  0  0  0  0  0  0  0  0  0  0
    8.9361   10.4284   23.3147 F   0  0  0  0  0  0  0  0  0  0  0  0
    9.0667   10.6733   25.4633 F   0  0  0  0  0  0  0  0  0  0  0  0
    7.1664   10.1825   24.5944 F   0  0  0  0  0  0  0  0  0  0  0  0
    7.2512   12.8775   23.1624 O   0  0  0  0  0  0  0  0  0  0  0  0
    3.8564   13.3808   20.5473 N   0  0  0  0  0  0  0  0  0  0  0  0
    2.6823   12.6406   20.0826 C   0  0  0  0  0  0  0  0  0  0  0  0
    1.5043   13.4508   19.6490 C   0  0  0  0  0  0  0  0  0  0  0  0
    0.6305   14.2313   20.3838 C   0  0  0  0  0  0  0  0  0  0  0  0
    0.7654   14.5091   22.2191 Br  0  0  0  0  0  0  0  0  0  0  0  0
   -0.4167   14.7412   19.6461 N   0  0  0  0  0  0  0  0  0  0  0  0
   -0.2004   14.2705   18.4514 C   0  0  0  0  0  0  0  0  0  0  0  0
    0.9098   13.4760   18.4204 N   0  0  0  0  0  0  0  0  0  0  0  0
    1.0851   12.8600   17.1226 C   0  0  0  0  0  0  0  0  0  0  0  0
   -0.2688   13.1224   16.4233 C   0  0  0  0  0  0  0  0  0  0  0  0
   -0.8811   14.3405   17.1437 C   0  0  0  0  0  0  0  0  0  0  0  0
  1  2  2  0
  2  3  1  0
  4  3  1  6
  4  5  1  0
  5  6  1  0
  6  7  1  0
  7  8  1  0
  8  9  1  1
  9 10  1  0
  9 11  1  0
  9 12  1  0
  8 13  1  0
  2 14  1  0
 14 15  1  0
 15 16  1  0
 16 17  2  0
 17 18  1  0
 17 19  1  0
 19 20  2  0
 20 21  1  0
 21 22  1  0
 22 23  1  0
 23 24  1  0
 13  4  1  0
 21 16  1  0
 24 20  1  0
M  END
>  <energy_score>  (889) 
-0.302802

>  <inchikey>  (889) 
None

>  <smiles>  (889) 
None

>  <ref_pdb>  (889) 
A1209a

>  <alias>  (889) 
None

>  <HIPPO Pose ID>  (889) 
499654

>  <name>  (889) 
P499654

>  <HIPPO Compound ID>  (889) 
307680

>  <ref_mols>  (889) 
A0473a,A1209a

>  <distance_score>  (889) 
1.883689

>  <inspiration_score>  (889) 
None

$$$$
P499655
     RDKit          3D

 24 26  0  0  0  0  0  0  0  0999 V2000
    3.8029   15.2412   23.9232 O   0  0  0  0  0  0  0  0  0  0  0  0
    4.1480   14.6784   22.9551 C   0  0  0  0  0  0  0  0  0  0  0  0
    5.6655   14.4662   22.6904 C   0  0  0  0  0  0  0  0  0  0  0  0
    6.5395   13.9939   23.9247 C   0  0  1  0  0  0  0  0  0  0  0  0
    5.7472   13.7666   25.2451 C   0  0  0  0  0  0  0  0  0  0  0  0
    6.1953   12.5860   26.0802 C   0  0  0  0  0  0  0  0  0  0  0  0
    7.6758   12.4400   25.9562 C   0  0  0  0  0  0  0  0  0  0  0  0
    8.1498   12.1946   24.5258 C   0  0  1  0  0  0  0  0  0  0  0  0
    8.3226   10.6603   24.3437 C   0  0  0  0  0  0  0  0  0  0  0  0
    7.1740    9.9766   24.5335 F   0  0  0  0  0  0  0  0  0  0  0  0
    8.8681   10.3147   23.1626 F   0  0  0  0  0  0  0  0  0  0  0  0
    9.1620   10.1952   25.2889 F   0  0  0  0  0  0  0  0  0  0  0  0
    7.3273   12.8295   23.5180 O   0  0  0  0  0  0  0  0  0  0  0  0
    3.3074   14.0237   21.8115 N   0  0  0  0  0  0  0  0  0  0  0  0
    1.8743   13.8476   21.6799 C   0  0  0  0  0  0  0  0  0  0  0  0
    1.2795   14.0145   20.3107 C   0  0  0  0  0  0  0  0  0  0  0  0
    0.1559   14.7454   19.9576 C   0  0  0  0  0  0  0  0  0  0  0  0
   -0.1427   14.4205   18.6533 N   0  0  0  0  0  0  0  0  0  0  0  0
   -1.2286   14.8529   17.9401 N   0  0  0  0  0  0  0  0  0  0  0  0
   -1.2867   14.3233   16.7588 C   0  0  0  0  0  0  0  0  0  0  0  0
   -0.3423   13.3338   16.1913 C   0  0  0  0  0  0  0  0  0  0  0  0
    0.6917   12.9745   16.9630 C   0  0  0  0  0  0  0  0  0  0  0  0
    0.8176   13.5097   18.2620 C   0  0  0  0  0  0  0  0  0  0  0  0
    1.6935   13.2727   19.2243 N   0  0  0  0  0  0  0  0  0  0  0  0
  1  2  2  0
  2  3  1  0
  4  3  1  6
  4  5  1  0
  5  6  1  0
  6  7  1  0
  7  8  1  0
  8  9  1  6
  9 10  1  0
  9 11  1  0
  9 12  1  0
  8 13  1  0
  2 14  1  0
 14 15  1  0
 15 16  1  0
 16 17  2  0
 17 18  1  0
 18 19  1  0
 19 20  2  0
 20 21  1  0
 21 22  2  0
 22 23  1  0
 23 24  2  0
 13  4  1  0
 24 16  1  0
 23 18  1  0
M  END
>  <energy_score>  (890) 
-5.118435

>  <inchikey>  (890) 
None

>  <smiles>  (890) 
None

>  <ref_pdb>  (890) 
A1209a

>  <alias>  (890) 
None

>  <HIPPO Pose ID>  (890) 
499655

>  <name>  (890) 
P499655

>  <HIPPO Compound ID>  (890) 
307683

>  <ref_mols>  (890) 
A0473a,A1209a

>  <distance_score>  (890) 
1.869743

>  <inspiration_score>  (890) 
None

$$$$
P499658
     RDKit          3D

 25 27  0  0  0  0  0  0  0  0999 V2000
    3.9101   15.1761   23.6091 O   0  0  0  0  0  0  0  0  0  0  0  0
    4.2383   14.6033   22.6414 C   0  0  0  0  0  0  0  0  0  0  0  0
    5.7535   14.3598   22.3798 C   0  0  0  0  0  0  0  0  0  0  0  0
    6.6712   13.9762   23.6216 C   0  0  1  0  0  0  0  0  0  0  0  0
    5.9567   13.9145   25.0001 C   0  0  0  0  0  0  0  0  0  0  0  0
    6.3833   12.7811   25.9107 C   0  0  0  0  0  0  0  0  0  0  0  0
    7.8449   12.5303   25.7405 C   0  0  0  0  0  0  0  0  0  0  0  0
    8.2486   12.1702   24.3154 C   0  0  1  0  0  0  0  0  0  0  0  0
    8.3792   10.6192   24.2476 C   0  0  0  0  0  0  0  0  0  0  0  0
    9.2207   10.1984   25.2109 F   0  0  0  0  0  0  0  0  0  0  0  0
    7.2146    9.9842   24.5026 F   0  0  0  0  0  0  0  0  0  0  0  0
    8.8962   10.1759   23.0873 F   0  0  0  0  0  0  0  0  0  0  0  0
    7.3941   12.7487   23.2965 O   0  0  0  0  0  0  0  0  0  0  0  0
    3.3780   13.9827   21.4907 N   0  0  0  0  0  0  0  0  0  0  0  0
    1.9354   13.8605   21.3521 C   0  0  0  0  0  0  0  0  0  0  0  0
    1.3258   13.9431   19.9774 C   0  0  0  0  0  0  0  0  0  0  0  0
    0.8468   15.0400   19.2811 C   0  0  0  0  0  0  0  0  0  0  0  0
    0.1044   14.5542   18.2134 N   0  0  0  0  0  0  0  0  0  0  0  0
   -0.6742   15.2160   17.2591 C   0  0  0  0  0  0  0  0  0  0  0  0
   -0.7949   16.5606   17.3012 F   0  0  0  0  0  0  0  0  0  0  0  0
   -1.3124   14.5085   16.3132 C   0  0  0  0  0  0  0  0  0  0  0  0
   -1.1907   13.0601   16.3207 C   0  0  0  0  0  0  0  0  0  0  0  0
   -0.4705   12.4297   17.2689 C   0  0  0  0  0  0  0  0  0  0  0  0
    0.2157   13.1748   18.2710 C   0  0  0  0  0  0  0  0  0  0  0  0
    0.9320   12.7932   19.3126 N   0  0  0  0  0  0  0  0  0  0  0  0
  1  2  2  0
  2  3  1  0
  4  3  1  6
  4  5  1  0
  5  6  1  0
  6  7  1  0
  7  8  1  0
  8  9  1  1
  9 10  1  0
  9 11  1  0
  9 12  1  0
  8 13  1  0
  2 14  1  0
 14 15  1  0
 15 16  1  0
 16 17  2  0
 17 18  1  0
 18 19  1  0
 19 20  1  0
 19 21  2  0
 21 22  1  0
 22 23  2  0
 23 24  1  0
 24 25  2  0
 13  4  1  0
 25 16  1  0
 24 18  1  0
M  END
>  <energy_score>  (891) 
-6.174319

>  <inchikey>  (891) 
None

>  <smiles>  (891) 
None

>  <ref_pdb>  (891) 
A1209a

>  <alias>  (891) 
None

>  <HIPPO Pose ID>  (891) 
499658

>  <name>  (891) 
P499658

>  <HIPPO Compound ID>  (891) 
307697

>  <ref_mols>  (891) 
A0473a,A1209a

>  <distance_score>  (891) 
1.770728

>  <inspiration_score>  (891) 
None

$$$$
P499660
     RDKit          3D

 25 27  0  0  0  0  0  0  0  0999 V2000
    1.4996   12.6889   21.9611 C   0  0  0  0  0  0  0  0  0  0  0  0
    1.9670   14.0218   21.3883 C   0  0  1  0  0  0  0  0  0  0  0  0
    3.4176   14.1060   21.5190 N   0  0  0  0  0  0  0  0  0  0  0  0
    4.3012   14.6835   22.6749 C   0  0  0  0  0  0  0  0  0  0  0  0
    3.9939   15.2461   23.6557 O   0  0  0  0  0  0  0  0  0  0  0  0
    5.8008   14.3823   22.4050 C   0  0  0  0  0  0  0  0  0  0  0  0
    6.7000   13.9682   23.6483 C   0  0  1  0  0  0  0  0  0  0  0  0
    5.9675   13.8824   25.0170 C   0  0  0  0  0  0  0  0  0  0  0  0
    6.3918   12.7408   25.9184 C   0  0  0  0  0  0  0  0  0  0  0  0
    7.8543   12.4940   25.7493 C   0  0  0  0  0  0  0  0  0  0  0  0
    8.2622   12.1466   24.3225 C   0  0  1  0  0  0  0  0  0  0  0  0
    8.3884   10.5969   24.2392 C   0  0  0  0  0  0  0  0  0  0  0  0
    8.9005   10.1624   23.0731 F   0  0  0  0  0  0  0  0  0  0  0  0
    7.2260    9.9609   24.4966 F   0  0  0  0  0  0  0  0  0  0  0  0
    9.2361   10.1666   25.1934 F   0  0  0  0  0  0  0  0  0  0  0  0
    7.4153   12.7408   23.3077 O   0  0  0  0  0  0  0  0  0  0  0  0
    1.3748   14.1981   20.0134 C   0  0  0  0  0  0  0  0  0  0  0  0
    0.2725   14.9671   19.6645 C   0  0  0  0  0  0  0  0  0  0  0  0
   -0.1135   14.5625   18.4031 N   0  0  0  0  0  0  0  0  0  0  0  0
   -1.2150   14.9344   17.6270 C   0  0  0  0  0  0  0  0  0  0  0  0
   -1.4319   14.3156   16.4546 C   0  0  0  0  0  0  0  0  0  0  0  0
   -0.4958   13.2903   16.0243 C   0  0  0  0  0  0  0  0  0  0  0  0
    0.5728   12.9612   16.7773 C   0  0  0  0  0  0  0  0  0  0  0  0
    0.7902   13.5828   18.0331 C   0  0  0  0  0  0  0  0  0  0  0  0
    1.7033   13.3732   18.9640 N   0  0  0  0  0  0  0  0  0  0  0  0
  2  1  1  6
  2  3  1  0
  3  4  1  0
  4  5  2  0
  4  6  1  0
  7  6  1  6
  7  8  1  0
  8  9  1  0
  9 10  1  0
 10 11  1  0
 11 12  1  1
 12 13  1  0
 12 14  1  0
 12 15  1  0
 11 16  1  0
  2 17  1  0
 17 18  2  0
 18 19  1  0
 19 20  1  0
 20 21  2  0
 21 22  1  0
 22 23  2  0
 23 24  1  0
 24 25  2  0
 16  7  1  0
 25 17  1  0
 24 19  1  0
M  END
>  <energy_score>  (892) 
-1.875215

>  <inchikey>  (892) 
None

>  <smiles>  (892) 
None

>  <ref_pdb>  (892) 
A1209a

>  <alias>  (892) 
None

>  <HIPPO Pose ID>  (892) 
499660

>  <name>  (892) 
P499660

>  <HIPPO Compound ID>  (892) 
307704

>  <ref_mols>  (892) 
A0473a,A1209a

>  <distance_score>  (892) 
1.84113

>  <inspiration_score>  (892) 
None

$$$$
P499662
     RDKit          3D

 25 27  0  0  0  0  0  0  0  0999 V2000
    4.1265   15.2066   23.7813 O   0  0  0  0  0  0  0  0  0  0  0  0
    4.4070   14.6318   22.7990 C   0  0  0  0  0  0  0  0  0  0  0  0
    5.9036   14.3785   22.4487 C   0  0  0  0  0  0  0  0  0  0  0  0
    6.8785   13.8916   23.6002 C   0  0  1  0  0  0  0  0  0  0  0  0
    6.2712   13.7750   25.0212 C   0  0  0  0  0  0  0  0  0  0  0  0
    6.7423   12.5673   25.8182 C   0  0  0  0  0  0  0  0  0  0  0  0
    8.1922   12.3133   25.5322 C   0  0  0  0  0  0  0  0  0  0  0  0
    8.4950   12.0528   24.0694 C   0  0  1  0  0  0  0  0  0  0  0  0
    8.6690   10.5150   23.8851 C   0  0  0  0  0  0  0  0  0  0  0  0
    7.5685    9.8286   24.2686 F   0  0  0  0  0  0  0  0  0  0  0  0
    9.0072   10.1956   22.6263 F   0  0  0  0  0  0  0  0  0  0  0  0
    9.6738   10.0255   24.6286 F   0  0  0  0  0  0  0  0  0  0  0  0
    7.5201   12.6519   23.1748 O   0  0  0  0  0  0  0  0  0  0  0  0
    3.4900   14.0054   21.6937 N   0  0  0  0  0  0  0  0  0  0  0  0
    2.0461   13.8797   21.6286 C   0  0  0  0  0  0  0  0  0  0  0  0
    1.3981   14.0321   20.2782 C   0  0  0  0  0  0  0  0  0  0  0  0
    0.2795   14.7809   19.9468 C   0  0  0  0  0  0  0  0  0  0  0  0
   -0.0708   14.4510   18.6457 N   0  0  0  0  0  0  0  0  0  0  0  0
   -1.1404   14.8637   17.8324 C   0  0  0  0  0  0  0  0  0  0  0  0
   -2.2468   16.0716   18.3803 Cl  0  0  0  0  0  0  0  0  0  0  0  0
   -1.3008   14.2963   16.6235 C   0  0  0  0  0  0  0  0  0  0  0  0
   -0.3515   13.2878   16.1862 C   0  0  0  0  0  0  0  0  0  0  0  0
    0.6889   12.9280   16.9628 C   0  0  0  0  0  0  0  0  0  0  0  0
    0.8569   13.4970   18.2535 C   0  0  0  0  0  0  0  0  0  0  0  0
    1.7535   13.2607   19.1957 N   0  0  0  0  0  0  0  0  0  0  0  0
  1  2  2  0
  2  3  1  0
  4  3  1  6
  4  5  1  0
  5  6  1  0
  6  7  1  0
  7  8  1  0
  8  9  1  1
  9 10  1  0
  9 11  1  0
  9 12  1  0
  8 13  1  0
  2 14  1  0
 14 15  1  0
 15 16  1  0
 16 17  2  0
 17 18  1  0
 18 19  1  0
 19 20  1  0
 19 21  2  0
 21 22  1  0
 22 23  2  0
 23 24  1  0
 24 25  2  0
 13  4  1  0
 25 16  1  0
 24 18  1  0
M  END
>  <energy_score>  (893) 
-6.242903

>  <inchikey>  (893) 
None

>  <smiles>  (893) 
None

>  <ref_pdb>  (893) 
A1209a

>  <alias>  (893) 
None

>  <HIPPO Pose ID>  (893) 
499662

>  <name>  (893) 
P499662

>  <HIPPO Compound ID>  (893) 
307709

>  <ref_mols>  (893) 
A0473a,A1209a

>  <distance_score>  (893) 
1.943108

>  <inspiration_score>  (893) 
None

$$$$
P499663
     RDKit          3D

 25 27  0  0  0  0  0  0  0  0999 V2000
    3.9417   14.8127   23.7310 O   0  0  0  0  0  0  0  0  0  0  0  0
    4.2185   14.4377   22.6561 C   0  0  0  0  0  0  0  0  0  0  0  0
    5.7014   14.3638   22.1889 C   0  0  0  0  0  0  0  0  0  0  0  0
    6.8706   14.1534   23.2240 C   0  0  1  0  0  0  0  0  0  0  0  0
    6.6873   14.7229   24.6349 C   0  0  0  0  0  0  0  0  0  0  0  0
    6.1554   13.7009   25.6302 C   0  0  0  0  0  0  0  0  0  0  0  0
    6.9766   12.4315   25.6420 C   0  0  0  0  0  0  0  0  0  0  0  0
    7.9182   12.2758   24.4365 C   0  0  1  0  0  0  0  0  0  0  0  0
    8.3393   10.7828   24.4101 C   0  0  0  0  0  0  0  0  0  0  0  0
    9.0252   10.5391   25.5483 F   0  0  0  0  0  0  0  0  0  0  0  0
    9.1423   10.4584   23.3790 F   0  0  0  0  0  0  0  0  0  0  0  0
    7.2986    9.9249   24.4426 F   0  0  0  0  0  0  0  0  0  0  0  0
    7.3490   12.7816   23.2034 O   0  0  0  0  0  0  0  0  0  0  0  0
    3.2952   14.0287   21.4537 N   0  0  0  0  0  0  0  0  0  0  0  0
    1.8501   13.9107   21.3738 C   0  0  0  0  0  0  0  0  0  0  0  0
    1.2111   13.9856   20.0114 C   0  0  0  0  0  0  0  0  0  0  0  0
    0.5586   15.0379   19.3902 C   0  0  0  0  0  0  0  0  0  0  0  0
   -0.1193   14.5218   18.2887 N   0  0  0  0  0  0  0  0  0  0  0  0
   -1.0296   15.0982   17.3777 C   0  0  0  0  0  0  0  0  0  0  0  0
   -1.6043   16.8602   17.6020 Br  0  0  0  0  0  0  0  0  0  0  0  0
   -1.5435   14.3298   16.3970 C   0  0  0  0  0  0  0  0  0  0  0  0
   -1.1908   12.9247   16.3318 C   0  0  0  0  0  0  0  0  0  0  0  0
   -0.3755   12.3781   17.2500 C   0  0  0  0  0  0  0  0  0  0  0  0
    0.2135   13.1752   18.2660 C   0  0  0  0  0  0  0  0  0  0  0  0
    1.0028   12.8431   19.2695 N   0  0  0  0  0  0  0  0  0  0  0  0
  1  2  2  0
  2  3  1  0
  4  3  1  1
  4  5  1  0
  5  6  1  0
  6  7  1  0
  7  8  1  0
  8  9  1  6
  9 10  1  0
  9 11  1  0
  9 12  1  0
  8 13  1  0
  2 14  1  0
 14 15  1  0
 15 16  1  0
 16 17  2  0
 17 18  1  0
 18 19  1  0
 19 20  1  0
 19 21  2  0
 21 22  1  0
 22 23  2  0
 23 24  1  0
 24 25  2  0
 13  4  1  0
 25 16  1  0
 24 18  1  0
M  END
>  <energy_score>  (894) 
-1.91791

>  <inchikey>  (894) 
None

>  <smiles>  (894) 
None

>  <ref_pdb>  (894) 
A1209a

>  <alias>  (894) 
None

>  <HIPPO Pose ID>  (894) 
499663

>  <name>  (894) 
P499663

>  <HIPPO Compound ID>  (894) 
307711

>  <ref_mols>  (894) 
A0473a,A1209a

>  <distance_score>  (894) 
1.874827

>  <inspiration_score>  (894) 
None

$$$$
P499664
     RDKit          3D

 25 27  0  0  0  0  0  0  0  0999 V2000
    1.2997   14.1151   22.3105 C   0  0  0  0  0  0  0  0  0  0  0  0
    2.1299   13.4679   21.2108 C   0  0  2  0  0  0  0  0  0  0  0  0
    3.5424   13.8201   21.3360 N   0  0  0  0  0  0  0  0  0  0  0  0
    4.3515   14.3687   22.5685 C   0  0  0  0  0  0  0  0  0  0  0  0
    3.9845   14.6895   23.6352 O   0  0  0  0  0  0  0  0  0  0  0  0
    5.8562   14.4266   22.1920 C   0  0  0  0  0  0  0  0  0  0  0  0
    6.9487   14.1354   23.2820 C   0  0  1  0  0  0  0  0  0  0  0  0
    6.6949   14.6697   24.6977 C   0  0  0  0  0  0  0  0  0  0  0  0
    6.1406   13.6258   25.6561 C   0  0  0  0  0  0  0  0  0  0  0  0
    6.9702   12.3615   25.6668 C   0  0  0  0  0  0  0  0  0  0  0  0
    7.9267   12.2211   24.4705 C   0  0  1  0  0  0  0  0  0  0  0  0
    8.3403   10.7292   24.4203 C   0  0  0  0  0  0  0  0  0  0  0  0
    9.0205   10.4647   25.5562 F   0  0  0  0  0  0  0  0  0  0  0  0
    7.2962    9.8761   24.4373 F   0  0  0  0  0  0  0  0  0  0  0  0
    9.1458   10.4183   23.3871 F   0  0  0  0  0  0  0  0  0  0  0  0
    7.3725   12.7491   23.2421 O   0  0  0  0  0  0  0  0  0  0  0  0
    1.4850   13.6827   19.8509 C   0  0  0  0  0  0  0  0  0  0  0  0
    0.9604   14.8150   19.2510 C   0  0  0  0  0  0  0  0  0  0  0  0
    0.2137   14.3782   18.1669 N   0  0  0  0  0  0  0  0  0  0  0  0
   -0.5951   15.0720   17.2713 C   0  0  0  0  0  0  0  0  0  0  0  0
   -1.2218   14.4071   16.2923 C   0  0  0  0  0  0  0  0  0  0  0  0
   -0.9871   12.9378   16.2873 C   0  0  0  0  0  0  0  0  0  0  0  0
   -0.2683   12.2698   17.1362 N   0  0  0  0  0  0  0  0  0  0  0  0
    0.3571   12.9994   18.1065 C   0  0  0  0  0  0  0  0  0  0  0  0
    1.1108   12.5797   19.1041 N   0  0  0  0  0  0  0  0  0  0  0  0
  2  1  1  1
  2  3  1  0
  3  4  1  0
  4  5  2  0
  4  6  1  0
  7  6  1  6
  7  8  1  0
  8  9  1  0
  9 10  1  0
 10 11  1  0
 11 12  1  6
 12 13  1  0
 12 14  1  0
 12 15  1  0
 11 16  1  0
  2 17  1  0
 17 18  2  0
 18 19  1  0
 19 20  1  0
 20 21  2  0
 21 22  1  0
 22 23  2  0
 23 24  1  0
 24 25  2  0
 16  7  1  0
 25 17  1  0
 24 19  1  0
M  END
>  <energy_score>  (895) 
-10.679749

>  <inchikey>  (895) 
None

>  <smiles>  (895) 
None

>  <ref_pdb>  (895) 
A1209a

>  <alias>  (895) 
None

>  <HIPPO Pose ID>  (895) 
499664

>  <name>  (895) 
P499664

>  <HIPPO Compound ID>  (895) 
307712

>  <ref_mols>  (895) 
A0473a,A1209a

>  <distance_score>  (895) 
1.899279

>  <inspiration_score>  (895) 
None

$$$$
P499667
     RDKit          3D

 26 28  0  0  0  0  0  0  0  0999 V2000
    2.6102   15.2856   24.6623 O   0  0  0  0  0  0  0  0  0  0  0  0
    3.5000   14.7541   24.1155 C   0  0  0  0  0  0  0  0  0  0  0  0
    4.9271   14.7855   24.6889 C   0  0  0  0  0  0  0  0  0  0  0  0
    5.3174   13.5327   25.4720 C   0  0  2  0  0  0  0  0  0  0  0  0
    5.1864   13.6681   26.9764 C   0  0  0  0  0  0  0  0  0  0  0  0
    5.4070   12.2695   27.5345 C   0  0  0  0  0  0  0  0  0  0  0  0
    6.8000   11.7927   27.1945 C   0  0  0  0  0  0  0  0  0  0  0  0
    7.3284   12.1068   25.7828 C   0  0  1  0  0  0  0  0  0  0  0  0
    7.6603   10.7920   25.0236 C   0  0  0  0  0  0  0  0  0  0  0  0
    6.6024    9.9650   24.9208 F   0  0  0  0  0  0  0  0  0  0  0  0
    8.5768   10.1076   25.7460 F   0  0  0  0  0  0  0  0  0  0  0  0
    8.2171   10.9704   23.8090 F   0  0  0  0  0  0  0  0  0  0  0  0
    6.6583   13.1746   25.0935 O   0  0  0  0  0  0  0  0  0  0  0  0
    3.5486   14.0235   22.7309 N   0  0  0  0  0  0  0  0  0  0  0  0
    2.5851   13.8933   21.7546 N   0  0  0  0  0  0  0  0  0  0  0  0
    1.1167   14.3811   21.7203 C   0  0  0  0  0  0  0  0  0  0  0  0
    0.4724   14.9010   22.5440 O   0  0  0  0  0  0  0  0  0  0  0  0
    0.5595   14.1806   20.3607 C   0  0  0  0  0  0  0  0  0  0  0  0
   -0.6397   14.6900   19.8946 C   0  0  0  0  0  0  0  0  0  0  0  0
   -0.7603   14.2896   18.5839 N   0  0  0  0  0  0  0  0  0  0  0  0
   -1.7898   14.5093   17.6664 C   0  0  0  0  0  0  0  0  0  0  0  0
   -1.7051   13.9667   16.4414 C   0  0  0  0  0  0  0  0  0  0  0  0
   -0.5323   13.1772   16.1087 C   0  0  0  0  0  0  0  0  0  0  0  0
    0.4642   12.9841   16.9971 C   0  0  0  0  0  0  0  0  0  0  0  0
    0.3763   13.5419   18.3042 C   0  0  0  0  0  0  0  0  0  0  0  0
    1.1936   13.4852   19.3440 N   0  0  0  0  0  0  0  0  0  0  0  0
  1  2  2  0
  2  3  1  0
  4  3  1  6
  4  5  1  0
  5  6  1  0
  6  7  1  0
  7  8  1  0
  8  9  1  6
  9 10  1  0
  9 11  1  0
  9 12  1  0
  8 13  1  0
  2 14  1  0
 14 15  1  0
 15 16  1  0
 16 17  2  0
 16 18  1  0
 18 19  2  0
 19 20  1  0
 20 21  1  0
 21 22  2  0
 22 23  1  0
 23 24  2  0
 24 25  1  0
 25 26  2  0
 13  4  1  0
 26 18  1  0
 25 20  1  0
M  END
>  <energy_score>  (896) 
-6.402125

>  <inchikey>  (896) 
None

>  <smiles>  (896) 
None

>  <ref_pdb>  (896) 
A1209a

>  <alias>  (896) 
None

>  <HIPPO Pose ID>  (896) 
499667

>  <name>  (896) 
P499667

>  <HIPPO Compound ID>  (896) 
307728

>  <ref_mols>  (896) 
A0473a,A1209a

>  <distance_score>  (896) 
1.843331

>  <inspiration_score>  (896) 
None

$$$$
P499669
     RDKit          3D

 30 33  0  0  0  0  0  0  0  0999 V2000
    5.7428    9.8898   26.5361 C   0  0  0  0  0  0  0  0  0  0  0  0
    6.7557   10.6778   25.8913 N   0  0  0  0  0  0  0  0  0  0  0  0
    7.8503   10.1583   25.2603 C   0  0  0  0  0  0  0  0  0  0  0  0
    8.6630   11.1021   24.8584 N   0  0  0  0  0  0  0  0  0  0  0  0
    8.0087   12.2681   25.1309 C   0  0  0  0  0  0  0  0  0  0  0  0
    6.7978   12.0501   25.7648 C   0  0  0  0  0  0  0  0  0  0  0  0
    5.6664   13.0133   26.1300 C   0  0  2  0  0  0  0  0  0  0  0  0
    5.7310   14.3417   25.2975 C   0  0  1  0  0  0  0  0  0  0  0  0
    4.3435   14.9759   25.0297 C   0  0  0  0  0  0  0  0  0  0  0  0
    3.6721   14.4754   23.8432 N   0  0  0  0  0  0  0  0  0  0  0  0
    4.1366   14.4403   22.3609 C   0  0  0  0  0  0  0  0  0  0  0  0
    5.0945   14.8770   21.8592 O   0  0  0  0  0  0  0  0  0  0  0  0
    3.0050   13.7767   21.5511 C   0  0  0  0  0  0  0  0  0  0  0  0
    3.3776   13.6413   20.0558 C   0  0  2  0  0  0  0  0  0  0  0  0
    2.2537   14.0038   19.0862 C   0  0  0  0  0  0  0  0  0  0  0  0
    1.1134   13.0193   19.1138 C   0  0  0  0  0  0  0  0  0  0  0  0
    1.6261   11.6061   19.2491 C   0  0  0  0  0  0  0  0  0  0  0  0
    3.1294   11.4538   19.0354 C   0  0  2  0  0  0  0  0  0  0  0  0
    3.5065   10.0566   19.4584 C   0  0  0  0  0  0  0  0  0  0  0  0
    4.8280    9.8321   19.3472 F   0  0  0  0  0  0  0  0  0  0  0  0
    2.8925    9.0987   18.7540 F   0  0  0  0  0  0  0  0  0  0  0  0
    3.1432    9.9055   20.7470 F   0  0  0  0  0  0  0  0  0  0  0  0
    3.9126   12.3459   19.8321 O   0  0  0  0  0  0  0  0  0  0  0  0
    6.6847   15.3717   25.9349 C   0  0  0  0  0  0  0  0  0  0  0  0
    6.5184   15.4892   27.4399 C   0  0  0  0  0  0  0  0  0  0  0  0
    6.6121   14.1173   28.1013 C   0  0  0  0  0  0  0  0  0  0  0  0
    5.6069   13.1657   27.6075 N   0  0  0  0  0  0  0  0  0  0  0  0
    4.2662   13.4640   28.1538 C   0  0  0  0  0  0  0  0  0  0  0  0
    3.9363   12.9745   29.5411 C   0  0  0  0  0  0  0  0  0  0  0  0
    3.2420   12.3815   28.3538 C   0  0  0  0  0  0  0  0  0  0  0  0
  1  2  1  0
  2  3  1  0
  3  4  2  0
  4  5  1  0
  5  6  2  0
  7  6  1  1
  7  8  1  0
  8  9  1  1
  9 10  1  0
 10 11  1  0
 11 12  2  0
 11 13  1  0
 14 13  1  1
 14 15  1  0
 15 16  1  0
 16 17  1  0
 17 18  1  0
 18 19  1  1
 19 20  1  0
 19 21  1  0
 19 22  1  0
 18 23  1  0
  8 24  1  0
 24 25  1  0
 25 26  1  0
 26 27  1  0
 27 28  1  0
 28 29  1  0
 29 30  1  0
  6  2  1  0
 27  7  1  0
 30 28  1  0
 23 14  1  0
M  END
>  <energy_score>  (897) 
-29.134542

>  <inchikey>  (897) 
None

>  <smiles>  (897) 
None

>  <ref_pdb>  (897) 
A1209a

>  <alias>  (897) 
None

>  <HIPPO Pose ID>  (897) 
499669

>  <name>  (897) 
P499669

>  <HIPPO Compound ID>  (897) 
307755

>  <ref_mols>  (897) 
A0473a,A1209a

>  <distance_score>  (897) 
1.621281

>  <inspiration_score>  (897) 
None

$$$$
P499673
     RDKit          3D

 22 25  0  0  0  0  0  0  0  0999 V2000
   14.1211   14.9473   23.8267 O   0  0  0  0  0  0  0  0  0  0  0  0
   13.7046   13.9170   24.2852 C   0  0  0  0  0  0  0  0  0  0  0  0
   12.2952   13.4749   23.6813 C   0  0  0  0  0  0  0  0  0  0  0  0
   11.4522   14.6778   23.1834 C   0  0  0  0  0  0  0  0  0  0  0  0
   10.2335   14.3964   22.3043 C   0  0  0  0  0  0  0  0  0  0  0  0
    9.0485   13.9423   23.1236 C   0  0  0  0  0  0  0  0  0  0  0  0
    7.9246   14.7638   23.2663 C   0  0  0  0  0  0  0  0  0  0  0  0
    6.8472   14.3560   24.0519 C   0  0  0  0  0  0  0  0  0  0  0  0
    6.8798   13.1234   24.6981 C   0  0  0  0  0  0  0  0  0  0  0  0
    7.9897   12.2960   24.5632 C   0  0  0  0  0  0  0  0  0  0  0  0
    9.0790   12.7055   23.7845 C   0  0  0  0  0  0  0  0  0  0  0  0
   10.3117   11.8553   23.6998 C   0  0  0  0  0  0  0  0  0  0  0  0
   11.4622   12.5068   24.4877 C   0  0  0  0  0  0  0  0  0  0  0  0
   14.3187   12.9867   25.2046 N   0  0  0  0  0  0  0  0  0  0  0  0
   13.9876   13.3334   26.5851 C   0  0  0  0  0  0  0  0  0  0  0  0
   14.4522   12.1746   27.4603 C   0  0  0  0  0  0  0  0  0  0  0  0
   15.8242   11.9380   26.9514 C   0  0  1  0  0  0  0  0  0  0  0  0
   15.9575   10.5915   26.5245 O   0  0  0  0  0  0  0  0  0  0  0  0
   15.7639   12.9492   25.8170 C   0  0  2  0  0  0  0  0  0  0  0  0
   16.4881   14.2557   26.1458 C   0  0  0  0  0  0  0  0  0  0  0  0
   17.9016   14.3043   26.6987 C   0  0  0  0  0  0  0  0  0  0  0  0
   16.7671   14.7973   27.5391 C   0  0  0  0  0  0  0  0  0  0  0  0
  1  2  2  0
  2  3  1  0
  3  4  1  0
  4  5  1  0
  5  6  1  0
  6  7  2  0
  7  8  1  0
  8  9  2  0
  9 10  1  0
 10 11  2  0
 11 12  1  0
 12 13  1  0
  2 14  1  0
 14 15  1  0
 15 16  1  0
 16 17  1  0
 17 18  1  6
 17 19  1  0
 19 20  1  1
 20 21  1  0
 21 22  1  0
 13  3  1  0
 19 14  1  0
 22 20  1  0
 11  6  1  0
M  END
>  <energy_score>  (898) 
-32.325573

>  <inchikey>  (898) 
None

>  <smiles>  (898) 
None

>  <ref_pdb>  (898) 
A3371a

>  <alias>  (898) 
None

>  <HIPPO Pose ID>  (898) 
499673

>  <name>  (898) 
P499673

>  <HIPPO Compound ID>  (898) 
308726

>  <ref_mols>  (898) 
A1778a,A3371a

>  <distance_score>  (898) 
1.884391

>  <inspiration_score>  (898) 
None

$$$$
P499674
     RDKit          3D

 22 25  0  0  0  0  0  0  0  0999 V2000
   12.7943   14.4257   25.9810 O   0  0  0  0  0  0  0  0  0  0  0  0
   13.1780   13.5373   25.3416 C   0  0  0  0  0  0  0  0  0  0  0  0
   14.4152   12.6362   25.5253 N   0  0  0  0  0  0  0  0  0  0  0  0
   15.4993   12.7058   26.4933 C   0  0  1  0  0  0  0  0  0  0  0  0
   15.0625   13.1285   27.8649 C   0  0  0  0  0  0  0  0  0  0  0  0
   15.3496   12.0210   28.8826 C   0  0  0  0  0  0  0  0  0  0  0  0
   16.2883   11.1039   28.2085 C   0  0  2  0  0  0  0  0  0  0  0  0
   17.5695   11.5634   27.5904 C   0  0  0  0  0  0  0  0  0  0  0  0
   16.2990   11.4533   26.7522 C   0  0  2  0  0  0  0  0  0  0  0  0
   16.1052   10.3459   25.8228 C   0  0  0  0  0  0  0  0  0  0  0  0
   15.9167   10.8791   24.5349 O   0  0  0  0  0  0  0  0  0  0  0  0
   12.4288   13.1796   24.0185 C   0  0  0  0  0  0  0  0  0  0  0  0
   11.6622   14.2773   23.2719 C   0  0  0  0  0  0  0  0  0  0  0  0
   10.3703   14.7841   23.9351 C   0  0  0  0  0  0  0  0  0  0  0  0
    9.2081   13.8677   24.2593 C   0  0  0  0  0  0  0  0  0  0  0  0
    8.1440   14.4675   24.9493 C   0  0  0  0  0  0  0  0  0  0  0  0
    7.0467   13.7250   25.3722 C   0  0  0  0  0  0  0  0  0  0  0  0
    6.9803   12.3663   25.0956 C   0  0  0  0  0  0  0  0  0  0  0  0
    8.0148   11.7482   24.4053 C   0  0  0  0  0  0  0  0  0  0  0  0
    9.1441   12.4840   24.0121 C   0  0  0  0  0  0  0  0  0  0  0  0
   10.3429   11.7360   23.5083 C   0  0  0  0  0  0  0  0  0  0  0  0
   11.4717   12.1240   24.4470 C   0  0  0  0  0  0  0  0  0  0  0  0
  1  2  2  0
  2  3  1  0
  4  3  1  6
  4  5  1  0
  5  6  1  0
  7  6  1  1
  7  8  1  0
  8  9  1  0
  9 10  1  6
 10 11  1  0
  2 12  1  0
 12 13  1  0
 13 14  1  0
 14 15  1  0
 15 16  2  0
 16 17  1  0
 17 18  2  0
 18 19  1  0
 19 20  2  0
 20 21  1  0
 21 22  1  0
  9  4  1  0
 22 12  1  0
  9  7  1  0
 20 15  1  0
M  END
>  <energy_score>  (899) 
-11.378484

>  <inchikey>  (899) 
None

>  <smiles>  (899) 
None

>  <ref_pdb>  (899) 
A3371a

>  <alias>  (899) 
None

>  <HIPPO Pose ID>  (899) 
499674

>  <name>  (899) 
P499674

>  <HIPPO Compound ID>  (899) 
308727

>  <ref_mols>  (899) 
A1778a,A3371a

>  <distance_score>  (899) 
1.927155

>  <inspiration_score>  (899) 
None

$$$$
P499675
     RDKit          3D

 22 25  0  0  0  0  0  0  0  0999 V2000
   13.3497   14.3521   25.8963 O   0  0  0  0  0  0  0  0  0  0  0  0
   13.4012   13.3792   25.2614 C   0  0  0  0  0  0  0  0  0  0  0  0
   14.2673   12.1056   25.4447 N   0  0  0  0  0  0  0  0  0  0  0  0
   15.3288   11.8090   26.4078 C   0  0  2  0  0  0  0  0  0  0  0  0
   14.8734   11.5926   27.8816 C   0  0  0  0  0  0  0  0  0  0  0  0
   16.0072   11.7645   28.9418 C   0  0  0  0  0  0  0  0  0  0  0  0
   16.7783   13.1061   28.8044 C   0  0  0  0  0  0  0  0  0  0  0  0
   16.2638   13.7572   27.5733 C   0  0  1  0  0  0  0  0  0  0  0  0
   16.8293   14.1936   26.2958 C   0  0  1  0  0  0  0  0  0  0  0  0
   18.1629   14.5511   26.2890 F   0  0  0  0  0  0  0  0  0  0  0  0
   16.4838   12.7456   26.4481 C   0  0  2  0  0  0  0  0  0  0  0  0
   12.4024   13.1842   24.0055 C   0  0  0  0  0  0  0  0  0  0  0  0
   11.6463   14.4570   23.5949 C   0  0  0  0  0  0  0  0  0  0  0  0
   10.4125   14.3751   22.6961 C   0  0  0  0  0  0  0  0  0  0  0  0
    9.2228   13.8518   23.4722 C   0  0  0  0  0  0  0  0  0  0  0  0
    8.2678   14.7182   24.0025 C   0  0  0  0  0  0  0  0  0  0  0  0
    7.2132   14.2213   24.7706 C   0  0  0  0  0  0  0  0  0  0  0  0
    7.0914   12.8532   25.0036 C   0  0  0  0  0  0  0  0  0  0  0  0
    8.0481   11.9812   24.5039 C   0  0  0  0  0  0  0  0  0  0  0  0
    9.1281   12.4865   23.7715 C   0  0  0  0  0  0  0  0  0  0  0  0
   10.3231   11.6385   23.4908 C   0  0  0  0  0  0  0  0  0  0  0  0
   11.4090   12.1460   24.4407 C   0  0  0  0  0  0  0  0  0  0  0  0
  1  2  2  0
  2  3  1  0
  4  3  1  6
  4  5  1  0
  5  6  1  0
  6  7  1  0
  8  7  1  1
  8  9  1  0
  9 10  1  1
  9 11  1  0
  2 12  1  0
 12 13  1  0
 13 14  1  0
 14 15  1  0
 15 16  2  0
 16 17  1  0
 17 18  2  0
 18 19  1  0
 19 20  2  0
 20 21  1  0
 21 22  1  0
 11  4  1  6
 22 12  1  0
 11  8  1  0
 20 15  1  0
M  END
>  <energy_score>  (900) 
-5.110874

>  <inchikey>  (900) 
None

>  <smiles>  (900) 
None

>  <ref_pdb>  (900) 
A3371a

>  <alias>  (900) 
None

>  <HIPPO Pose ID>  (900) 
499675

>  <name>  (900) 
P499675

>  <HIPPO Compound ID>  (900) 
308750

>  <ref_mols>  (900) 
A1778a,A3371a

>  <distance_score>  (900) 
1.763185

>  <inspiration_score>  (900) 
None

$$$$
P499678
     RDKit          3D

 23 24  0  0  0  0  0  0  0  0999 V2000
    6.7266   14.7157   23.4718 C   0  0  0  0  0  0  0  0  0  0  0  0
    7.9151   15.5949   23.9205 C   0  0  0  0  0  0  0  0  0  0  0  0
    7.2882   16.7478   24.7063 C   0  0  0  0  0  0  0  0  0  0  0  0
    8.9057   14.9277   24.7533 N   0  0  0  0  0  0  0  0  0  0  0  0
    8.7603   14.2315   26.1125 C   0  0  0  0  0  0  0  0  0  0  0  0
    7.8431   14.1458   26.8206 O   0  0  0  0  0  0  0  0  0  0  0  0
   10.1428   13.5452   26.2989 C   0  0  0  0  0  0  0  0  0  0  0  0
   10.1537   12.1598   25.9683 O   0  0  0  0  0  0  0  0  0  0  0  0
   10.1261   11.8330   24.5735 C   0  0  1  0  0  0  0  0  0  0  0  0
   10.0982   10.3159   24.4688 C   0  0  0  0  0  0  0  0  0  0  0  0
    8.7115    9.7550   24.6907 C   0  0  0  0  0  0  0  0  0  0  0  0
    7.6732   10.7372   25.1630 C   0  0  0  0  0  0  0  0  0  0  0  0
    6.7704   10.4676   25.9415 O   0  0  0  0  0  0  0  0  0  0  0  0
    7.7345   11.9220   24.5062 N   0  0  0  0  0  0  0  0  0  0  0  0
    8.8751   12.2696   23.8375 C   0  0  0  0  0  0  0  0  0  0  0  0
    8.9069   12.8121   22.7460 O   0  0  0  0  0  0  0  0  0  0  0  0
    8.8188   15.9280   22.6817 C   0  0  0  0  0  0  0  0  0  0  0  0
   10.1820   15.8806   22.9140 N   0  0  0  0  0  0  0  0  0  0  0  0
   10.9944   15.6486   21.8528 C   0  0  0  0  0  0  0  0  0  0  0  0
   10.5127   15.4435   20.5898 C   0  0  0  0  0  0  0  0  0  0  0  0
   11.5302   14.9190   19.1179 Br  0  0  0  0  0  0  0  0  0  0  0  0
    9.1604   15.5789   20.4561 C   0  0  0  0  0  0  0  0  0  0  0  0
    8.2865   15.8204   21.4611 N   0  0  0  0  0  0  0  0  0  0  0  0
  1  2  1  0
  2  3  1  0
  2  4  1  0
  4  5  1  0
  5  6  2  0
  5  7  1  0
  7  8  1  0
  9  8  1  1
  9 10  1  0
 10 11  1  0
 11 12  1  0
 12 13  2  0
 12 14  1  0
 14 15  1  0
 15 16  2  0
  2 17  1  0
 17 18  2  0
 18 19  1  0
 19 20  2  0
 20 21  1  0
 20 22  1  0
 22 23  2  0
 15  9  1  0
 23 17  1  0
M  END
>  <energy_score>  (901) 
-14.400535

>  <inchikey>  (901) 
None

>  <smiles>  (901) 
None

>  <ref_pdb>  (901) 
A4445a

>  <alias>  (901) 
None

>  <HIPPO Pose ID>  (901) 
499678

>  <name>  (901) 
P499678

>  <HIPPO Compound ID>  (901) 
310126

>  <ref_mols>  (901) 
A4445a,A1068a

>  <distance_score>  (901) 
1.675957

>  <inspiration_score>  (901) 
None

$$$$
P499679
     RDKit          3D

 23 24  0  0  0  0  0  0  0  0999 V2000
   12.2216   14.0974   25.9911 C   0  0  0  0  0  0  0  0  0  0  0  0
   10.8898   13.9690   25.3173 C   0  0  0  0  0  0  0  0  0  0  0  0
   10.1807   15.3090   24.9557 C   0  0  2  0  0  0  0  0  0  0  0  0
    8.7902   15.0182   25.2217 N   0  0  0  0  0  0  0  0  0  0  0  0
    8.0526   14.7841   26.5575 C   0  0  0  0  0  0  0  0  0  0  0  0
    8.4342   14.8657   27.6546 O   0  0  0  0  0  0  0  0  0  0  0  0
    6.6586   14.2920   26.1368 C   0  0  0  0  0  0  0  0  0  0  0  0
    6.7685   13.3548   25.0315 O   0  0  0  0  0  0  0  0  0  0  0  0
    7.7609   12.3239   25.1735 C   0  0  2  0  0  0  0  0  0  0  0  0
    8.5422   12.2535   23.8637 C   0  0  0  0  0  0  0  0  0  0  0  0
    9.5945   11.1766   23.8268 C   0  0  0  0  0  0  0  0  0  0  0  0
    9.1206    9.8661   24.3351 C   0  0  0  0  0  0  0  0  0  0  0  0
    9.7418    8.8353   24.1134 O   0  0  0  0  0  0  0  0  0  0  0  0
    8.0144    9.8853   25.1391 N   0  0  0  0  0  0  0  0  0  0  0  0
    7.2338   10.9472   25.5287 C   0  0  0  0  0  0  0  0  0  0  0  0
    6.2195   10.7622   26.1932 O   0  0  0  0  0  0  0  0  0  0  0  0
   10.3967   15.5506   23.4581 C   0  0  0  0  0  0  0  0  0  0  0  0
   11.6680   15.6166   23.0272 N   0  0  0  0  0  0  0  0  0  0  0  0
   11.8524   15.5370   21.6867 C   0  0  0  0  0  0  0  0  0  0  0  0
   10.8316   15.3727   20.7779 C   0  0  0  0  0  0  0  0  0  0  0  0
   11.1148   15.1010   18.9484 Br  0  0  0  0  0  0  0  0  0  0  0  0
    9.5709   15.3594   21.3132 C   0  0  0  0  0  0  0  0  0  0  0  0
    9.3193   15.4299   22.6402 N   0  0  0  0  0  0  0  0  0  0  0  0
  1  2  1  0
  3  2  1  6
  3  4  1  0
  4  5  1  0
  5  6  2  0
  5  7  1  0
  7  8  1  0
  9  8  1  6
  9 10  1  0
 10 11  1  0
 11 12  1  0
 12 13  2  0
 12 14  1  0
 14 15  1  0
 15 16  2  0
  3 17  1  0
 17 18  2  0
 18 19  1  0
 19 20  2  0
 20 21  1  0
 20 22  1  0
 22 23  2  0
 15  9  1  0
 23 17  1  0
M  END
>  <energy_score>  (902) 
-8.195708

>  <inchikey>  (902) 
None

>  <smiles>  (902) 
None

>  <ref_pdb>  (902) 
A4445a

>  <alias>  (902) 
None

>  <HIPPO Pose ID>  (902) 
499679

>  <name>  (902) 
P499679

>  <HIPPO Compound ID>  (902) 
310128

>  <ref_mols>  (902) 
A4445a,A1068a

>  <distance_score>  (902) 
1.654895

>  <inspiration_score>  (902) 
None

$$$$
P499681
     RDKit          3D

 24 26  0  0  0  0  0  0  0  0999 V2000
    6.7183   10.2170   25.8762 O   0  0  0  0  0  0  0  0  0  0  0  0
    7.7980   10.6813   25.5355 C   0  0  0  0  0  0  0  0  0  0  0  0
    8.0816   12.1206   25.7218 C   0  0  0  0  0  0  0  0  0  0  0  0
    9.5344   12.4514   25.6520 C   0  0  0  0  0  0  0  0  0  0  0  0
   10.1142   11.9923   24.3263 C   0  0  1  0  0  0  0  0  0  0  0  0
   11.5429   12.0663   24.3477 O   0  0  0  0  0  0  0  0  0  0  0  0
   12.1226   13.2806   24.8135 C   0  0  0  0  0  0  0  0  0  0  0  0
   11.5228   14.6333   24.3933 C   0  0  0  0  0  0  0  0  0  0  0  0
   11.4130   15.5154   25.1489 O   0  0  0  0  0  0  0  0  0  0  0  0
   11.0544   14.5069   22.9263 N   0  0  0  0  0  0  0  0  0  0  0  0
   10.2625   15.4106   22.1063 C   0  0  2  0  0  0  0  0  0  0  0  0
    8.8347   15.3288   22.6836 C   0  0  0  0  0  0  0  0  0  0  0  0
    8.6792   15.8067   23.9437 N   0  0  0  0  0  0  0  0  0  0  0  0
    7.6048   15.4085   24.6425 C   0  0  0  0  0  0  0  0  0  0  0  0
    6.6484   14.5772   24.1226 C   0  0  0  0  0  0  0  0  0  0  0  0
    5.2657   13.8562   25.1739 Br  0  0  0  0  0  0  0  0  0  0  0  0
    6.8449   14.1779   22.8242 C   0  0  0  0  0  0  0  0  0  0  0  0
    7.9445   14.4842   22.1110 N   0  0  0  0  0  0  0  0  0  0  0  0
   10.3121   14.9367   20.6815 C   0  0  0  0  0  0  0  0  0  0  0  0
   10.2315   15.8807   19.5114 C   0  0  0  0  0  0  0  0  0  0  0  0
   11.5307   15.2157   19.8535 C   0  0  0  0  0  0  0  0  0  0  0  0
    9.5804   10.5894   23.9481 C   0  0  0  0  0  0  0  0  0  0  0  0
    9.8130   10.0428   22.8764 O   0  0  0  0  0  0  0  0  0  0  0  0
    8.7278    9.9868   24.8262 N   0  0  0  0  0  0  0  0  0  0  0  0
  1  2  2  0
  2  3  1  0
  3  4  1  0
  4  5  1  0
  5  6  1  1
  6  7  1  0
  7  8  1  0
  8  9  2  0
  8 10  1  0
 11 10  1  1
 11 12  1  0
 12 13  2  0
 13 14  1  0
 14 15  2  0
 15 16  1  0
 15 17  1  0
 17 18  2  0
 11 19  1  0
 19 20  1  0
 20 21  1  0
  5 22  1  0
 22 23  2  0
 22 24  1  0
 24  2  1  0
 18 12  1  0
 21 19  1  0
M  END
>  <energy_score>  (903) 
-12.573158

>  <inchikey>  (903) 
None

>  <smiles>  (903) 
None

>  <ref_pdb>  (903) 
A4445a

>  <alias>  (903) 
None

>  <HIPPO Pose ID>  (903) 
499681

>  <name>  (903) 
P499681

>  <HIPPO Compound ID>  (903) 
310131

>  <ref_mols>  (903) 
A4445a,A1068a

>  <distance_score>  (903) 
1.863019

>  <inspiration_score>  (903) 
None

$$$$
P499682
     RDKit          3D

 25 27  0  0  0  0  0  0  0  0999 V2000
    7.1834   10.0956   25.6764 O   0  0  0  0  0  0  0  0  0  0  0  0
    8.1389   10.6886   25.1933 C   0  0  0  0  0  0  0  0  0  0  0  0
    8.1299   12.1796   25.1048 C   0  0  0  0  0  0  0  0  0  0  0  0
    9.4529   12.7082   25.6026 C   0  0  0  0  0  0  0  0  0  0  0  0
   10.5591   12.1734   24.7164 C   0  0  1  0  0  0  0  0  0  0  0  0
   11.8249   12.7090   25.1419 O   0  0  0  0  0  0  0  0  0  0  0  0
   12.0893   14.0753   24.7543 C   0  0  0  0  0  0  0  0  0  0  0  0
   11.6457   14.3261   23.3096 C   0  0  0  0  0  0  0  0  0  0  0  0
   12.2806   13.9989   22.3963 O   0  0  0  0  0  0  0  0  0  0  0  0
   10.2468   14.9514   23.3751 N   0  0  0  0  0  0  0  0  0  0  0  0
    9.2834   15.2218   22.3217 C   0  0  0  0  0  0  0  0  0  0  0  0
    7.9202   15.0973   23.0328 C   0  0  0  0  0  0  0  0  0  0  0  0
    7.9227   15.3876   24.3642 N   0  0  0  0  0  0  0  0  0  0  0  0
    6.7638   15.2190   25.0280 C   0  0  0  0  0  0  0  0  0  0  0  0
    5.6142   14.7453   24.4381 C   0  0  0  0  0  0  0  0  0  0  0  0
    4.0235   14.5155   25.4069 Br  0  0  0  0  0  0  0  0  0  0  0  0
    5.7173   14.4212   23.1067 C   0  0  0  0  0  0  0  0  0  0  0  0
    6.8619   14.5528   22.3969 N   0  0  0  0  0  0  0  0  0  0  0  0
    9.4232   14.1837   21.2210 C   0  0  0  0  0  0  0  0  0  0  0  0
   10.3776   14.7468   20.1678 C   0  0  0  0  0  0  0  0  0  0  0  0
   10.5511   16.2033   20.5058 C   0  0  0  0  0  0  0  0  0  0  0  0
    9.4883   16.5071   21.5407 C   0  0  0  0  0  0  0  0  0  0  0  0
   10.5129   10.6427   24.8231 C   0  0  0  0  0  0  0  0  0  0  0  0
   11.5328    9.9773   25.0060 O   0  0  0  0  0  0  0  0  0  0  0  0
    9.2708   10.0656   24.7373 N   0  0  0  0  0  0  0  0  0  0  0  0
  1  2  2  0
  2  3  1  0
  3  4  1  0
  4  5  1  0
  5  6  1  1
  6  7  1  0
  7  8  1  0
  8  9  2  0
  8 10  1  0
 10 11  1  0
 11 12  1  0
 12 13  2  0
 13 14  1  0
 14 15  2  0
 15 16  1  0
 15 17  1  0
 17 18  2  0
 11 19  1  0
 19 20  1  0
 20 21  1  0
 21 22  1  0
  5 23  1  0
 23 24  2  0
 23 25  1  0
 25  2  1  0
 22 11  1  0
 18 12  1  0
M  END
>  <energy_score>  (904) 
-15.264059

>  <inchikey>  (904) 
None

>  <smiles>  (904) 
None

>  <ref_pdb>  (904) 
A4445a

>  <alias>  (904) 
None

>  <HIPPO Pose ID>  (904) 
499682

>  <name>  (904) 
P499682

>  <HIPPO Compound ID>  (904) 
310134

>  <ref_mols>  (904) 
A4445a,A1068a

>  <distance_score>  (904) 
1.893611

>  <inspiration_score>  (904) 
None

$$$$
P499683
     RDKit          3D

 30 33  0  0  0  0  0  0  0  0999 V2000
    3.2633   11.9398   28.5817 C   0  0  0  0  0  0  0  0  0  0  0  0
    3.7641   13.3073   28.1051 C   0  0  0  0  0  0  0  0  0  0  0  0
    2.8501   13.9120   27.0334 C   0  0  0  0  0  0  0  0  0  0  0  0
    3.8062   14.2613   29.3085 C   0  0  0  0  0  0  0  0  0  0  0  0
    5.1380   13.2340   27.6463 O   0  0  0  0  0  0  0  0  0  0  0  0
    5.4843   12.4839   26.5624 C   0  0  0  0  0  0  0  0  0  0  0  0
    4.7307   11.8314   25.9493 O   0  0  0  0  0  0  0  0  0  0  0  0
    6.9475   12.7150   26.3646 N   0  0  0  0  0  0  0  0  0  0  0  0
    7.8904   12.1197   25.4095 C   0  0  0  0  0  0  0  0  0  0  0  0
    7.8323   10.8082   24.9515 C   0  0  0  0  0  0  0  0  0  0  0  0
    8.8423   10.3855   24.0895 C   0  0  0  0  0  0  0  0  0  0  0  0
    8.9315    8.6573   23.4008 Br  0  0  0  0  0  0  0  0  0  0  0  0
    9.8992   11.2181   23.7459 C   0  0  0  0  0  0  0  0  0  0  0  0
   10.0413   12.4498   24.3497 C   0  0  0  0  0  0  0  0  0  0  0  0
    8.9973   12.9113   25.0953 C   0  0  0  0  0  0  0  0  0  0  0  0
    8.7112   14.2823   25.5277 C   0  0  0  0  0  0  0  0  0  0  0  0
    7.2199   13.9983   25.4021 C   0  0  1  0  0  0  0  0  0  0  0  0
    6.6767   13.9279   23.9324 C   0  0  0  0  0  0  0  0  0  0  0  0
    7.2728   14.9884   23.0106 C   0  0  0  0  0  0  0  0  0  0  0  0
    6.7230   16.0231   22.9132 O   0  0  0  0  0  0  0  0  0  0  0  0
    8.5376   14.4233   22.2420 N   0  0  0  0  0  0  0  0  0  0  0  0
    9.3163   14.9992   21.1229 C   0  0  1  0  0  0  0  0  0  0  0  0
    9.0464   16.4706   21.0532 C   0  0  0  0  0  0  0  0  0  0  0  0
    9.8510   17.2036   22.0757 C   0  0  0  0  0  0  0  0  0  0  0  0
   11.2554   16.7867   22.1644 N   0  0  0  0  0  0  0  0  0  0  0  0
   11.4820   15.9279   23.3331 C   0  0  0  0  0  0  0  0  0  0  0  0
   12.3351   14.7266   22.9781 C   0  0  0  0  0  0  0  0  0  0  0  0
   11.6616   13.9267   21.8500 C   0  0  0  0  0  0  0  0  0  0  0  0
   10.8720   14.8014   20.8889 C   0  0  2  0  0  0  0  0  0  0  0  0
   11.6077   16.1455   20.8969 C   0  0  0  0  0  0  0  0  0  0  0  0
  1  2  1  0
  2  3  1  0
  2  4  1  0
  2  5  1  0
  5  6  1  0
  6  7  2  0
  6  8  1  0
  8  9  1  0
  9 10  2  0
 10 11  1  0
 11 12  1  0
 11 13  2  0
 13 14  1  0
 14 15  2  0
 15 16  1  0
 16 17  1  0
 17 18  1  6
 18 19  1  0
 19 20  2  0
 19 21  1  0
 22 21  1  1
 22 23  1  0
 23 24  1  0
 25 24  1  0
 25 26  1  0
 26 27  1  0
 27 28  1  0
 29 28  1  1
 29 30  1  0
 17  8  1  0
 29 22  1  0
 15  9  1  0
 30 25  1  0
M  END
>  <energy_score>  (905) 
-5.123285

>  <inchikey>  (905) 
None

>  <smiles>  (905) 
None

>  <ref_pdb>  (905) 
A3706b

>  <alias>  (905) 
None

>  <HIPPO Pose ID>  (905) 
499683

>  <name>  (905) 
P499683

>  <HIPPO Compound ID>  (905) 
310712

>  <ref_mols>  (905) 
A3706b,A1778a

>  <distance_score>  (905) 
1.983848

>  <inspiration_score>  (905) 
None

$$$$
P499684
     RDKit          3D

 30 32  0  0  0  0  0  0  0  0999 V2000
    6.4847   16.5288   23.4562 C   0  0  0  0  0  0  0  0  0  0  0  0
    7.9205   16.9634   23.8242 C   0  0  1  0  0  0  0  0  0  0  0  0
    7.9595   17.6023   25.2527 C   0  0  0  0  0  0  0  0  0  0  0  0
    7.9221   16.7559   26.5204 C   0  0  0  0  0  0  0  0  0  0  0  0
    6.9731   15.6911   26.4946 N   0  0  0  0  0  0  0  0  0  0  0  0
    6.7901   14.5739   27.3731 C   0  0  0  0  0  0  0  0  0  0  0  0
    7.3344   14.2890   28.3984 O   0  0  0  0  0  0  0  0  0  0  0  0
    5.7868   13.6238   26.7442 C   0  0  0  0  0  0  0  0  0  0  0  0
    6.4904   12.5759   25.8294 C   0  0  1  0  0  0  0  0  0  0  0  0
    7.7325   13.1646   25.1332 C   0  0  0  0  0  0  0  0  0  0  0  0
    8.2349   11.8812   24.6848 C   0  0  0  0  0  0  0  0  0  0  0  0
    9.2040   11.5960   23.7396 C   0  0  0  0  0  0  0  0  0  0  0  0
    9.4120   10.2696   23.3899 C   0  0  0  0  0  0  0  0  0  0  0  0
    8.6264    9.2744   23.9615 C   0  0  0  0  0  0  0  0  0  0  0  0
    7.6830    9.5926   24.9417 C   0  0  0  0  0  0  0  0  0  0  0  0
    7.5172   10.9096   25.3444 C   0  0  0  0  0  0  0  0  0  0  0  0
    6.8339   11.2027   26.6144 N   0  0  0  0  0  0  0  0  0  0  0  0
    5.6615   10.6482   27.1834 C   0  0  0  0  0  0  0  0  0  0  0  0
    4.8756    9.8610   26.7373 O   0  0  0  0  0  0  0  0  0  0  0  0
    5.5899   11.1068   28.4661 O   0  0  0  0  0  0  0  0  0  0  0  0
    4.5649   10.6554   29.3872 C   0  0  0  0  0  0  0  0  0  0  0  0
    4.8380   11.4391   30.6801 C   0  0  0  0  0  0  0  0  0  0  0  0
    4.7111    9.1594   29.6807 C   0  0  0  0  0  0  0  0  0  0  0  0
    3.1588   11.0089   28.8907 C   0  0  0  0  0  0  0  0  0  0  0  0
    8.9147   15.9092   23.4462 N   0  0  0  0  0  0  0  0  0  0  0  0
    9.0257   15.8685   21.9590 C   0  0  0  0  0  0  0  0  0  0  0  0
   10.0230   14.8325   21.4429 C   0  0  0  0  0  0  0  0  0  0  0  0
   11.3957   14.9923   22.0745 C   0  0  0  0  0  0  0  0  0  0  0  0
   11.2743   15.0669   23.5884 C   0  0  0  0  0  0  0  0  0  0  0  0
   10.2586   16.1313   24.0077 C   0  0  0  0  0  0  0  0  0  0  0  0
  2  1  1  1
  2  3  1  0
  3  4  1  0
  4  5  1  0
  5  6  1  0
  6  7  2  0
  6  8  1  0
  9  8  1  1
  9 10  1  0
 10 11  1  0
 11 12  2  0
 12 13  1  0
 13 14  2  0
 14 15  1  0
 15 16  2  0
 16 17  1  0
 17 18  1  0
 18 19  2  0
 18 20  1  0
 20 21  1  0
 21 22  1  0
 21 23  1  0
 21 24  1  0
  2 25  1  0
 25 26  1  0
 26 27  1  0
 27 28  1  0
 28 29  1  0
 29 30  1  0
 17  9  1  0
 30 25  1  0
 16 11  1  0
M  END
>  <energy_score>  (906) 
-4.329018

>  <inchikey>  (906) 
None

>  <smiles>  (906) 
None

>  <ref_pdb>  (906) 
A3706b

>  <alias>  (906) 
None

>  <HIPPO Pose ID>  (906) 
499684

>  <name>  (906) 
P499684

>  <HIPPO Compound ID>  (906) 
310715

>  <ref_mols>  (906) 
A3706b,A1778a

>  <distance_score>  (906) 
1.944516

>  <inspiration_score>  (906) 
None

$$$$
P499685
     RDKit          3D

 31 33  0  0  0  0  0  0  0  0999 V2000
    5.0533   12.6649   30.5153 C   0  0  0  0  0  0  0  0  0  0  0  0
    4.6255   11.9618   29.2181 C   0  0  0  0  0  0  0  0  0  0  0  0
    4.2093   10.5255   29.5542 C   0  0  0  0  0  0  0  0  0  0  0  0
    3.4812   12.7601   28.5831 C   0  0  0  0  0  0  0  0  0  0  0  0
    5.8108   11.9844   28.3827 O   0  0  0  0  0  0  0  0  0  0  0  0
    5.8024   11.4540   27.1264 C   0  0  0  0  0  0  0  0  0  0  0  0
    4.8429   10.9159   26.6498 O   0  0  0  0  0  0  0  0  0  0  0  0
    7.0888   11.6870   26.5877 N   0  0  0  0  0  0  0  0  0  0  0  0
    7.6942   11.2506   25.3192 C   0  0  0  0  0  0  0  0  0  0  0  0
    7.6039    9.9098   24.9614 C   0  0  0  0  0  0  0  0  0  0  0  0
    8.4695    9.3950   23.9914 C   0  0  0  0  0  0  0  0  0  0  0  0
    9.4278   10.2060   23.3829 C   0  0  0  0  0  0  0  0  0  0  0  0
    9.4983   11.5546   23.7036 C   0  0  0  0  0  0  0  0  0  0  0  0
    8.6238   12.0379   24.6628 C   0  0  0  0  0  0  0  0  0  0  0  0
    8.4628   13.4012   25.1308 C   0  0  0  0  0  0  0  0  0  0  0  0
    7.1367   13.1172   25.8405 C   0  0  1  0  0  0  0  0  0  0  0  0
    5.9050   13.4695   24.9831 C   0  0  0  0  0  0  0  0  0  0  0  0
    5.7984   14.9731   24.8478 C   0  0  0  0  0  0  0  0  0  0  0  0
    5.5125   15.6261   25.8079 O   0  0  0  0  0  0  0  0  0  0  0  0
    6.1699   15.3694   23.5276 N   0  0  0  0  0  0  0  0  0  0  0  0
    6.4083   16.6698   22.9657 C   0  0  0  0  0  0  0  0  0  0  0  0
    7.3871   17.5202   23.7852 C   0  0  1  0  0  0  0  0  0  0  0  0
    6.7458   17.9885   24.9848 O   0  0  0  0  0  0  0  0  0  0  0  0
    8.7016   16.8190   24.1884 C   0  0  0  0  0  0  0  0  0  0  0  0
    9.5928   16.2542   23.1588 N   0  0  0  0  0  0  0  0  0  0  0  0
    9.6622   16.8265   21.8111 C   0  0  0  0  0  0  0  0  0  0  0  0
   10.0278   15.7593   20.7842 C   0  0  0  0  0  0  0  0  0  0  0  0
   11.1124   14.8144   21.2943 C   0  0  0  0  0  0  0  0  0  0  0  0
   11.7964   15.3345   22.5451 C   0  0  0  0  0  0  0  0  0  0  0  0
   10.7729   15.6494   23.6210 C   0  0  0  0  0  0  0  0  0  0  0  0
   11.0041   15.4108   24.8058 O   0  0  0  0  0  0  0  0  0  0  0  0
  1  2  1  0
  2  3  1  0
  2  4  1  0
  2  5  1  0
  5  6  1  0
  6  7  2  0
  6  8  1  0
  8  9  1  0
  9 10  2  0
 10 11  1  0
 11 12  2  0
 12 13  1  0
 13 14  2  0
 14 15  1  0
 15 16  1  0
 16 17  1  6
 17 18  1  0
 18 19  2  0
 18 20  1  0
 20 21  1  0
 21 22  1  0
 22 23  1  1
 22 24  1  0
 24 25  1  0
 25 26  1  0
 26 27  1  0
 27 28  1  0
 28 29  1  0
 29 30  1  0
 30 31  2  0
 16  8  1  0
 30 25  1  0
 14  9  1  0
M  END
>  <energy_score>  (907) 
-6.296613

>  <inchikey>  (907) 
None

>  <smiles>  (907) 
None

>  <ref_pdb>  (907) 
A3706b

>  <alias>  (907) 
None

>  <HIPPO Pose ID>  (907) 
499685

>  <name>  (907) 
P499685

>  <HIPPO Compound ID>  (907) 
310732

>  <ref_mols>  (907) 
A3706b,A1778a

>  <distance_score>  (907) 
1.517178

>  <inspiration_score>  (907) 
None

$$$$
P499686
     RDKit          3D

 31 33  0  0  0  0  0  0  0  0999 V2000
    9.0019   15.3001   21.3896 C   0  0  0  0  0  0  0  0  0  0  0  0
    9.7120   16.3543   22.2432 C   0  0  2  0  0  0  0  0  0  0  0  0
   11.1489   16.5249   21.7122 C   0  0  0  0  0  0  0  0  0  0  0  0
   12.0545   15.3575   22.0626 C   0  0  0  0  0  0  0  0  0  0  0  0
   11.9507   14.9833   23.5358 C   0  0  0  0  0  0  0  0  0  0  0  0
   10.9407   15.8320   24.3168 C   0  0  0  0  0  0  0  0  0  0  0  0
    9.6268   15.9363   23.6604 N   0  0  0  0  0  0  0  0  0  0  0  0
    8.6918   16.7094   24.5163 C   0  0  0  0  0  0  0  0  0  0  0  0
    7.2822   17.0041   23.9553 C   0  0  0  0  0  0  0  0  0  0  0  0
    6.2288   17.2506   25.0527 C   0  0  0  0  0  0  0  0  0  0  0  0
    5.8252   15.9952   25.6590 N   0  0  0  0  0  0  0  0  0  0  0  0
    6.1516   15.4165   26.9301 C   0  0  0  0  0  0  0  0  0  0  0  0
    6.7767   15.8557   27.8514 O   0  0  0  0  0  0  0  0  0  0  0  0
    5.6701   13.9583   27.0068 C   0  0  0  0  0  0  0  0  0  0  0  0
    6.4080   13.0106   26.0009 C   0  0  1  0  0  0  0  0  0  0  0  0
    7.6622   13.6970   25.4854 C   0  0  0  0  0  0  0  0  0  0  0  0
    8.2126   12.5058   24.8976 C   0  0  0  0  0  0  0  0  0  0  0  0
    9.1879   12.4430   23.9286 C   0  0  0  0  0  0  0  0  0  0  0  0
    9.5447   11.2046   23.4663 C   0  0  0  0  0  0  0  0  0  0  0  0
    8.8775   10.0830   23.9466 C   0  0  0  0  0  0  0  0  0  0  0  0
    9.4274    8.4524   23.2339 Br  0  0  0  0  0  0  0  0  0  0  0  0
    7.8777   10.1699   24.9254 C   0  0  0  0  0  0  0  0  0  0  0  0
    7.5514   11.4224   25.4313 C   0  0  0  0  0  0  0  0  0  0  0  0
    6.7812   11.5703   26.6886 N   0  0  0  0  0  0  0  0  0  0  0  0
    5.6116   10.9179   27.1361 C   0  0  0  0  0  0  0  0  0  0  0  0
    4.8912   10.1418   26.5785 O   0  0  0  0  0  0  0  0  0  0  0  0
    5.4540   11.2600   28.4468 O   0  0  0  0  0  0  0  0  0  0  0  0
    4.3979   10.6995   29.2680 C   0  0  0  0  0  0  0  0  0  0  0  0
    4.6181   11.3226   30.6551 C   0  0  0  0  0  0  0  0  0  0  0  0
    4.5301    9.1781   29.3894 C   0  0  0  0  0  0  0  0  0  0  0  0
    3.0171   11.1207   28.7576 C   0  0  0  0  0  0  0  0  0  0  0  0
  2  1  1  6
  2  3  1  0
  3  4  1  0
  4  5  1  0
  5  6  1  0
  6  7  1  0
  7  8  1  0
  8  9  1  0
  9 10  1  0
 10 11  1  0
 11 12  1  0
 12 13  2  0
 12 14  1  0
 15 14  1  1
 15 16  1  0
 16 17  1  0
 17 18  2  0
 18 19  1  0
 19 20  2  0
 20 21  1  0
 20 22  1  0
 22 23  2  0
 23 24  1  0
 24 25  1  0
 25 26  2  0
 25 27  1  0
 27 28  1  0
 28 29  1  0
 28 30  1  0
 28 31  1  0
  7  2  1  0
 24 15  1  0
 23 17  1  0
M  END
>  <energy_score>  (908) 
-2.727267

>  <inchikey>  (908) 
None

>  <smiles>  (908) 
None

>  <ref_pdb>  (908) 
A3706b

>  <alias>  (908) 
None

>  <HIPPO Pose ID>  (908) 
499686

>  <name>  (908) 
P499686

>  <HIPPO Compound ID>  (908) 
310770

>  <ref_mols>  (908) 
A3706b,A1778a

>  <distance_score>  (908) 
1.891715

>  <inspiration_score>  (908) 
None

$$$$
P499687
     RDKit          3D

 23 26  0  0  0  0  0  0  0  0999 V2000
    6.0406   14.1165   26.4388 C   0  0  0  0  0  0  0  0  0  0  0  0
    6.5650   12.8380   25.8887 C   0  0  0  0  0  0  0  0  0  0  0  0
    7.5523   12.5726   24.9598 C   0  0  0  0  0  0  0  0  0  0  0  0
    8.4136   13.4385   24.3334 N   0  0  0  0  0  0  0  0  0  0  0  0
    8.7730   14.7963   24.6365 C   0  0  0  0  0  0  0  0  0  0  0  0
    8.4722   15.4994   25.5634 O   0  0  0  0  0  0  0  0  0  0  0  0
    9.6078   15.4638   23.5042 C   0  0  2  0  0  0  0  0  0  0  0  0
    8.7528   15.8747   22.2860 C   0  0  2  0  0  0  0  0  0  0  0  0
    8.5351   14.6624   21.3993 C   0  0  0  0  0  0  0  0  0  0  0  0
    9.8988   14.1793   20.9133 C   0  0  2  0  0  0  0  0  0  0  0  0
   10.7811   13.7044   22.0656 C   0  0  0  0  0  0  0  0  0  0  0  0
   10.9495   14.8769   23.0210 C   0  0  1  0  0  0  0  0  0  0  0  0
   11.6374   15.9891   22.1751 C   0  0  0  0  0  0  0  0  0  0  0  0
   10.8389   16.3971   21.0028 N   0  0  0  0  0  0  0  0  0  0  0  0
   10.6448   15.2516   20.1200 C   0  0  0  0  0  0  0  0  0  0  0  0
    9.5156   16.8962   21.4095 C   0  0  0  0  0  0  0  0  0  0  0  0
    7.4887   11.1754   24.7629 C   0  0  0  0  0  0  0  0  0  0  0  0
    6.6066   10.5836   25.5698 N   0  0  0  0  0  0  0  0  0  0  0  0
    6.0851   11.6071   26.2752 N   0  0  0  0  0  0  0  0  0  0  0  0
    5.2360   11.3016   27.4065 C   0  0  0  0  0  0  0  0  0  0  0  0
    3.8289   10.9919   26.9878 C   0  0  0  0  0  0  0  0  0  0  0  0
    3.2268   12.1076   26.4959 F   0  0  0  0  0  0  0  0  0  0  0  0
    3.1066   10.6425   28.0861 F   0  0  0  0  0  0  0  0  0  0  0  0
  1  2  1  0
  2  3  2  0
  3  4  1  0
  4  5  1  0
  5  6  2  0
  7  5  1  6
  7  8  1  0
  8  9  1  6
 10  9  1  1
 10 11  1  0
 12 11  1  6
 12 13  1  0
 14 13  1  0
 14 15  1  0
 14 16  1  0
  3 17  1  0
 17 18  2  0
 18 19  1  0
 19 20  1  0
 20 21  1  0
 21 22  1  0
 21 23  1  0
 19  2  1  0
 12  7  1  0
 16  8  1  0
 15 10  1  0
M  END
>  <energy_score>  (909) 
-53.303084

>  <inchikey>  (909) 
None

>  <smiles>  (909) 
None

>  <ref_pdb>  (909) 
A3618a

>  <alias>  (909) 
None

>  <HIPPO Pose ID>  (909) 
499687

>  <name>  (909) 
P499687

>  <HIPPO Compound ID>  (909) 
310875

>  <ref_mols>  (909) 
A2304a,A3618a

>  <distance_score>  (909) 
1.85167

>  <inspiration_score>  (909) 
None

$$$$
P499688
     RDKit          3D

 24 27  0  0  0  0  0  0  0  0999 V2000
    4.1498   11.0400   28.5038 C   0  0  0  0  0  0  0  0  0  0  0  0
    3.9951   11.6415   27.1159 C   0  0  2  0  0  0  0  0  0  0  0  0
    5.2833   11.8242   26.4643 N   0  0  0  0  0  0  0  0  0  0  0  0
    6.0551   12.9562   26.3787 C   0  0  0  0  0  0  0  0  0  0  0  0
    6.8512   12.7509   25.2818 C   0  0  0  0  0  0  0  0  0  0  0  0
    7.5692   13.6892   24.6089 N   0  0  0  0  0  0  0  0  0  0  0  0
    7.9392   13.7865   23.1073 C   0  0  0  0  0  0  0  0  0  0  0  0
    7.6205   13.1187   22.2063 O   0  0  0  0  0  0  0  0  0  0  0  0
    8.9558   14.9419   22.9585 C   0  0  2  0  0  0  0  0  0  0  0  0
    8.9103   15.6076   21.5721 C   0  0  1  0  0  0  0  0  0  0  0  0
    9.8180   16.8170   21.4913 C   0  0  0  0  0  0  0  0  0  0  0  0
   11.2523   16.4027   21.8616 C   0  0  1  0  0  0  0  0  0  0  0  0
   11.3017   15.6676   23.2204 C   0  0  0  0  0  0  0  0  0  0  0  0
   10.3949   14.4472   23.2000 C   0  0  2  0  0  0  0  0  0  0  0  0
   10.9078   13.5763   22.0505 C   0  0  0  0  0  0  0  0  0  0  0  0
   10.8546   14.2931   20.7723 N   0  0  0  0  0  0  0  0  0  0  0  0
   11.7348   15.4493   20.7670 C   0  0  0  0  0  0  0  0  0  0  0  0
    9.4826   14.7068   20.4977 C   0  0  0  0  0  0  0  0  0  0  0  0
    6.6887   11.3916   24.9588 C   0  0  0  0  0  0  0  0  0  0  0  0
    5.7902   10.7962   25.7480 N   0  0  0  0  0  0  0  0  0  0  0  0
    3.1729   12.9152   27.1398 C   0  0  0  0  0  0  0  0  0  0  0  0
    1.9215   12.6766   27.6049 F   0  0  0  0  0  0  0  0  0  0  0  0
    3.7108   13.8603   27.9446 F   0  0  0  0  0  0  0  0  0  0  0  0
    3.0233   13.4556   25.9107 F   0  0  0  0  0  0  0  0  0  0  0  0
  2  1  1  1
  2  3  1  0
  3  4  1  0
  4  5  2  0
  5  6  1  0
  6  7  1  0
  7  8  2  0
  9  7  1  6
  9 10  1  0
 10 11  1  1
 12 11  1  6
 12 13  1  0
 14 13  1  6
 14 15  1  0
 16 15  1  0
 16 17  1  0
 16 18  1  0
  5 19  1  0
 19 20  2  0
  2 21  1  0
 21 22  1  0
 21 23  1  0
 21 24  1  0
 20  3  1  0
 14  9  1  0
 18 10  1  0
 17 12  1  0
M  END
>  <energy_score>  (910) 
-24.674054

>  <inchikey>  (910) 
None

>  <smiles>  (910) 
None

>  <ref_pdb>  (910) 
A3618a

>  <alias>  (910) 
None

>  <HIPPO Pose ID>  (910) 
499688

>  <name>  (910) 
P499688

>  <HIPPO Compound ID>  (910) 
310878

>  <ref_mols>  (910) 
A2304a,A3618a

>  <distance_score>  (910) 
1.903581

>  <inspiration_score>  (910) 
None

$$$$
P499689
     RDKit          3D

 27 29  0  0  0  0  0  0  0  0999 V2000
    7.1918   10.1018   25.9995 O   0  0  0  0  0  0  0  0  0  0  0  0
    7.0374   11.0340   25.2684 C   0  0  0  0  0  0  0  0  0  0  0  0
    8.1392   11.3203   24.2611 C   0  0  0  0  0  0  0  0  0  0  0  0
    8.6968   12.7407   24.3062 C   0  0  0  0  0  0  0  0  0  0  0  0
    8.1570   13.5353   23.1263 C   0  0  0  0  0  0  0  0  0  0  0  0
    7.0665   13.2828   22.6855 O   0  0  0  0  0  0  0  0  0  0  0  0
    9.1170   14.4995   22.7203 N   0  0  0  0  0  0  0  0  0  0  0  0
   10.0576   13.8977   21.7038 C   0  0  0  0  0  0  0  0  0  0  0  0
   11.4949   14.3761   21.8450 C   0  0  0  0  0  0  0  0  0  0  0  0
   11.5077   15.8784   21.9236 C   0  0  0  0  0  0  0  0  0  0  0  0
   12.6642   16.3988   21.3068 O   0  0  0  0  0  0  0  0  0  0  0  0
   10.2725   16.3861   21.2225 C   0  0  0  0  0  0  0  0  0  0  0  0
    9.0371   15.5973   21.6762 C   0  0  0  0  0  0  0  0  0  0  0  0
    6.0054   12.0123   25.2141 N   0  0  0  0  0  0  0  0  0  0  0  0
    4.9387   12.2307   26.0304 C   0  0  0  0  0  0  0  0  0  0  0  0
    4.4687   11.4571   27.1106 C   0  0  0  0  0  0  0  0  0  0  0  0
    3.4169   12.0235   27.7124 N   0  0  0  0  0  0  0  0  0  0  0  0
    3.1688   13.1103   26.9578 N   0  0  0  0  0  0  0  0  0  0  0  0
    2.0395   13.9371   27.2890 C   0  0  0  0  0  0  0  0  0  0  0  0
    0.7371   13.2715   26.9471 C   0  0  0  0  0  0  0  0  0  0  0  0
   -0.2683   14.1832   27.0430 F   0  0  0  0  0  0  0  0  0  0  0  0
    0.6938   12.8037   25.6770 F   0  0  0  0  0  0  0  0  0  0  0  0
    0.4071   12.2597   27.7740 F   0  0  0  0  0  0  0  0  0  0  0  0
    4.0988   13.3132   25.9772 C   0  0  0  0  0  0  0  0  0  0  0  0
    4.1993   14.4881   24.9690 C   0  0  0  0  0  0  0  0  0  0  0  0
    5.4946   15.2595   24.8864 C   0  0  0  0  0  0  0  0  0  0  0  0
    4.2775   15.9072   25.4696 C   0  0  0  0  0  0  0  0  0  0  0  0
  1  2  2  0
  2  3  1  0
  3  4  1  0
  4  5  1  0
  5  6  2  0
  5  7  1  0
  7  8  1  0
  8  9  1  0
  9 10  1  0
 10 11  1  0
 10 12  1  0
 12 13  1  0
  2 14  1  0
 14 15  1  0
 15 16  1  0
 16 17  2  0
 17 18  1  0
 18 19  1  0
 19 20  1  0
 20 21  1  0
 20 22  1  0
 20 23  1  0
 18 24  1  0
 24 25  1  0
 25 26  1  0
 26 27  1  0
 13  7  1  0
 24 15  2  0
 27 25  1  0
M  END
>  <energy_score>  (911) 
-5.677098

>  <inchikey>  (911) 
None

>  <smiles>  (911) 
None

>  <ref_pdb>  (911) 
A3618a

>  <alias>  (911) 
None

>  <HIPPO Pose ID>  (911) 
499689

>  <name>  (911) 
P499689

>  <HIPPO Compound ID>  (911) 
310898

>  <ref_mols>  (911) 
A2304a,A3618a

>  <distance_score>  (911) 
1.982191

>  <inspiration_score>  (911) 
None

$$$$
P499690
     RDKit          3D

 28 31  0  0  0  0  0  0  0  0999 V2000
   10.0574   16.7752   20.0669 O   0  0  0  0  0  0  0  0  0  0  0  0
   10.1186   15.5949   20.3723 C   0  0  0  0  0  0  0  0  0  0  0  0
   10.6080   14.6910   19.4914 O   0  0  0  0  0  0  0  0  0  0  0  0
    9.7372   15.0233   21.7624 C   0  0  1  0  0  0  0  0  0  0  0  0
    8.3892   14.3150   21.7388 N   0  0  0  0  0  0  0  0  0  0  0  0
    7.2992   15.2208   21.3534 C   0  0  0  0  0  0  0  0  0  0  0  0
    6.2475   15.7031   22.3520 C   0  0  0  0  0  0  0  0  0  0  0  0
    5.6985   14.5380   23.1389 C   0  0  0  0  0  0  0  0  0  0  0  0
    6.8787   13.9413   23.8699 C   0  0  1  0  0  0  0  0  0  0  0  0
    6.3726   12.6238   25.0233 S   0  0  0  0  0  0  0  0  0  0  0  0
    5.1434   12.9385   25.7128 O   0  0  0  0  0  0  0  0  0  0  0  0
    6.5157   11.3327   24.3900 O   0  0  0  0  0  0  0  0  0  0  0  0
    7.5825   12.7937   26.1927 N   0  0  0  0  0  0  0  0  0  0  0  0
    7.6644   14.1433   26.8611 C   0  0  0  0  0  0  0  0  0  0  0  0
    9.1073   14.6510   26.6458 C   0  0  0  0  0  0  0  0  0  0  0  0
    9.7619   13.5103   25.9321 C   0  0  0  0  0  0  0  0  0  0  0  0
   11.0760   13.3881   25.5538 C   0  0  0  0  0  0  0  0  0  0  0  0
   11.4576   12.1977   24.9439 C   0  0  0  0  0  0  0  0  0  0  0  0
   10.5260   11.1523   24.7005 C   0  0  0  0  0  0  0  0  0  0  0  0
    9.2259   11.2687   25.1265 C   0  0  0  0  0  0  0  0  0  0  0  0
    8.8713   12.4610   25.7182 C   0  0  0  0  0  0  0  0  0  0  0  0
    7.9863   13.4766   22.8838 C   0  0  0  0  0  0  0  0  0  0  0  0
   10.9875   14.2288   22.2115 C   0  0  0  0  0  0  0  0  0  0  0  0
   12.0290   15.2700   22.6321 C   0  0  0  0  0  0  0  0  0  0  0  0
   11.2569   16.5412   22.9221 C   0  0  0  0  0  0  0  0  0  0  0  0
    9.8115   16.1419   22.7926 C   0  0  0  0  0  0  0  0  0  0  0  0
    9.4465   15.6093   23.9925 F   0  0  0  0  0  0  0  0  0  0  0  0
    8.9784   17.1626   22.5843 F   0  0  0  0  0  0  0  0  0  0  0  0
  1  2  2  0
  2  3  1  0
  2  4  1  0
  4  5  1  6
  5  6  1  0
  6  7  1  0
  7  8  1  0
  8  9  1  0
  9 10  1  6
 10 11  2  0
 10 12  2  0
 10 13  1  0
 13 14  1  0
 14 15  1  0
 15 16  1  0
 16 17  2  0
 17 18  1  0
 18 19  2  0
 19 20  1  0
 20 21  2  0
  9 22  1  0
  4 23  1  0
 23 24  1  0
 24 25  1  0
 25 26  1  0
 26 27  1  0
 26 28  1  0
 26  4  1  0
 22  5  1  0
 21 13  1  0
 21 16  1  0
M  END
>  <energy_score>  (912) 
-47.712939

>  <inchikey>  (912) 
None

>  <smiles>  (912) 
None

>  <ref_pdb>  (912) 
A3868a

>  <alias>  (912) 
None

>  <HIPPO Pose ID>  (912) 
499690

>  <name>  (912) 
P499690

>  <HIPPO Compound ID>  (912) 
311034

>  <ref_mols>  (912) 
A1778a,A3868a

>  <distance_score>  (912) 
1.819903

>  <inspiration_score>  (912) 
None

$$$$
P499691
     RDKit          3D

 28 31  0  0  0  0  0  0  0  0999 V2000
    9.7294   16.0769   18.2898 N   0  0  0  0  0  0  0  0  0  0  0  0
    9.9570   15.6499   19.3405 C   0  0  0  0  0  0  0  0  0  0  0  0
   10.5241   15.2097   20.5994 C   0  0  1  0  0  0  0  0  0  0  0  0
   11.5540   16.2861   20.9277 C   0  0  0  0  0  0  0  0  0  0  0  0
   12.2914   15.9862   22.1898 C   0  0  0  0  0  0  0  0  0  0  0  0
   11.2857   16.0846   23.2900 C   0  0  0  0  0  0  0  0  0  0  0  0
   10.2928   14.9741   23.1016 C   0  0  0  0  0  0  0  0  0  0  0  0
   10.9703   13.8231   23.3822 F   0  0  0  0  0  0  0  0  0  0  0  0
    9.3729   15.1487   24.0766 F   0  0  0  0  0  0  0  0  0  0  0  0
    9.5770   14.7422   21.7603 C   0  0  1  0  0  0  0  0  0  0  0  0
    8.0650   14.8586   21.8360 N   0  0  0  0  0  0  0  0  0  0  0  0
    7.5977   16.2328   22.0800 C   0  0  0  0  0  0  0  0  0  0  0  0
    6.0611   16.2640   22.2433 C   0  0  0  0  0  0  0  0  0  0  0  0
    5.5022   15.3690   23.3647 C   0  0  0  0  0  0  0  0  0  0  0  0
    6.6347   14.5751   23.9927 C   0  0  1  0  0  0  0  0  0  0  0  0
    6.1348   13.5631   25.4075 S   0  0  0  0  0  0  0  0  0  0  0  0
    5.4762   12.3354   25.0327 O   0  0  0  0  0  0  0  0  0  0  0  0
    5.4971   14.4562   26.3589 O   0  0  0  0  0  0  0  0  0  0  0  0
    7.6032   13.1428   26.1082 N   0  0  0  0  0  0  0  0  0  0  0  0
    8.5296   14.2594   26.4781 C   0  0  0  0  0  0  0  0  0  0  0  0
    9.9352   13.7680   26.0984 C   0  0  0  0  0  0  0  0  0  0  0  0
    9.6707   12.4681   25.4043 C   0  0  0  0  0  0  0  0  0  0  0  0
   10.5518   11.6211   24.7722 C   0  0  0  0  0  0  0  0  0  0  0  0
   10.0944   10.3763   24.2994 C   0  0  0  0  0  0  0  0  0  0  0  0
    8.7654   10.0010   24.4228 C   0  0  0  0  0  0  0  0  0  0  0  0
    7.8838   10.8647   25.0460 C   0  0  0  0  0  0  0  0  0  0  0  0
    8.3437   12.1025   25.4860 C   0  0  0  0  0  0  0  0  0  0  0  0
    7.4484   13.9110   22.8625 C   0  0  0  0  0  0  0  0  0  0  0  0
  1  2  3  0
  3  2  1  6
  3  4  1  0
  4  5  1  0
  5  6  1  0
  6  7  1  0
  7  8  1  0
  7  9  1  0
  7 10  1  0
 10 11  1  1
 11 12  1  0
 12 13  1  0
 13 14  1  0
 14 15  1  0
 15 16  1  1
 16 17  2  0
 16 18  2  0
 16 19  1  0
 19 20  1  0
 20 21  1  0
 21 22  1  0
 22 23  2  0
 23 24  1  0
 24 25  2  0
 25 26  1  0
 26 27  2  0
 15 28  1  0
 10  3  1  0
 28 11  1  0
 27 19  1  0
 27 22  1  0
M  END
>  <energy_score>  (913) 
-2.516081

>  <inchikey>  (913) 
None

>  <smiles>  (913) 
None

>  <ref_pdb>  (913) 
A3868a

>  <alias>  (913) 
None

>  <HIPPO Pose ID>  (913) 
499691

>  <name>  (913) 
P499691

>  <HIPPO Compound ID>  (913) 
311035

>  <ref_mols>  (913) 
A1778a,A3868a

>  <distance_score>  (913) 
1.437391

>  <inspiration_score>  (913) 
None

$$$$
P499698
     RDKit          3D

 28 31  0  0  0  0  0  0  0  0999 V2000
    9.9260   16.9094   19.7800 O   0  0  0  0  0  0  0  0  0  0  0  0
   10.1869   15.7264   19.7654 C   0  0  0  0  0  0  0  0  0  0  0  0
   10.5835   15.1005   18.6323 O   0  0  0  0  0  0  0  0  0  0  0  0
   10.2354   14.7733   20.9298 C   0  0  1  0  0  0  0  0  0  0  0  0
   11.6585   14.9056   21.5003 C   0  0  0  0  0  0  0  0  0  0  0  0
   11.5483   15.9148   22.6428 C   0  0  0  0  0  0  0  0  0  0  0  0
   10.0564   16.0699   22.8988 C   0  0  0  0  0  0  0  0  0  0  0  0
    9.7971   16.1243   24.2206 F   0  0  0  0  0  0  0  0  0  0  0  0
    9.6182   17.2130   22.3761 F   0  0  0  0  0  0  0  0  0  0  0  0
    9.3744   14.8896   22.1933 C   0  0  1  0  0  0  0  0  0  0  0  0
    7.8724   14.6888   22.1461 N   0  0  0  0  0  0  0  0  0  0  0  0
    7.1056   15.9416   22.0817 C   0  0  0  0  0  0  0  0  0  0  0  0
    6.7273   16.5522   23.4297 C   0  0  0  0  0  0  0  0  0  0  0  0
    5.8761   15.6306   24.3031 C   0  0  0  0  0  0  0  0  0  0  0  0
    6.1327   14.1303   24.0811 C   0  0  2  0  0  0  0  0  0  0  0  0
    6.0511   13.1801   25.7035 S   0  0  0  0  0  0  0  0  0  0  0  0
    5.4324   11.8834   25.5052 O   0  0  0  0  0  0  0  0  0  0  0  0
    5.4945   14.0529   26.7215 O   0  0  0  0  0  0  0  0  0  0  0  0
    7.6509   12.9002   26.1884 N   0  0  0  0  0  0  0  0  0  0  0  0
    8.5437   14.1130   26.3299 C   0  0  0  0  0  0  0  0  0  0  0  0
    9.9144   13.6690   25.7735 C   0  0  0  0  0  0  0  0  0  0  0  0
    9.6022   12.3703   25.1087 C   0  0  0  0  0  0  0  0  0  0  0  0
   10.2962   11.7213   24.1205 C   0  0  0  0  0  0  0  0  0  0  0  0
    9.8000   10.5023   23.6327 C   0  0  0  0  0  0  0  0  0  0  0  0
    8.6624    9.9180   24.1725 C   0  0  0  0  0  0  0  0  0  0  0  0
    7.9287   10.6217   25.1110 C   0  0  0  0  0  0  0  0  0  0  0  0
    8.3670   11.8834   25.4853 C   0  0  0  0  0  0  0  0  0  0  0  0
    7.4361   13.8732   23.3104 C   0  0  0  0  0  0  0  0  0  0  0  0
  1  2  2  0
  2  3  1  0
  4  2  1  6
  4  5  1  0
  5  6  1  0
  6  7  1  0
  7  8  1  0
  7  9  1  0
  7 10  1  0
 10 11  1  6
 11 12  1  0
 12 13  1  0
 13 14  1  0
 14 15  1  0
 15 16  1  1
 16 17  2  0
 16 18  2  0
 16 19  1  0
 19 20  1  0
 20 21  1  0
 21 22  1  0
 22 23  2  0
 23 24  1  0
 24 25  2  0
 25 26  1  0
 26 27  2  0
 15 28  1  0
 10  4  1  0
 28 11  1  0
 27 19  1  0
 27 22  1  0
M  END
>  <energy_score>  (914) 
-27.135639

>  <inchikey>  (914) 
None

>  <smiles>  (914) 
None

>  <ref_pdb>  (914) 
A3868a

>  <alias>  (914) 
None

>  <HIPPO Pose ID>  (914) 
499698

>  <name>  (914) 
P499698

>  <HIPPO Compound ID>  (914) 
311036

>  <ref_mols>  (914) 
A1778a,A3868a

>  <distance_score>  (914) 
1.381714

>  <inspiration_score>  (914) 
None

$$$$
P499703
     RDKit          3D

 29 32  0  0  0  0  0  0  0  0999 V2000
   11.1646   15.0425   18.4733 C   0  0  0  0  0  0  0  0  0  0  0  0
   10.0646   15.9097   18.7371 O   0  0  0  0  0  0  0  0  0  0  0  0
    9.9431   16.3928   19.9865 C   0  0  0  0  0  0  0  0  0  0  0  0
   10.0159   17.5928   20.2165 O   0  0  0  0  0  0  0  0  0  0  0  0
    9.7017   15.3708   21.0805 C   0  0  1  0  0  0  0  0  0  0  0  0
   11.0554   15.2937   21.8307 C   0  0  0  0  0  0  0  0  0  0  0  0
   10.9372   16.3641   22.8957 C   0  0  0  0  0  0  0  0  0  0  0  0
    9.5105   16.1594   23.3216 C   0  0  0  0  0  0  0  0  0  0  0  0
    9.0453   17.0493   24.2017 F   0  0  0  0  0  0  0  0  0  0  0  0
    9.5334   14.9871   23.9720 F   0  0  0  0  0  0  0  0  0  0  0  0
    8.6342   15.9384   22.0904 C   0  0  2  0  0  0  0  0  0  0  0  0
    7.3337   15.1509   22.2807 N   0  0  0  0  0  0  0  0  0  0  0  0
    6.2405   16.1108   22.6023 C   0  0  0  0  0  0  0  0  0  0  0  0
    4.9593   15.4106   23.0628 C   0  0  0  0  0  0  0  0  0  0  0  0
    5.1595   14.6911   24.3945 C   0  0  0  0  0  0  0  0  0  0  0  0
    6.6252   14.2836   24.6035 C   0  0  1  0  0  0  0  0  0  0  0  0
    6.7175   13.0152   25.9146 S   0  0  0  0  0  0  0  0  0  0  0  0
    5.9380   11.8438   25.5666 O   0  0  0  0  0  0  0  0  0  0  0  0
    6.4261   13.7055   27.1604 O   0  0  0  0  0  0  0  0  0  0  0  0
    8.3453   12.5672   26.0453 N   0  0  0  0  0  0  0  0  0  0  0  0
    9.3697   13.6812   26.0673 C   0  0  0  0  0  0  0  0  0  0  0  0
   10.5364   13.1661   25.2125 C   0  0  0  0  0  0  0  0  0  0  0  0
    9.8787   12.0758   24.4517 C   0  0  0  0  0  0  0  0  0  0  0  0
   10.1522   11.5526   23.2271 C   0  0  0  0  0  0  0  0  0  0  0  0
    9.6228   10.3002   22.8993 C   0  0  0  0  0  0  0  0  0  0  0  0
    8.7114    9.6665   23.7333 C   0  0  0  0  0  0  0  0  0  0  0  0
    8.2281   10.3551   24.8304 C   0  0  0  0  0  0  0  0  0  0  0  0
    8.7859   11.5870   25.1219 C   0  0  0  0  0  0  0  0  0  0  0  0
    7.2815   13.9914   23.2315 C   0  0  0  0  0  0  0  0  0  0  0  0
  1  2  1  0
  2  3  1  0
  3  4  2  0
  5  3  1  6
  5  6  1  0
  6  7  1  0
  7  8  1  0
  8  9  1  0
  8 10  1  0
  8 11  1  0
 11 12  1  1
 12 13  1  0
 13 14  1  0
 14 15  1  0
 15 16  1  0
 16 17  1  1
 17 18  2  0
 17 19  2  0
 17 20  1  0
 20 21  1  0
 21 22  1  0
 22 23  1  0
 23 24  2  0
 24 25  1  0
 25 26  2  0
 26 27  1  0
 27 28  2  0
 16 29  1  0
 11  5  1  0
 29 12  1  0
 28 20  1  0
 28 23  1  0
M  END
>  <energy_score>  (915) 
-26.04436

>  <inchikey>  (915) 
None

>  <smiles>  (915) 
None

>  <ref_pdb>  (915) 
A3868a

>  <alias>  (915) 
None

>  <HIPPO Pose ID>  (915) 
499703

>  <name>  (915) 
P499703

>  <HIPPO Compound ID>  (915) 
311039

>  <ref_mols>  (915) 
A1778a,A3868a

>  <distance_score>  (915) 
1.436166

>  <inspiration_score>  (915) 
None

$$$$
P499710
     RDKit          3D

 22 24  0  0  0  0  0  0  0  0999 V2000
    4.3572   13.8103   26.6133 C   0  0  0  0  0  0  0  0  0  0  0  0
    5.4994   13.0289   26.0832 C   0  0  0  0  0  0  0  0  0  0  0  0
    6.0742   13.2906   24.8764 N   0  0  0  0  0  0  0  0  0  0  0  0
    7.2720   12.6254   24.8240 C   0  0  0  0  0  0  0  0  0  0  0  0
    8.2490   13.0560   23.8402 C   0  0  0  0  0  0  0  0  0  0  0  0
    7.9147   13.7171   22.8579 O   0  0  0  0  0  0  0  0  0  0  0  0
    9.5838   12.8094   24.0610 N   0  0  0  0  0  0  0  0  0  0  0  0
   10.3674   13.7311   24.8567 C   0  0  0  0  0  0  0  0  0  0  0  0
   11.4715   13.0776   25.6954 C   0  0  0  0  0  0  0  0  0  0  0  0
   12.2789   12.0246   24.9446 C   0  0  0  0  0  0  0  0  0  0  0  0
   11.1725   11.0274   24.4625 C   0  0  0  0  0  0  0  0  0  0  0  0
   10.1889   11.6375   23.4982 C   0  0  0  0  0  0  0  0  0  0  0  0
   13.1088   12.8116   23.9354 C   0  0  0  0  0  0  0  0  0  0  0  0
   14.4840   12.7818   24.6169 C   0  0  0  0  0  0  0  0  0  0  0  0
   15.5986   12.7288   24.1585 O   0  0  0  0  0  0  0  0  0  0  0  0
   14.3727   12.4384   25.9174 N   0  0  0  0  0  0  0  0  0  0  0  0
   13.4365   11.4133   25.8005 C   0  0  2  0  0  0  0  0  0  0  0  0
   14.1798   10.2092   25.1489 C   0  0  0  0  0  0  0  0  0  0  0  0
   13.3405    9.0961   24.9425 O   0  0  0  0  0  0  0  0  0  0  0  0
    7.3160   11.6954   25.7729 N   0  0  0  0  0  0  0  0  0  0  0  0
    6.1580   11.9060   26.5204 C   0  0  0  0  0  0  0  0  0  0  0  0
    5.6157   10.9915   27.8547 Cl  0  0  0  0  0  0  0  0  0  0  0  0
  1  2  1  0
  2  3  1  0
  3  4  1  0
  4  5  1  0
  5  6  2  0
  5  7  1  0
  7  8  1  0
  8  9  1  0
  9 10  1  0
 10 11  1  0
 11 12  1  0
 10 13  1  0
 13 14  1  0
 14 15  2  0
 14 16  1  0
 16 17  1  0
 17 18  1  6
 18 19  1  0
  4 20  2  0
 20 21  1  0
 21 22  1  0
 21  2  2  0
 12  7  1  0
 17 10  1  0
M  END
>  <energy_score>  (916) 
-12.484865

>  <inchikey>  (916) 
None

>  <smiles>  (916) 
None

>  <ref_pdb>  (916) 
A0875a

>  <alias>  (916) 
None

>  <HIPPO Pose ID>  (916) 
499710

>  <name>  (916) 
P499710

>  <HIPPO Compound ID>  (916) 
311411

>  <ref_mols>  (916) 
A1209a,A0875a

>  <distance_score>  (916) 
1.95203

>  <inspiration_score>  (916) 
None

$$$$
P499711
     RDKit          3D

 22 24  0  0  0  0  0  0  0  0999 V2000
    4.1631   13.6768   27.2618 C   0  0  0  0  0  0  0  0  0  0  0  0
    4.7732   13.9152   25.8917 C   0  0  0  0  0  0  0  0  0  0  0  0
    5.9985   13.1096   25.6288 C   0  0  0  0  0  0  0  0  0  0  0  0
    6.8505   12.3692   26.4073 C   0  0  0  0  0  0  0  0  0  0  0  0
    8.0463   12.1269   25.7623 N   0  0  0  0  0  0  0  0  0  0  0  0
    7.9118   12.7030   24.5791 C   0  0  0  0  0  0  0  0  0  0  0  0
    8.8818   12.8520   23.5122 C   0  0  0  0  0  0  0  0  0  0  0  0
    8.5045   13.1567   22.3831 O   0  0  0  0  0  0  0  0  0  0  0  0
   10.2028   12.5469   23.7685 N   0  0  0  0  0  0  0  0  0  0  0  0
   11.1700   13.5587   24.1558 C   0  0  0  0  0  0  0  0  0  0  0  0
   12.6178   13.0484   23.9356 C   0  0  0  0  0  0  0  0  0  0  0  0
   12.9966   11.8581   24.8702 C   0  0  0  0  0  0  0  0  0  0  0  0
   11.7191   10.9328   24.7639 C   0  0  0  0  0  0  0  0  0  0  0  0
   10.6671   11.1860   23.6556 C   0  0  0  0  0  0  0  0  0  0  0  0
   13.2549   12.3513   26.3258 C   0  0  0  0  0  0  0  0  0  0  0  0
   14.7272   12.6637   26.4256 C   0  0  0  0  0  0  0  0  0  0  0  0
   15.3257   13.0370   27.4144 O   0  0  0  0  0  0  0  0  0  0  0  0
   15.2779   12.3751   25.1968 N   0  0  0  0  0  0  0  0  0  0  0  0
   14.4787   11.3284   24.6302 C   0  0  1  0  0  0  0  0  0  0  0  0
   15.0490   10.0571   25.2799 C   0  0  0  0  0  0  0  0  0  0  0  0
   14.2246    8.9398   25.0983 O   0  0  0  0  0  0  0  0  0  0  0  0
    6.6112   13.1099   24.4054 N   0  0  0  0  0  0  0  0  0  0  0  0
  1  2  1  0
  2  3  1  0
  3  4  2  0
  4  5  1  0
  5  6  2  0
  6  7  1  0
  7  8  2  0
  7  9  1  0
  9 10  1  0
 10 11  1  0
 11 12  1  0
 12 13  1  0
 13 14  1  0
 12 15  1  0
 15 16  1  0
 16 17  2  0
 16 18  1  0
 18 19  1  0
 19 20  1  1
 20 21  1  0
  6 22  1  0
 22  3  1  0
 14  9  1  0
 19 12  1  0
M  END
>  <energy_score>  (917) 
-13.000094

>  <inchikey>  (917) 
None

>  <smiles>  (917) 
None

>  <ref_pdb>  (917) 
A0875a

>  <alias>  (917) 
None

>  <HIPPO Pose ID>  (917) 
499711

>  <name>  (917) 
P499711

>  <HIPPO Compound ID>  (917) 
311412

>  <ref_mols>  (917) 
A1209a,A0875a

>  <distance_score>  (917) 
1.97885

>  <inspiration_score>  (917) 
None

$$$$
P499712
     RDKit          3D

 23 25  0  0  0  0  0  0  0  0999 V2000
    6.4784   13.1823   28.9205 C   0  0  0  0  0  0  0  0  0  0  0  0
    5.9900   12.0859   27.9732 C   0  0  0  0  0  0  0  0  0  0  0  0
    4.4813   11.9281   28.1741 C   0  0  0  0  0  0  0  0  0  0  0  0
    6.4369   12.3577   26.5457 C   0  0  0  0  0  0  0  0  0  0  0  0
    5.7186   13.0728   25.6256 C   0  0  0  0  0  0  0  0  0  0  0  0
    6.4859   13.1273   24.5105 N   0  0  0  0  0  0  0  0  0  0  0  0
    7.7339   12.6240   24.7873 C   0  0  0  0  0  0  0  0  0  0  0  0
    8.7424   12.7543   23.7292 C   0  0  0  0  0  0  0  0  0  0  0  0
    8.3607   13.0434   22.5906 O   0  0  0  0  0  0  0  0  0  0  0  0
   10.0864   12.4693   23.9042 N   0  0  0  0  0  0  0  0  0  0  0  0
   11.0581   13.5068   24.2300 C   0  0  0  0  0  0  0  0  0  0  0  0
   12.5180   13.0293   23.9661 C   0  0  0  0  0  0  0  0  0  0  0  0
   12.9502   11.8485   24.8891 C   0  0  0  0  0  0  0  0  0  0  0  0
   11.6913   10.9000   24.8127 C   0  0  0  0  0  0  0  0  0  0  0  0
   10.5817   11.1178   23.7685 C   0  0  0  0  0  0  0  0  0  0  0  0
   13.2342   12.3503   26.3388 C   0  0  0  0  0  0  0  0  0  0  0  0
   14.7063   12.6680   26.4143 C   0  0  0  0  0  0  0  0  0  0  0  0
   15.3226   13.0356   27.3942 O   0  0  0  0  0  0  0  0  0  0  0  0
   15.2340   12.3924   25.1726 N   0  0  0  0  0  0  0  0  0  0  0  0
   14.4347   11.3368   24.6264 C   0  0  1  0  0  0  0  0  0  0  0  0
   15.0306   10.0727   25.2709 C   0  0  0  0  0  0  0  0  0  0  0  0
   14.2208    8.9441   25.0969 O   0  0  0  0  0  0  0  0  0  0  0  0
    7.7153   12.0713   26.0019 N   0  0  0  0  0  0  0  0  0  0  0  0
  1  2  1  0
  2  3  1  0
  2  4  1  0
  4  5  2  0
  5  6  1  0
  6  7  1  0
  7  8  1  0
  8  9  2  0
  8 10  1  0
 10 11  1  0
 11 12  1  0
 12 13  1  0
 13 14  1  0
 14 15  1  0
 13 16  1  0
 16 17  1  0
 17 18  2  0
 17 19  1  0
 19 20  1  0
 20 21  1  1
 21 22  1  0
  7 23  2  0
 23  4  1  0
 15 10  1  0
 20 13  1  0
M  END
>  <energy_score>  (918) 
-19.38053

>  <inchikey>  (918) 
None

>  <smiles>  (918) 
None

>  <ref_pdb>  (918) 
A0875a

>  <alias>  (918) 
None

>  <HIPPO Pose ID>  (918) 
499712

>  <name>  (918) 
P499712

>  <HIPPO Compound ID>  (918) 
311414

>  <ref_mols>  (918) 
A1209a,A0875a

>  <distance_score>  (918) 
1.760261

>  <inspiration_score>  (918) 
None

$$$$
P499714
     RDKit          3D

 23 25  0  0  0  0  0  0  0  0999 V2000
    4.1059   14.1434   26.7270 C   0  0  0  0  0  0  0  0  0  0  0  0
    4.8784   14.0184   25.4257 C   0  0  0  0  0  0  0  0  0  0  0  0
    6.0410   13.0686   25.4515 C   0  0  0  0  0  0  0  0  0  0  0  0
    6.9712   13.1260   24.4471 N   0  0  0  0  0  0  0  0  0  0  0  0
    8.0443   12.3450   24.7801 C   0  0  0  0  0  0  0  0  0  0  0  0
    9.1959   12.3138   23.9051 C   0  0  0  0  0  0  0  0  0  0  0  0
    9.0355   12.5445   22.7121 O   0  0  0  0  0  0  0  0  0  0  0  0
   10.4449   11.9301   24.3604 N   0  0  0  0  0  0  0  0  0  0  0  0
   11.3507   12.9676   24.7747 C   0  0  0  0  0  0  0  0  0  0  0  0
   12.7718   12.6090   24.3209 C   0  0  0  0  0  0  0  0  0  0  0  0
   13.3219   11.4125   25.1393 C   0  0  0  0  0  0  0  0  0  0  0  0
   12.2706   10.2281   24.9197 C   0  0  0  0  0  0  0  0  0  0  0  0
   10.8290   10.5405   24.4186 C   0  0  0  0  0  0  0  0  0  0  0  0
   13.5920   11.9930   26.5738 C   0  0  0  0  0  0  0  0  0  0  0  0
   15.0215   12.4716   26.5707 C   0  0  0  0  0  0  0  0  0  0  0  0
   15.5820   13.0375   27.4878 O   0  0  0  0  0  0  0  0  0  0  0  0
   15.5774   12.0811   25.3820 N   0  0  0  0  0  0  0  0  0  0  0  0
   14.8099   11.0141   24.8066 C   0  0  1  0  0  0  0  0  0  0  0  0
   15.2703    9.7035   25.4865 C   0  0  0  0  0  0  0  0  0  0  0  0
   16.5496    9.2838   25.1018 O   0  0  0  0  0  0  0  0  0  0  0  0
    7.7465   11.6001   25.8298 N   0  0  0  0  0  0  0  0  0  0  0  0
    6.4783   12.0191   26.2318 C   0  0  0  0  0  0  0  0  0  0  0  0
    5.6489   11.3518   27.5654 Cl  0  0  0  0  0  0  0  0  0  0  0  0
  1  2  1  0
  2  3  1  0
  3  4  1  0
  4  5  1  0
  5  6  1  0
  6  7  2  0
  6  8  1  0
  8  9  1  0
  9 10  1  0
 10 11  1  0
 11 12  1  0
 12 13  1  0
 11 14  1  0
 14 15  1  0
 15 16  2  0
 15 17  1  0
 17 18  1  0
 18 19  1  1
 19 20  1  0
  5 21  2  0
 21 22  1  0
 22 23  1  0
 22  3  2  0
 13  8  1  0
 18 11  1  0
M  END
>  <energy_score>  (919) 
-4.235035

>  <inchikey>  (919) 
None

>  <smiles>  (919) 
None

>  <ref_pdb>  (919) 
A0875a

>  <alias>  (919) 
None

>  <HIPPO Pose ID>  (919) 
499714

>  <name>  (919) 
P499714

>  <HIPPO Compound ID>  (919) 
311415

>  <ref_mols>  (919) 
A1209a,A0875a

>  <distance_score>  (919) 
1.616869

>  <inspiration_score>  (919) 
None

$$$$
P499715
     RDKit          3D

 24 27  0  0  0  0  0  0  0  0999 V2000
   15.5151   11.3144   23.6982 O   0  0  0  0  0  0  0  0  0  0  0  0
   14.5550   11.4927   24.4167 C   0  0  0  0  0  0  0  0  0  0  0  0
   13.4072   12.4720   24.1715 C   0  0  0  0  0  0  0  0  0  0  0  0
   12.4563   12.1488   25.2970 C   0  0  0  0  0  0  0  0  0  0  0  0
   11.5381   13.2950   25.6757 C   0  0  0  0  0  0  0  0  0  0  0  0
   10.5484   13.7201   24.5709 C   0  0  0  0  0  0  0  0  0  0  0  0
    9.7408   12.5760   24.1717 N   0  0  0  0  0  0  0  0  0  0  0  0
    8.3504   12.5764   24.2042 C   0  0  0  0  0  0  0  0  0  0  0  0
    7.7266   12.9445   23.2102 O   0  0  0  0  0  0  0  0  0  0  0  0
    7.6804   12.2394   25.4628 C   0  0  0  0  0  0  0  0  0  0  0  0
    7.6331   13.0400   26.5124 N   0  0  0  0  0  0  0  0  0  0  0  0
    6.6070   12.5947   27.3209 C   0  0  0  0  0  0  0  0  0  0  0  0
    6.0974   13.1045   28.5270 C   0  0  0  0  0  0  0  0  0  0  0  0
    5.1371   12.3706   29.2336 C   0  0  0  0  0  0  0  0  0  0  0  0
    4.7057   11.1349   28.7623 C   0  0  0  0  0  0  0  0  0  0  0  0
    5.2049   10.6099   27.5674 C   0  0  0  0  0  0  0  0  0  0  0  0
    6.1327   11.3835   26.8576 C   0  0  0  0  0  0  0  0  0  0  0  0
    6.8535   11.1722   25.7039 N   0  0  0  0  0  0  0  0  0  0  0  0
   10.4628   11.4054   23.7259 C   0  0  0  0  0  0  0  0  0  0  0  0
   11.4485   11.0020   24.8148 C   0  0  0  0  0  0  0  0  0  0  0  0
   13.5530   11.7682   26.3723 C   0  0  2  0  0  0  0  0  0  0  0  0
   14.4719   12.7592   27.1150 C   0  0  0  0  0  0  0  0  0  0  0  0
   15.1129   12.0373   28.1789 O   0  0  0  0  0  0  0  0  0  0  0  0
   14.3859   10.8787   25.6279 N   0  0  0  0  0  0  0  0  0  0  0  0
  1  2  2  0
  2  3  1  0
  3  4  1  0
  4  5  1  0
  5  6  1  0
  6  7  1  0
  7  8  1  0
  8  9  2  0
  8 10  1  0
 10 11  2  0
 11 12  1  0
 12 13  2  0
 13 14  1  0
 14 15  2  0
 15 16  1  0
 16 17  2  0
 17 18  1  0
  7 19  1  0
 19 20  1  0
  4 21  1  0
 21 22  1  6
 22 23  1  0
 21 24  1  0
 24  2  1  0
 20  4  1  0
 18 10  1  0
 17 12  1  0
M  END
>  <energy_score>  (920) 
-1.722853

>  <inchikey>  (920) 
None

>  <smiles>  (920) 
None

>  <ref_pdb>  (920) 
A0875a

>  <alias>  (920) 
None

>  <HIPPO Pose ID>  (920) 
499715

>  <name>  (920) 
P499715

>  <HIPPO Compound ID>  (920) 
311420

>  <ref_mols>  (920) 
A1209a,A0875a

>  <distance_score>  (920) 
1.96136

>  <inspiration_score>  (920) 
None

$$$$
P499718
     RDKit          3D

 25 28  0  0  0  0  0  0  0  0999 V2000
   15.5661   11.2482   23.6109 O   0  0  0  0  0  0  0  0  0  0  0  0
   14.5792   11.3677   24.3035 C   0  0  0  0  0  0  0  0  0  0  0  0
   13.4542   12.3963   24.1081 C   0  0  0  0  0  0  0  0  0  0  0  0
   12.5243   12.0462   25.2311 C   0  0  0  0  0  0  0  0  0  0  0  0
   11.6302   13.1979   25.6422 C   0  0  0  0  0  0  0  0  0  0  0  0
   10.6193   13.6373   24.5561 C   0  0  0  0  0  0  0  0  0  0  0  0
    9.8159   12.5012   24.1164 N   0  0  0  0  0  0  0  0  0  0  0  0
    8.4293   12.5100   24.1084 C   0  0  0  0  0  0  0  0  0  0  0  0
    7.8293   12.8945   23.1062 O   0  0  0  0  0  0  0  0  0  0  0  0
    7.7394   12.1566   25.3448 C   0  0  0  0  0  0  0  0  0  0  0  0
    7.5605   13.0230   26.3212 N   0  0  0  0  0  0  0  0  0  0  0  0
    6.5367   12.5491   27.0986 C   0  0  0  0  0  0  0  0  0  0  0  0
    5.8856   13.1330   28.2022 C   0  0  0  0  0  0  0  0  0  0  0  0
    4.9360   12.3930   28.9131 C   0  0  0  0  0  0  0  0  0  0  0  0
    4.6547   11.0907   28.5357 C   0  0  0  0  0  0  0  0  0  0  0  0
    3.7552   10.3877   29.2354 F   0  0  0  0  0  0  0  0  0  0  0  0
    5.2793   10.4922   27.4420 C   0  0  0  0  0  0  0  0  0  0  0  0
    6.2048   11.2619   26.7188 C   0  0  0  0  0  0  0  0  0  0  0  0
    7.0286   11.0175   25.6364 N   0  0  0  0  0  0  0  0  0  0  0  0
   10.5253   11.3258   23.6738 C   0  0  0  0  0  0  0  0  0  0  0  0
   11.4993   10.9087   24.7642 C   0  0  0  0  0  0  0  0  0  0  0  0
   13.6514   11.6337   26.2488 C   0  0  2  0  0  0  0  0  0  0  0  0
   14.7309   12.5801   26.8192 C   0  0  0  0  0  0  0  0  0  0  0  0
   15.5447   11.8043   27.7130 O   0  0  0  0  0  0  0  0  0  0  0  0
   14.3683   10.6728   25.4730 N   0  0  0  0  0  0  0  0  0  0  0  0
  1  2  2  0
  2  3  1  0
  3  4  1  0
  4  5  1  0
  5  6  1  0
  6  7  1  0
  7  8  1  0
  8  9  2  0
  8 10  1  0
 10 11  2  0
 11 12  1  0
 12 13  2  0
 13 14  1  0
 14 15  2  0
 15 16  1  0
 15 17  1  0
 17 18  2  0
 18 19  1  0
  7 20  1  0
 20 21  1  0
  4 22  1  0
 22 23  1  6
 23 24  1  0
 22 25  1  0
 25  2  1  0
 21  4  1  0
 19 10  1  0
 18 12  1  0
M  END
>  <energy_score>  (921) 
-4.258967

>  <inchikey>  (921) 
None

>  <smiles>  (921) 
None

>  <ref_pdb>  (921) 
A0875a

>  <alias>  (921) 
None

>  <HIPPO Pose ID>  (921) 
499718

>  <name>  (921) 
P499718

>  <HIPPO Compound ID>  (921) 
311439

>  <ref_mols>  (921) 
A1209a,A0875a

>  <distance_score>  (921) 
1.819827

>  <inspiration_score>  (921) 
None

$$$$
P499719
     RDKit          3D

 27 30  0  0  0  0  0  0  0  0999 V2000
    4.3412    9.3963   28.1201 C   0  0  0  0  0  0  0  0  0  0  0  0
    4.6715   10.8711   28.2486 C   0  0  0  0  0  0  0  0  0  0  0  0
    5.5655   11.4545   27.2022 C   0  0  0  0  0  0  0  0  0  0  0  0
    5.9066   12.7709   26.9889 C   0  0  0  0  0  0  0  0  0  0  0  0
    6.9319   12.8811   26.0947 N   0  0  0  0  0  0  0  0  0  0  0  0
    7.1629   11.6499   25.6738 C   0  0  0  0  0  0  0  0  0  0  0  0
    8.4343   11.2276   25.1052 C   0  0  0  0  0  0  0  0  0  0  0  0
    8.6217   10.1674   24.6597 O   0  0  0  0  0  0  0  0  0  0  0  0
    9.4020   12.3999   25.3279 N   0  0  0  0  0  0  0  0  0  0  0  0
   10.7699   12.4825   25.1465 C   0  0  0  0  0  0  0  0  0  0  0  0
   11.3930   13.4146   25.9632 C   0  0  0  0  0  0  0  0  0  0  0  0
   12.6834   13.1761   26.4450 C   0  0  0  0  0  0  0  0  0  0  0  0
   13.4531   12.1244   25.9692 C   0  0  0  0  0  0  0  0  0  0  0  0
   14.7778   11.6844   26.5507 C   0  0  0  0  0  0  0  0  0  0  0  0
   15.1024   10.5974   26.2762 O   0  0  0  0  0  0  0  0  0  0  0  0
   15.4311   12.7144   27.4946 N   0  0  0  0  0  0  0  0  0  0  0  0
   16.6809   12.6588   28.2317 C   0  0  2  0  0  0  0  0  0  0  0  0
   17.8508   11.9803   27.4765 C   0  0  0  0  0  0  0  0  0  0  0  0
   18.5762   11.0076   28.3336 N   0  0  0  0  0  0  0  0  0  0  0  0
   17.6320    9.9230   28.6873 C   0  0  0  0  0  0  0  0  0  0  0  0
   16.4012   10.4588   29.4370 C   0  0  0  0  0  0  0  0  0  0  0  0
   16.5220   11.9809   29.6103 C   0  0  0  0  0  0  0  0  0  0  0  0
   17.8293   12.2322   30.3843 C   0  0  0  0  0  0  0  0  0  0  0  0
   19.0163   11.6836   29.5728 C   0  0  0  0  0  0  0  0  0  0  0  0
   12.8493   11.2850   25.0259 C   0  0  0  0  0  0  0  0  0  0  0  0
   11.5076   11.4430   24.6210 C   0  0  0  0  0  0  0  0  0  0  0  0
    6.2381   10.7871   26.2063 N   0  0  0  0  0  0  0  0  0  0  0  0
  1  2  1  0
  2  3  1  0
  3  4  2  0
  4  5  1  0
  5  6  2  0
  6  7  1  0
  7  8  2  0
  7  9  1  0
  9 10  1  0
 10 11  2  0
 11 12  1  0
 12 13  2  0
 13 14  1  0
 14 15  2  0
 14 16  1  0
 17 16  1  6
 17 18  1  0
 19 18  1  0
 19 20  1  0
 20 21  1  0
 21 22  1  0
 22 23  1  0
 23 24  1  0
 13 25  1  0
 25 26  2  0
  6 27  1  0
 27  3  1  0
 26 10  1  0
 22 17  1  0
 24 19  1  0
M  END
>  <energy_score>  (922) 
-16.806386

>  <inchikey>  (922) 
None

>  <smiles>  (922) 
None

>  <ref_pdb>  (922) 
A0875a

>  <alias>  (922) 
None

>  <HIPPO Pose ID>  (922) 
499719

>  <name>  (922) 
P499719

>  <HIPPO Compound ID>  (922) 
311468

>  <ref_mols>  (922) 
A1209a,A0875a

>  <distance_score>  (922) 
1.961595

>  <inspiration_score>  (922) 
None

$$$$
P499720
     RDKit          3D

 27 30  0  0  0  0  0  0  0  0999 V2000
    4.7188   10.4090   28.1389 C   0  0  0  0  0  0  0  0  0  0  0  0
    5.5670   11.2291   27.2443 C   0  0  0  0  0  0  0  0  0  0  0  0
    6.2295   10.7174   26.1618 N   0  0  0  0  0  0  0  0  0  0  0  0
    7.1261   11.6504   25.7292 C   0  0  0  0  0  0  0  0  0  0  0  0
    8.3821   11.2657   25.1105 C   0  0  0  0  0  0  0  0  0  0  0  0
    8.5497   10.2278   24.6140 O   0  0  0  0  0  0  0  0  0  0  0  0
    9.3561   12.4153   25.3551 N   0  0  0  0  0  0  0  0  0  0  0  0
   10.7145   12.5004   25.1381 C   0  0  0  0  0  0  0  0  0  0  0  0
   11.3439   13.4357   25.9397 C   0  0  0  0  0  0  0  0  0  0  0  0
   12.6389   13.2024   26.3952 C   0  0  0  0  0  0  0  0  0  0  0  0
   13.3977   12.1429   25.9173 C   0  0  0  0  0  0  0  0  0  0  0  0
   14.7928   11.7903   26.3655 C   0  0  0  0  0  0  0  0  0  0  0  0
   15.3718   11.0307   25.6985 O   0  0  0  0  0  0  0  0  0  0  0  0
   15.1907   12.4566   27.6920 N   0  0  0  0  0  0  0  0  0  0  0  0
   16.4308   12.4032   28.4363 C   0  0  1  0  0  0  0  0  0  0  0  0
   16.8802   13.8052   28.9207 C   0  0  0  0  0  0  0  0  0  0  0  0
   16.9929   13.8730   30.4001 N   0  0  0  0  0  0  0  0  0  0  0  0
   18.0030   12.8846   30.8429 C   0  0  0  0  0  0  0  0  0  0  0  0
   17.6546   11.4595   30.3789 C   0  0  0  0  0  0  0  0  0  0  0  0
   16.2939   11.4737   29.6620 C   0  0  0  0  0  0  0  0  0  0  0  0
   15.2745   12.0769   30.6471 C   0  0  0  0  0  0  0  0  0  0  0  0
   15.6857   13.5170   30.9934 C   0  0  0  0  0  0  0  0  0  0  0  0
   12.7789   11.2829   25.0092 C   0  0  0  0  0  0  0  0  0  0  0  0
   11.4385   11.4473   24.6130 C   0  0  0  0  0  0  0  0  0  0  0  0
    6.9039   12.8093   26.3282 N   0  0  0  0  0  0  0  0  0  0  0  0
    5.9133   12.5594   27.2481 C   0  0  0  0  0  0  0  0  0  0  0  0
    5.3579   13.7299   28.3497 Cl  0  0  0  0  0  0  0  0  0  0  0  0
  1  2  1  0
  2  3  1  0
  3  4  1  0
  4  5  1  0
  5  6  2  0
  5  7  1  0
  7  8  1  0
  8  9  2  0
  9 10  1  0
 10 11  2  0
 11 12  1  0
 12 13  2  0
 12 14  1  0
 15 14  1  1
 15 16  1  0
 17 16  1  0
 17 18  1  0
 18 19  1  0
 19 20  1  0
 20 21  1  0
 21 22  1  0
 11 23  1  0
 23 24  2  0
  4 25  2  0
 25 26  1  0
 26 27  1  0
 26  2  2  0
 24  8  1  0
 20 15  1  0
 22 17  1  0
M  END
>  <energy_score>  (923) 
-27.715696

>  <inchikey>  (923) 
None

>  <smiles>  (923) 
None

>  <ref_pdb>  (923) 
A0875a

>  <alias>  (923) 
None

>  <HIPPO Pose ID>  (923) 
499720

>  <name>  (923) 
P499720

>  <HIPPO Compound ID>  (923) 
311478

>  <ref_mols>  (923) 
A1209a,A0875a

>  <distance_score>  (923) 
1.87324

>  <inspiration_score>  (923) 
None

$$$$
P499721
     RDKit          3D

 29 33  0  0  0  0  0  0  0  0999 V2000
   15.2097   10.4855   26.3807 O   0  0  0  0  0  0  0  0  0  0  0  0
   14.9946   11.6175   26.5608 C   0  0  0  0  0  0  0  0  0  0  0  0
   15.8061   12.6779   27.3273 N   0  0  0  0  0  0  0  0  0  0  0  0
   17.0142   12.5491   28.1203 C   0  0  2  0  0  0  0  0  0  0  0  0
   18.0945   11.6130   27.5229 C   0  0  0  0  0  0  0  0  0  0  0  0
   18.6672   10.7005   28.5462 N   0  0  0  0  0  0  0  0  0  0  0  0
   17.5839    9.8035   29.0086 C   0  0  0  0  0  0  0  0  0  0  0  0
   16.4023   10.5916   29.5977 C   0  0  0  0  0  0  0  0  0  0  0  0
   16.7178   12.0967   29.5680 C   0  0  0  0  0  0  0  0  0  0  0  0
   18.0194   12.2877   30.3687 C   0  0  0  0  0  0  0  0  0  0  0  0
   19.1534   11.4961   29.6936 C   0  0  0  0  0  0  0  0  0  0  0  0
   13.6788   12.1190   26.0370 C   0  0  0  0  0  0  0  0  0  0  0  0
   12.9428   13.1304   26.6356 C   0  0  0  0  0  0  0  0  0  0  0  0
   11.6483   13.4426   26.2011 C   0  0  0  0  0  0  0  0  0  0  0  0
   11.0035   12.6327   25.2761 C   0  0  0  0  0  0  0  0  0  0  0  0
    9.6280   12.5520   25.4211 N   0  0  0  0  0  0  0  0  0  0  0  0
    8.6452   11.4473   25.0110 C   0  0  0  0  0  0  0  0  0  0  0  0
    8.8221   10.4615   24.4160 O   0  0  0  0  0  0  0  0  0  0  0  0
    7.3550   11.7684   25.5997 C   0  0  0  0  0  0  0  0  0  0  0  0
    7.0511   12.8949   26.2233 N   0  0  0  0  0  0  0  0  0  0  0  0
    6.0401   12.5658   27.1010 C   0  0  0  0  0  0  0  0  0  0  0  0
    5.3686   13.3429   28.0577 C   0  0  0  0  0  0  0  0  0  0  0  0
    4.4784   12.7171   28.9422 C   0  0  0  0  0  0  0  0  0  0  0  0
    4.2589   11.3407   28.8819 C   0  0  0  0  0  0  0  0  0  0  0  0
    4.8921   10.5529   27.9173 C   0  0  0  0  0  0  0  0  0  0  0  0
    5.7487   11.2145   27.0317 C   0  0  0  0  0  0  0  0  0  0  0  0
    6.4818   10.7803   25.9606 N   0  0  0  0  0  0  0  0  0  0  0  0
   11.7180   11.6338   24.6444 C   0  0  0  0  0  0  0  0  0  0  0  0
   13.0525   11.3891   25.0268 C   0  0  0  0  0  0  0  0  0  0  0  0
  1  2  2  0
  2  3  1  0
  4  3  1  6
  4  5  1  0
  6  5  1  0
  6  7  1  0
  7  8  1  0
  8  9  1  0
  9 10  1  0
 10 11  1  0
  2 12  1  0
 12 13  2  0
 13 14  1  0
 14 15  2  0
 15 16  1  0
 16 17  1  0
 17 18  2  0
 17 19  1  0
 19 20  2  0
 20 21  1  0
 21 22  2  0
 22 23  1  0
 23 24  2  0
 24 25  1  0
 25 26  2  0
 26 27  1  0
 15 28  1  0
 28 29  2  0
  9  4  1  0
 29 12  1  0
 11  6  1  0
 27 19  1  0
 26 21  1  0
M  END
>  <energy_score>  (924) 
-30.292945

>  <inchikey>  (924) 
None

>  <smiles>  (924) 
None

>  <ref_pdb>  (924) 
A0875a

>  <alias>  (924) 
None

>  <HIPPO Pose ID>  (924) 
499721

>  <name>  (924) 
P499721

>  <HIPPO Compound ID>  (924) 
311523

>  <ref_mols>  (924) 
A1209a,A0875a

>  <distance_score>  (924) 
1.874124

>  <inspiration_score>  (924) 
None

$$$$
P499723
     RDKit          3D

 26 29  0  0  0  0  0  0  0  0999 V2000
    5.2781   15.0964   29.9652 O   0  0  0  0  0  0  0  0  0  0  0  0
    5.5337   14.7363   28.8287 C   0  0  0  0  0  0  0  0  0  0  0  0
    5.6631   15.6273   27.5872 C   0  0  0  0  0  0  0  0  0  0  0  0
    6.0129   14.6300   26.5203 C   0  0  0  0  0  0  0  0  0  0  0  0
    6.2512   14.8363   25.1688 C   0  0  0  0  0  0  0  0  0  0  0  0
    6.5468   13.7145   24.3878 C   0  0  0  0  0  0  0  0  0  0  0  0
    6.7833   13.8093   22.9108 C   0  0  0  0  0  0  0  0  0  0  0  0
    6.3351   12.9635   22.2543 O   0  0  0  0  0  0  0  0  0  0  0  0
    7.6698   14.9936   22.5305 N   0  0  0  0  0  0  0  0  0  0  0  0
    8.1228   15.4509   21.2355 C   0  0  0  0  0  0  0  0  0  0  0  0
    9.6331   15.4440   20.8813 C   0  0  0  0  0  0  0  0  0  0  0  0
   10.1833   14.0725   20.6357 C   0  0  0  0  0  0  0  0  0  0  0  0
   11.5273   13.7629   21.2752 C   0  0  0  0  0  0  0  0  0  0  0  0
   11.6287   14.1536   22.6761 N   0  0  0  0  0  0  0  0  0  0  0  0
   10.5958   13.6280   23.6011 C   0  0  0  0  0  0  0  0  0  0  0  0
   10.0232   12.2021   23.4103 C   0  0  0  0  0  0  0  0  0  0  0  0
   10.0214   11.3770   24.6852 C   0  0  0  0  0  0  0  0  0  0  0  0
    9.4814   12.1026   25.7901 O   0  0  0  0  0  0  0  0  0  0  0  0
    9.9695   13.4262   25.9575 C   0  0  0  0  0  0  0  0  0  0  0  0
   11.1055   13.7853   25.0314 C   0  0  0  0  0  0  0  0  0  0  0  0
   11.6446   15.6041   22.5592 C   0  0  0  0  0  0  0  0  0  0  0  0
   10.4131   16.1898   21.9103 C   0  0  0  0  0  0  0  0  0  0  0  0
    6.5860   12.4265   24.9815 C   0  0  0  0  0  0  0  0  0  0  0  0
    6.3318   12.2280   26.3404 C   0  0  0  0  0  0  0  0  0  0  0  0
    6.0485   13.3499   27.0797 C   0  0  0  0  0  0  0  0  0  0  0  0
    5.7707   13.4252   28.4334 N   0  0  0  0  0  0  0  0  0  0  0  0
  1  2  2  0
  2  3  1  0
  3  4  1  0
  4  5  2  0
  5  6  1  0
  6  7  1  0
  7  8  2  0
  7  9  1  0
  9 10  1  0
 10 11  1  0
 11 12  1  0
 12 13  1  0
 13 14  1  0
 14 15  1  0
 15 16  1  0
 16 17  1  0
 17 18  1  0
 18 19  1  0
 19 20  1  0
 14 21  1  0
 21 22  1  0
  6 23  2  0
 23 24  1  0
 24 25  2  0
 25 26  1  0
 26  2  1  0
 25  4  1  0
 22 11  1  0
 20 15  1  0
M  END
>  <energy_score>  (925) 
-17.402538

>  <inchikey>  (925) 
None

>  <smiles>  (925) 
None

>  <ref_pdb>  (925) 
A4708a

>  <alias>  (925) 
None

>  <HIPPO Pose ID>  (925) 
499723

>  <name>  (925) 
P499723

>  <HIPPO Compound ID>  (925) 
311593

>  <ref_mols>  (925) 
A4708a,A1778a

>  <distance_score>  (925) 
1.854114

>  <inspiration_score>  (925) 
None

$$$$
P499724
     RDKit          3D

 28 31  0  0  0  0  0  0  0  0999 V2000
    5.3521   11.4506   29.6853 O   0  0  0  0  0  0  0  0  0  0  0  0
    5.5240   12.0648   28.6567 C   0  0  0  0  0  0  0  0  0  0  0  0
    5.5723   13.4261   28.4696 N   0  0  0  0  0  0  0  0  0  0  0  0
    5.8551   13.7349   27.1393 C   0  0  0  0  0  0  0  0  0  0  0  0
    5.9997   14.9839   26.5725 C   0  0  0  0  0  0  0  0  0  0  0  0
    5.8080   16.5598   27.5932 Br  0  0  0  0  0  0  0  0  0  0  0  0
    6.3006   15.0709   25.2083 C   0  0  0  0  0  0  0  0  0  0  0  0
    6.5059   13.9040   24.4383 C   0  0  0  0  0  0  0  0  0  0  0  0
    6.9033   13.9769   22.9897 C   0  0  0  0  0  0  0  0  0  0  0  0
    6.4585   13.1804   22.2642 O   0  0  0  0  0  0  0  0  0  0  0  0
    7.8198   15.1845   22.7077 N   0  0  0  0  0  0  0  0  0  0  0  0
    8.3036   15.7205   21.4623 C   0  0  0  0  0  0  0  0  0  0  0  0
    9.7327   15.4765   20.9576 C   0  0  0  0  0  0  0  0  0  0  0  0
   10.0642   14.0215   20.8015 C   0  0  0  0  0  0  0  0  0  0  0  0
   11.3296   13.5803   21.5354 C   0  0  0  0  0  0  0  0  0  0  0  0
   11.4165   14.0216   22.9133 N   0  0  0  0  0  0  0  0  0  0  0  0
   10.4113   13.4714   23.8255 C   0  0  0  0  0  0  0  0  0  0  0  0
   10.9729   13.5866   25.2336 C   0  0  0  0  0  0  0  0  0  0  0  0
    9.7848   13.4364   26.1402 C   0  0  0  0  0  0  0  0  0  0  0  0
    9.0474   12.2389   25.9249 O   0  0  0  0  0  0  0  0  0  0  0  0
    9.5603   11.3472   24.9300 C   0  0  0  0  0  0  0  0  0  0  0  0
    9.8163   12.0612   23.6167 C   0  0  0  0  0  0  0  0  0  0  0  0
   11.4172   15.4847   22.8972 C   0  0  0  0  0  0  0  0  0  0  0  0
   10.9182   16.1324   21.6164 C   0  0  0  0  0  0  0  0  0  0  0  0
    6.3248   12.6404   25.0225 C   0  0  0  0  0  0  0  0  0  0  0  0
    6.0017   12.5909   26.3649 C   0  0  0  0  0  0  0  0  0  0  0  0
    5.7706   11.4549   27.2545 C   0  0  0  0  0  0  0  0  0  0  0  0
    5.7428   10.2839   26.9744 O   0  0  0  0  0  0  0  0  0  0  0  0
  1  2  2  0
  2  3  1  0
  3  4  1  0
  4  5  2  0
  5  6  1  0
  5  7  1  0
  7  8  2  0
  8  9  1  0
  9 10  2  0
  9 11  1  0
 11 12  1  0
 12 13  1  0
 13 14  1  0
 14 15  1  0
 15 16  1  0
 16 17  1  0
 17 18  1  0
 18 19  1  0
 19 20  1  0
 20 21  1  0
 21 22  1  0
 16 23  1  0
 23 24  1  0
  8 25  1  0
 25 26  2  0
 26 27  1  0
 27 28  2  0
 27  2  1  0
 26  4  1  0
 24 13  1  0
 22 17  1  0
M  END
>  <energy_score>  (926) 
-6.829492

>  <inchikey>  (926) 
None

>  <smiles>  (926) 
None

>  <ref_pdb>  (926) 
A4708a

>  <alias>  (926) 
None

>  <HIPPO Pose ID>  (926) 
499724

>  <name>  (926) 
P499724

>  <HIPPO Compound ID>  (926) 
311598

>  <ref_mols>  (926) 
A4708a,A1778a

>  <distance_score>  (926) 
1.765569

>  <inspiration_score>  (926) 
None

$$$$
P499725
     RDKit          3D

 28 31  0  0  0  0  0  0  0  0999 V2000
    5.0655   12.0701   29.2609 C   0  0  0  0  0  0  0  0  0  0  0  0
    5.4737   13.2322   28.5208 N   0  0  0  0  0  0  0  0  0  0  0  0
    5.4144   14.5276   29.0128 C   0  0  0  0  0  0  0  0  0  0  0  0
    5.0965   14.9182   30.1147 O   0  0  0  0  0  0  0  0  0  0  0  0
    5.8543   15.4285   27.8314 C   0  0  0  0  0  0  0  0  0  0  0  0
    6.0613   16.6191   27.8496 O   0  0  0  0  0  0  0  0  0  0  0  0
    6.0563   14.5245   26.6995 C   0  0  0  0  0  0  0  0  0  0  0  0
    6.3888   14.8300   25.3888 C   0  0  0  0  0  0  0  0  0  0  0  0
    6.5797   13.7521   24.5237 C   0  0  0  0  0  0  0  0  0  0  0  0
    6.9751   13.9251   23.0827 C   0  0  0  0  0  0  0  0  0  0  0  0
    6.5634   13.1515   22.3145 O   0  0  0  0  0  0  0  0  0  0  0  0
    7.9448   15.1052   22.8885 N   0  0  0  0  0  0  0  0  0  0  0  0
    8.5407   15.6426   21.6869 C   0  0  0  0  0  0  0  0  0  0  0  0
   10.0760   15.9051   21.6212 C   0  0  0  0  0  0  0  0  0  0  0  0
   10.7277   15.0479   20.5693 C   0  0  0  0  0  0  0  0  0  0  0  0
   10.9553   13.6676   21.1668 C   0  0  0  0  0  0  0  0  0  0  0  0
   11.4638   13.4587   22.5398 N   0  0  0  0  0  0  0  0  0  0  0  0
   10.4546   12.9908   23.5127 C   0  0  0  0  0  0  0  0  0  0  0  0
   10.9536   13.0385   24.9525 C   0  0  0  0  0  0  0  0  0  0  0  0
    9.7706   12.6991   25.8148 C   0  0  0  0  0  0  0  0  0  0  0  0
    9.2654   11.3836   25.6352 O   0  0  0  0  0  0  0  0  0  0  0  0
    9.7146   10.7133   24.4643 C   0  0  0  0  0  0  0  0  0  0  0  0
    9.7654   11.6351   23.2567 C   0  0  0  0  0  0  0  0  0  0  0  0
   12.0439   14.7300   22.8810 C   0  0  0  0  0  0  0  0  0  0  0  0
   10.9652   15.7908   22.8807 C   0  0  0  0  0  0  0  0  0  0  0  0
    6.4232   12.4295   25.0133 C   0  0  0  0  0  0  0  0  0  0  0  0
    6.0513   12.1495   26.3355 C   0  0  0  0  0  0  0  0  0  0  0  0
    5.8586   13.2246   27.1720 C   0  0  0  0  0  0  0  0  0  0  0  0
  1  2  1  0
  2  3  1  0
  3  4  2  0
  3  5  1  0
  5  6  2  0
  5  7  1  0
  7  8  2  0
  8  9  1  0
  9 10  1  0
 10 11  2  0
 10 12  1  0
 12 13  1  0
 13 14  1  0
 14 15  1  0
 15 16  1  0
 16 17  1  0
 17 18  1  0
 18 19  1  0
 19 20  1  0
 20 21  1  0
 21 22  1  0
 22 23  1  0
 17 24  1  0
 24 25  1  0
  9 26  2  0
 26 27  1  0
 27 28  2  0
 28  2  1  0
 28  7  1  0
 25 14  1  0
 23 18  1  0
M  END
>  <energy_score>  (927) 
-0.131665

>  <inchikey>  (927) 
None

>  <smiles>  (927) 
None

>  <ref_pdb>  (927) 
A4708a

>  <alias>  (927) 
None

>  <HIPPO Pose ID>  (927) 
499725

>  <name>  (927) 
P499725

>  <HIPPO Compound ID>  (927) 
311601

>  <ref_mols>  (927) 
A4708a,A1778a

>  <distance_score>  (927) 
1.535536

>  <inspiration_score>  (927) 
None

$$$$
P499726
     RDKit          3D

 30 34  0  0  0  0  0  0  0  0999 V2000
    6.5321   13.2902   22.0665 O   0  0  0  0  0  0  0  0  0  0  0  0
    7.1433   14.0145   22.7474 C   0  0  0  0  0  0  0  0  0  0  0  0
    8.1790   15.0995   22.3790 N   0  0  0  0  0  0  0  0  0  0  0  0
    8.6100   15.5865   21.0878 C   0  0  0  0  0  0  0  0  0  0  0  0
   10.0988   15.6971   20.6504 C   0  0  0  0  0  0  0  0  0  0  0  0
   10.7546   14.4065   20.2437 C   0  0  0  0  0  0  0  0  0  0  0  0
   10.8350   13.5114   21.4679 C   0  0  0  0  0  0  0  0  0  0  0  0
   10.6982   14.1550   22.7385 N   0  0  0  0  0  0  0  0  0  0  0  0
   10.4421   13.3477   23.8955 C   0  0  0  0  0  0  0  0  0  0  0  0
   11.6932   13.1887   24.7131 C   0  0  0  0  0  0  0  0  0  0  0  0
   11.2333   12.7707   26.0708 C   0  0  0  0  0  0  0  0  0  0  0  0
    9.9817   12.0734   26.0650 O   0  0  0  0  0  0  0  0  0  0  0  0
    9.8517   11.1553   24.9759 C   0  0  0  0  0  0  0  0  0  0  0  0
    9.8144   11.9480   23.6866 C   0  0  0  0  0  0  0  0  0  0  0  0
   11.3548   15.4184   22.8686 C   0  0  0  0  0  0  0  0  0  0  0  0
   11.1314   16.2485   21.6244 C   0  0  0  0  0  0  0  0  0  0  0  0
    6.8498   13.9695   24.2241 C   0  0  0  0  0  0  0  0  0  0  0  0
    6.6802   15.1609   24.9704 C   0  0  0  0  0  0  0  0  0  0  0  0
    6.3748   15.1145   26.3380 C   0  0  0  0  0  0  0  0  0  0  0  0
    6.2045   13.8661   26.9009 C   0  0  0  0  0  0  0  0  0  0  0  0
    6.3319   12.6961   26.1792 C   0  0  0  0  0  0  0  0  0  0  0  0
    6.6493   12.7154   24.8395 C   0  0  0  0  0  0  0  0  0  0  0  0
    6.0103   11.6139   27.1076 C   0  0  0  0  0  0  0  0  0  0  0  0
    5.9720   10.4326   26.8709 O   0  0  0  0  0  0  0  0  0  0  0  0
    5.6984   12.3006   28.4734 C   0  0  0  0  0  0  0  0  0  0  0  0
    5.3839   11.7288   29.4943 O   0  0  0  0  0  0  0  0  0  0  0  0
    5.8682   13.6452   28.2329 N   0  0  0  0  0  0  0  0  0  0  0  0
    5.5719   14.7569   29.1099 C   0  0  0  0  0  0  0  0  0  0  0  0
    6.3214   16.0235   28.6784 C   0  0  0  0  0  0  0  0  0  0  0  0
    6.1227   16.3324   27.1831 C   0  0  0  0  0  0  0  0  0  0  0  0
  1  2  2  0
  2  3  1  0
  3  4  1  0
  4  5  1  0
  5  6  1  0
  6  7  1  0
  7  8  1  0
  8  9  1  0
  9 10  1  0
 10 11  1  0
 11 12  1  0
 12 13  1  0
 13 14  1  0
  8 15  1  0
 15 16  1  0
  2 17  1  0
 17 18  2  0
 18 19  1  0
 19 20  2  0
 20 21  1  0
 21 22  2  0
 21 23  1  0
 23 24  2  0
 23 25  1  0
 25 26  2  0
 25 27  1  0
 27 28  1  0
 28 29  1  0
 29 30  1  0
 16  5  1  0
 22 17  1  0
 14  9  1  0
 30 19  1  0
 27 20  1  0
M  END
>  <energy_score>  (928) 
-20.99375

>  <inchikey>  (928) 
None

>  <smiles>  (928) 
None

>  <ref_pdb>  (928) 
A4708a

>  <alias>  (928) 
None

>  <HIPPO Pose ID>  (928) 
499726

>  <name>  (928) 
P499726

>  <HIPPO Compound ID>  (928) 
311604

>  <ref_mols>  (928) 
A4708a,A1778a

>  <distance_score>  (928) 
1.730756

>  <inspiration_score>  (928) 
None

$$$$
P499727
     RDKit          3D

 30 33  0  0  0  0  0  0  0  0999 V2000
    7.4474   12.8743   25.1337 C   0  0  0  0  0  0  0  0  0  0  0  0
    8.0981   14.1603   25.6353 C   0  0  0  0  0  0  0  0  0  0  0  0
    7.7807   15.4051   24.7910 C   0  0  0  0  0  0  0  0  0  0  0  0
    8.6703   15.6911   23.6469 N   0  0  0  0  0  0  0  0  0  0  0  0
    9.9208   16.2399   23.9877 C   0  0  0  0  0  0  0  0  0  0  0  0
   10.2985   16.3408   25.1555 O   0  0  0  0  0  0  0  0  0  0  0  0
   10.8654   16.5870   22.8364 C   0  0  0  0  0  0  0  0  0  0  0  0
   10.2059   17.0936   21.5719 C   0  0  0  0  0  0  0  0  0  0  0  0
    9.0713   16.1749   21.1919 C   0  0  1  0  0  0  0  0  0  0  0  0
    9.8349   14.9589   20.7120 C   0  0  0  0  0  0  0  0  0  0  0  0
   10.2705   14.8132   19.6483 O   0  0  0  0  0  0  0  0  0  0  0  0
    9.9564   14.0898   21.9570 N   0  0  0  0  0  0  0  0  0  0  0  0
   10.6952   12.9363   22.1842 C   0  0  0  0  0  0  0  0  0  0  0  0
   10.7624   12.7644   23.6672 C   0  0  2  0  0  0  0  0  0  0  0  0
   11.9030   13.5605   24.3208 C   0  0  0  0  0  0  0  0  0  0  0  0
   11.9962   13.1492   25.7071 N   0  0  0  0  0  0  0  0  0  0  0  0
   12.9521   13.8391   26.5487 C   0  0  0  0  0  0  0  0  0  0  0  0
   14.4070   13.5469   26.1752 C   0  0  0  0  0  0  0  0  0  0  0  0
   14.7125   12.0548   26.0656 C   0  0  0  0  0  0  0  0  0  0  0  0
   13.6572   11.3446   25.2346 C   0  0  0  0  0  0  0  0  0  0  0  0
   12.2633   11.7367   25.7352 C   0  0  2  0  0  0  0  0  0  0  0  0
   11.0198   11.0056   25.1470 C   0  0  0  0  0  0  0  0  0  0  0  0
   10.7948   11.3576   23.8285 O   0  0  0  0  0  0  0  0  0  0  0  0
    8.0568   16.1240   22.3566 C   0  0  1  0  0  0  0  0  0  0  0  0
    6.8990   15.2320   22.0548 C   0  0  0  0  0  0  0  0  0  0  0  0
    6.8690   13.8847   21.8168 C   0  0  0  0  0  0  0  0  0  0  0  0
    5.6187   13.4312   21.5527 N   0  0  0  0  0  0  0  0  0  0  0  0
    4.8413   14.4699   21.7307 C   0  0  0  0  0  0  0  0  0  0  0  0
    5.5687   15.5665   22.0870 N   0  0  0  0  0  0  0  0  0  0  0  0
    5.0028   16.7995   22.5451 C   0  0  0  0  0  0  0  0  0  0  0  0
  1  2  1  0
  2  3  1  0
  3  4  1  0
  4  5  1  0
  5  6  2  0
  5  7  1  0
  7  8  1  0
  8  9  1  0
  9 10  1  1
 10 11  2  0
 10 12  1  0
 12 13  1  0
 14 13  1  6
 14 15  1  0
 15 16  1  0
 16 17  1  0
 17 18  1  0
 18 19  1  0
 19 20  1  0
 21 20  1  6
 21 22  1  0
 22 23  1  0
  9 24  1  0
 24 25  1  6
 25 26  2  0
 26 27  1  0
 27 28  2  0
 28 29  1  0
 29 30  1  0
 24  4  1  0
 29 25  1  0
 23 14  1  0
 21 16  1  0
M  END
>  <energy_score>  (929) 
-27.625985

>  <inchikey>  (929) 
None

>  <smiles>  (929) 
None

>  <ref_pdb>  (929) 
A4374a

>  <alias>  (929) 
None

>  <HIPPO Pose ID>  (929) 
499727

>  <name>  (929) 
P499727

>  <HIPPO Compound ID>  (929) 
313073

>  <ref_mols>  (929) 
A4374a,A0875a

>  <distance_score>  (929) 
1.975542

>  <inspiration_score>  (929) 
None

$$$$
P499728
     RDKit          3D

 17 19  0  0  0  0  0  0  0  0999 V2000
    9.2206   10.3591   23.2887 C   0  0  0  0  0  0  0  0  0  0  0  0
    8.8282   10.2635   24.6952 C   0  0  0  0  0  0  0  0  0  0  0  0
    7.5996   10.1303   25.1833 C   0  0  0  0  0  0  0  0  0  0  0  0
    8.4124   11.1961   25.7069 C   0  0  2  0  0  0  0  0  0  0  0  0
    7.8643   12.5617   25.4878 C   0  0  0  0  0  0  0  0  0  0  0  0
    7.1615   13.0047   26.3188 O   0  0  0  0  0  0  0  0  0  0  0  0
    8.4033   13.1871   24.2445 N   0  0  0  0  0  0  0  0  0  0  0  0
    9.7882   13.8949   24.5079 C   0  0  0  0  0  0  0  0  0  0  0  0
    9.5483   14.5331   23.2008 C   0  0  0  0  0  0  0  0  0  0  0  0
   10.2319   14.8354   22.1040 C   0  0  0  0  0  0  0  0  0  0  0  0
    9.7562   15.3685   20.8038 C   0  0  0  0  0  0  0  0  0  0  0  0
   10.9373   15.0284   19.9417 C   0  0  0  0  0  0  0  0  0  0  0  0
   10.9352   14.9718   18.7246 O   0  0  0  0  0  0  0  0  0  0  0  0
   12.0077   14.7647   20.7360 N   0  0  0  0  0  0  0  0  0  0  0  0
   11.6224   14.3806   21.9804 C   0  0  0  0  0  0  0  0  0  0  0  0
   12.2059   13.6953   22.8039 O   0  0  0  0  0  0  0  0  0  0  0  0
    8.1299   14.5563   23.6143 C   0  0  0  0  0  0  0  0  0  0  0  0
  1  2  1  0
  2  3  2  0
  3  4  1  0
  4  5  1  6
  5  6  2  0
  5  7  1  0
  7  8  1  0
  8  9  1  0
  9 10  2  3
 10 11  1  0
 11 12  1  0
 12 13  2  0
 12 14  1  0
 14 15  1  0
 15 16  2  0
  9 17  1  0
  4  2  1  0
 17  7  1  0
 15 10  1  0
M  END
>  <energy_score>  (930) 
-9.67963

>  <inchikey>  (930) 
None

>  <smiles>  (930) 
None

>  <ref_pdb>  (930) 
A4701a

>  <alias>  (930) 
None

>  <HIPPO Pose ID>  (930) 
499728

>  <name>  (930) 
P499728

>  <HIPPO Compound ID>  (930) 
313631

>  <ref_mols>  (930) 
A1775a,A4701a

>  <distance_score>  (930) 
1.993212

>  <inspiration_score>  (930) 
None

$$$$
P499730
     RDKit          3D

 17 18  0  0  0  0  0  0  0  0999 V2000
    9.0772   10.1069   23.4293 C   0  0  0  0  0  0  0  0  0  0  0  0
    8.0582   10.4573   24.5037 C   0  0  0  0  0  0  0  0  0  0  0  0
    8.5319   11.4111   25.6116 C   0  0  1  0  0  0  0  0  0  0  0  0
    9.9477   11.4208   25.7396 O   0  0  0  0  0  0  0  0  0  0  0  0
    7.9219   12.8367   25.5016 C   0  0  0  0  0  0  0  0  0  0  0  0
    7.1635   13.2681   26.2945 O   0  0  0  0  0  0  0  0  0  0  0  0
    8.4763   13.4582   24.2395 N   0  0  0  0  0  0  0  0  0  0  0  0
    9.8090   14.2530   24.5245 C   0  0  0  0  0  0  0  0  0  0  0  0
    9.5787   14.7816   23.1656 C   0  0  0  0  0  0  0  0  0  0  0  0
   10.2657   14.9860   22.0484 C   0  0  0  0  0  0  0  0  0  0  0  0
    9.7965   15.4234   20.7103 C   0  0  0  0  0  0  0  0  0  0  0  0
   10.9792   15.0203   19.8788 C   0  0  0  0  0  0  0  0  0  0  0  0
   10.9873   14.8860   18.6681 O   0  0  0  0  0  0  0  0  0  0  0  0
   12.0405   14.7879   20.6939 N   0  0  0  0  0  0  0  0  0  0  0  0
   11.6348   14.4602   21.9469 C   0  0  0  0  0  0  0  0  0  0  0  0
   12.1711   13.7427   22.7766 O   0  0  0  0  0  0  0  0  0  0  0  0
    8.1477   14.7908   23.5521 C   0  0  0  0  0  0  0  0  0  0  0  0
  1  2  1  0
  2  3  1  0
  3  4  1  6
  3  5  1  0
  5  6  2  0
  5  7  1  0
  7  8  1  0
  8  9  1  0
  9 10  2  3
 10 11  1  0
 11 12  1  0
 12 13  2  0
 12 14  1  0
 14 15  1  0
 15 16  2  0
  9 17  1  0
 17  7  1  0
 15 10  1  0
M  END
>  <energy_score>  (931) 
-4.713293

>  <inchikey>  (931) 
None

>  <smiles>  (931) 
None

>  <ref_pdb>  (931) 
A4701a

>  <alias>  (931) 
None

>  <HIPPO Pose ID>  (931) 
499730

>  <name>  (931) 
P499730

>  <HIPPO Compound ID>  (931) 
313661

>  <ref_mols>  (931) 
A1775a,A4701a

>  <distance_score>  (931) 
1.908228

>  <inspiration_score>  (931) 
None

$$$$
P499731
     RDKit          3D

 23 25  0  0  0  0  0  0  0  0999 V2000
   13.4302   10.4460   25.6311 O   0  0  0  0  0  0  0  0  0  0  0  0
   13.1760   11.5713   26.0291 C   0  0  0  0  0  0  0  0  0  0  0  0
   13.9216   12.3357   26.8623 O   0  0  0  0  0  0  0  0  0  0  0  0
   15.2074   11.9487   27.3551 C   0  0  2  0  0  0  0  0  0  0  0  0
   15.9840   10.8606   26.6757 C   0  0  0  0  0  0  0  0  0  0  0  0
   17.0477   10.5664   27.7083 C   0  0  0  0  0  0  0  0  0  0  0  0
   16.4114   10.7355   28.9889 O   0  0  0  0  0  0  0  0  0  0  0  0
   15.2156   11.5086   28.8055 C   0  0  0  0  0  0  0  0  0  0  0  0
   11.9188   12.2947   25.6761 C   0  0  0  0  0  0  0  0  0  0  0  0
   12.2747   13.3247   24.6147 C   0  0  0  0  0  0  0  0  0  0  0  0
   11.0866   14.2347   24.4024 C   0  0  0  0  0  0  0  0  0  0  0  0
    9.8603   13.4309   24.5725 N   0  0  0  0  0  0  0  0  0  0  0  0
    8.4476   14.2729   24.5722 S   0  0  0  0  0  0  0  0  0  0  0  0
    7.9009   14.2192   23.2439 O   0  0  0  0  0  0  0  0  0  0  0  0
    8.7636   15.5128   25.2392 O   0  0  0  0  0  0  0  0  0  0  0  0
    7.4718   13.4189   25.6418 N   0  0  0  0  0  0  0  0  0  0  0  0
    6.7215   12.2437   25.1547 C   0  0  0  0  0  0  0  0  0  0  0  0
    6.3869   11.3983   26.3784 C   0  0  0  0  0  0  0  0  0  0  0  0
    5.4886   12.1783   27.3341 C   0  0  0  0  0  0  0  0  0  0  0  0
    6.0913   13.5376   27.6755 C   0  0  0  0  0  0  0  0  0  0  0  0
    6.5513   14.2947   26.4332 C   0  0  0  0  0  0  0  0  0  0  0  0
    9.9914   12.0738   24.0593 C   0  0  0  0  0  0  0  0  0  0  0  0
   10.7596   11.3841   25.1804 C   0  0  0  0  0  0  0  0  0  0  0  0
  1  2  2  0
  2  3  1  0
  4  3  1  6
  4  5  1  0
  5  6  1  0
  6  7  1  0
  7  8  1  0
  2  9  1  0
  9 10  1  0
 10 11  1  0
 11 12  1  0
 12 13  1  0
 13 14  2  0
 13 15  2  0
 13 16  1  0
 16 17  1  0
 17 18  1  0
 18 19  1  0
 19 20  1  0
 20 21  1  0
 12 22  1  0
 22 23  1  0
  8  4  1  0
 23  9  1  0
 21 16  1  0
M  END
>  <energy_score>  (932) 
-42.4419

>  <inchikey>  (932) 
None

>  <smiles>  (932) 
None

>  <ref_pdb>  (932) 
A4706a

>  <alias>  (932) 
None

>  <HIPPO Pose ID>  (932) 
499731

>  <name>  (932) 
P499731

>  <HIPPO Compound ID>  (932) 
314345

>  <ref_mols>  (932) 
A0875a,A4706a

>  <distance_score>  (932) 
1.733747

>  <inspiration_score>  (932) 
None

$$$$
P499736
     RDKit          3D

 24 26  0  0  0  0  0  0  0  0999 V2000
    9.5639   15.3149   19.2744 N   0  0  0  0  0  0  0  0  0  0  0  0
   10.3432   15.4163   20.4778 C   0  0  2  0  0  0  0  0  0  0  0  0
   10.9013   14.1885   21.1592 C   0  0  0  0  0  0  0  0  0  0  0  0
   11.4537   14.6562   22.3960 O   0  0  0  0  0  0  0  0  0  0  0  0
   10.9038   15.9603   22.6219 C   0  0  0  0  0  0  0  0  0  0  0  0
    9.7418   16.1858   21.6498 C   0  0  2  0  0  0  0  0  0  0  0  0
    8.5019   15.8291   22.3510 O   0  0  0  0  0  0  0  0  0  0  0  0
    7.6750   14.7854   22.1796 C   0  0  0  0  0  0  0  0  0  0  0  0
    7.7205   14.0122   21.2278 O   0  0  0  0  0  0  0  0  0  0  0  0
    6.6201   14.6019   23.3324 C   0  0  0  0  0  0  0  0  0  0  0  0
    6.6686   13.1327   23.8293 C   0  0  0  0  0  0  0  0  0  0  0  0
    6.7262   12.8452   25.3260 C   0  0  0  0  0  0  0  0  0  0  0  0
    7.3957   13.9235   26.0664 N   0  0  0  0  0  0  0  0  0  0  0  0
    9.0426   14.2543   25.8197 S   0  0  0  0  0  0  0  0  0  0  0  0
    9.2986   14.2908   24.4066 O   0  0  0  0  0  0  0  0  0  0  0  0
    9.3808   15.3692   26.6676 O   0  0  0  0  0  0  0  0  0  0  0  0
    9.8680   12.9114   26.4030 N   0  0  0  0  0  0  0  0  0  0  0  0
    9.7126   11.7132   25.5624 C   0  0  0  0  0  0  0  0  0  0  0  0
   10.9938   11.1719   25.0138 C   0  0  0  0  0  0  0  0  0  0  0  0
   11.9961   12.2483   24.5993 C   0  0  0  0  0  0  0  0  0  0  0  0
   12.1571   13.3877   25.5642 C   0  0  0  0  0  0  0  0  0  0  0  0
   11.2737   13.2352   26.7694 C   0  0  0  0  0  0  0  0  0  0  0  0
    6.5400   15.1319   25.9044 C   0  0  0  0  0  0  0  0  0  0  0  0
    6.6204   15.6460   24.4680 C   0  0  0  0  0  0  0  0  0  0  0  0
  2  1  1  6
  2  3  1  0
  3  4  1  0
  4  5  1  0
  5  6  1  0
  6  7  1  1
  7  8  1  0
  8  9  2  0
  8 10  1  0
 10 11  1  0
 11 12  1  0
 12 13  1  0
 13 14  1  0
 14 15  2  0
 14 16  2  0
 14 17  1  0
 17 18  1  0
 18 19  1  0
 19 20  1  0
 20 21  1  0
 21 22  1  0
 13 23  1  0
 23 24  1  0
  6  2  1  0
 24 10  1  0
 22 17  1  0
M  END
>  <energy_score>  (933) 
-29.493621

>  <inchikey>  (933) 
None

>  <smiles>  (933) 
None

>  <ref_pdb>  (933) 
A4706a

>  <alias>  (933) 
None

>  <HIPPO Pose ID>  (933) 
499736

>  <name>  (933) 
P499736

>  <HIPPO Compound ID>  (933) 
314349

>  <ref_mols>  (933) 
A0875a,A4706a

>  <distance_score>  (933) 
1.693309

>  <inspiration_score>  (933) 
None

$$$$
P499740
     RDKit          3D

 24 26  0  0  0  0  0  0  0  0999 V2000
    6.5942   13.1524   21.8802 O   0  0  0  0  0  0  0  0  0  0  0  0
    7.3437   13.7897   22.6003 C   0  0  0  0  0  0  0  0  0  0  0  0
    8.2304   14.7285   22.1833 O   0  0  0  0  0  0  0  0  0  0  0  0
    9.4739   14.2246   21.6201 C   0  0  1  0  0  0  0  0  0  0  0  0
    9.5102   14.6780   20.1731 C   0  0  0  0  0  0  0  0  0  0  0  0
   10.0822   16.0509   19.9726 C   0  0  0  0  0  0  0  0  0  0  0  0
   10.0583   16.7833   21.2853 C   0  0  0  0  0  0  0  0  0  0  0  0
   10.9764   16.1441   22.1665 O   0  0  0  0  0  0  0  0  0  0  0  0
   10.7008   14.7647   22.3574 C   0  0  0  0  0  0  0  0  0  0  0  0
    7.4849   13.5668   24.0632 C   0  0  0  0  0  0  0  0  0  0  0  0
    7.3031   12.1388   24.5520 C   0  0  0  0  0  0  0  0  0  0  0  0
    7.8127   12.0012   25.9827 C   0  0  0  0  0  0  0  0  0  0  0  0
    8.0164   13.3196   26.6058 N   0  0  0  0  0  0  0  0  0  0  0  0
    9.4826   14.1501   26.6345 S   0  0  0  0  0  0  0  0  0  0  0  0
    9.5302   14.7504   27.9430 O   0  0  0  0  0  0  0  0  0  0  0  0
    9.6347   14.9878   25.4711 O   0  0  0  0  0  0  0  0  0  0  0  0
   10.7080   12.9637   26.5624 N   0  0  0  0  0  0  0  0  0  0  0  0
   11.9423   13.5365   27.1921 C   0  0  0  0  0  0  0  0  0  0  0  0
   13.1526   12.6246   27.0285 C   0  0  0  0  0  0  0  0  0  0  0  0
   13.4336   12.2649   25.5792 C   0  0  0  0  0  0  0  0  0  0  0  0
   12.3243   12.7903   24.6836 C   0  0  0  0  0  0  0  0  0  0  0  0
   10.9735   12.3612   25.2221 C   0  0  0  0  0  0  0  0  0  0  0  0
    6.8347   14.2076   26.4084 C   0  0  0  0  0  0  0  0  0  0  0  0
    6.6967   14.5520   24.9214 C   0  0  0  0  0  0  0  0  0  0  0  0
  1  2  2  0
  2  3  1  0
  4  3  1  1
  4  5  1  0
  5  6  1  0
  6  7  1  0
  7  8  1  0
  8  9  1  0
  2 10  1  0
 10 11  1  0
 11 12  1  0
 12 13  1  0
 13 14  1  0
 14 15  2  0
 14 16  2  0
 14 17  1  0
 17 18  1  0
 18 19  1  0
 19 20  1  0
 20 21  1  0
 21 22  1  0
 13 23  1  0
 23 24  1  0
  9  4  1  0
 24 10  1  0
 22 17  1  0
M  END
>  <energy_score>  (934) 
-25.841953

>  <inchikey>  (934) 
None

>  <smiles>  (934) 
None

>  <ref_pdb>  (934) 
A4706a

>  <alias>  (934) 
None

>  <HIPPO Pose ID>  (934) 
499740

>  <name>  (934) 
P499740

>  <HIPPO Compound ID>  (934) 
314351

>  <ref_mols>  (934) 
A4706a,A0875a

>  <distance_score>  (934) 
1.615106

>  <inspiration_score>  (934) 
None

$$$$
P499742
     RDKit          3D

 24 25  0  0  0  0  0  0  0  0999 V2000
   17.4745   12.2636   29.0061 C   0  0  0  0  0  0  0  0  0  0  0  0
   16.2191   11.7958   29.5234 O   0  0  0  0  0  0  0  0  0  0  0  0
   15.0668   11.8164   28.8095 C   0  0  0  0  0  0  0  0  0  0  0  0
   13.9877   11.6391   29.3717 O   0  0  0  0  0  0  0  0  0  0  0  0
   15.1598   12.0367   27.3004 C   0  0  1  0  0  0  0  0  0  0  0  0
   15.6527   10.7679   26.6249 C   0  0  0  0  0  0  0  0  0  0  0  0
   13.8373   12.4698   26.8709 O   0  0  0  0  0  0  0  0  0  0  0  0
   13.5370   12.4560   25.5544 C   0  0  0  0  0  0  0  0  0  0  0  0
   14.2526   11.9720   24.6910 O   0  0  0  0  0  0  0  0  0  0  0  0
   12.1730   13.0369   25.2618 C   0  0  0  0  0  0  0  0  0  0  0  0
   12.0639   13.5054   23.8162 C   0  0  0  0  0  0  0  0  0  0  0  0
   10.6750   13.7923   23.2842 C   0  0  0  0  0  0  0  0  0  0  0  0
    9.6144   13.1686   24.1029 N   0  0  0  0  0  0  0  0  0  0  0  0
    8.8312   14.2913   25.0519 S   0  0  0  0  0  0  0  0  0  0  0  0
    8.1953   15.2157   24.1484 O   0  0  0  0  0  0  0  0  0  0  0  0
    9.7653   14.7683   26.0455 O   0  0  0  0  0  0  0  0  0  0  0  0
    7.6472   13.4519   25.8645 N   0  0  0  0  0  0  0  0  0  0  0  0
    6.7649   12.5220   25.1404 C   0  0  0  0  0  0  0  0  0  0  0  0
    6.2697   11.5554   26.2156 C   0  0  0  0  0  0  0  0  0  0  0  0
    5.3973   12.3014   27.2232 C   0  0  0  0  0  0  0  0  0  0  0  0
    6.1305   13.5077   27.8056 C   0  0  0  0  0  0  0  0  0  0  0  0
    6.8246   14.3448   26.7363 C   0  0  0  0  0  0  0  0  0  0  0  0
    9.9980   11.8592   24.6124 C   0  0  0  0  0  0  0  0  0  0  0  0
   11.1518   11.9619   25.5738 C   0  0  0  0  0  0  0  0  0  0  0  0
  1  2  1  0
  2  3  1  0
  3  4  2  0
  3  5  1  0
  5  6  1  6
  5  7  1  0
  7  8  1  0
  8  9  2  0
  8 10  1  0
 10 11  1  0
 11 12  1  0
 12 13  1  0
 13 14  1  0
 14 15  2  0
 14 16  2  0
 14 17  1  0
 17 18  1  0
 18 19  1  0
 19 20  1  0
 20 21  1  0
 21 22  1  0
 13 23  1  0
 23 24  1  0
 24 10  1  0
 22 17  1  0
M  END
>  <energy_score>  (935) 
-46.568882

>  <inchikey>  (935) 
None

>  <smiles>  (935) 
None

>  <ref_pdb>  (935) 
A4706a

>  <alias>  (935) 
None

>  <HIPPO Pose ID>  (935) 
499742

>  <name>  (935) 
P499742

>  <HIPPO Compound ID>  (935) 
314352

>  <ref_mols>  (935) 
A4706a,A0875a

>  <distance_score>  (935) 
1.736627

>  <inspiration_score>  (935) 
None

$$$$
P499746
     RDKit          3D

 24 26  0  0  0  0  0  0  0  0999 V2000
    9.9811   15.6494   19.0766 C   0  0  0  0  0  0  0  0  0  0  0  0
   10.3852   14.6942   20.1699 C   0  0  1  0  0  0  0  0  0  0  0  0
   11.6196   15.1682   20.7331 O   0  0  0  0  0  0  0  0  0  0  0  0
   11.3045   15.8511   21.9478 C   0  0  0  0  0  0  0  0  0  0  0  0
    9.8119   15.7818   22.1178 C   0  0  0  0  0  0  0  0  0  0  0  0
    9.4780   14.5085   21.3964 C   0  0  1  0  0  0  0  0  0  0  0  0
    8.0691   14.3486   21.1819 O   0  0  0  0  0  0  0  0  0  0  0  0
    7.2088   13.8579   22.1183 C   0  0  0  0  0  0  0  0  0  0  0  0
    6.1017   13.4439   21.7792 O   0  0  0  0  0  0  0  0  0  0  0  0
    7.6209   13.7480   23.5726 C   0  0  0  0  0  0  0  0  0  0  0  0
    7.4205   12.3328   24.1368 C   0  0  0  0  0  0  0  0  0  0  0  0
    7.8050   12.1735   25.6004 C   0  0  0  0  0  0  0  0  0  0  0  0
    8.0157   13.4731   26.2288 N   0  0  0  0  0  0  0  0  0  0  0  0
    9.5034   14.2186   26.3668 S   0  0  0  0  0  0  0  0  0  0  0  0
    9.8080   14.9862   25.1853 O   0  0  0  0  0  0  0  0  0  0  0  0
    9.4798   14.8687   27.6511 O   0  0  0  0  0  0  0  0  0  0  0  0
   10.6663   12.9775   26.4253 N   0  0  0  0  0  0  0  0  0  0  0  0
   10.9846   12.3565   25.1040 C   0  0  0  0  0  0  0  0  0  0  0  0
   12.3293   12.8267   24.5979 C   0  0  0  0  0  0  0  0  0  0  0  0
   13.4317   12.3204   25.5174 C   0  0  0  0  0  0  0  0  0  0  0  0
   13.0972   12.6210   26.9687 C   0  0  0  0  0  0  0  0  0  0  0  0
   11.8810   13.5233   27.1186 C   0  0  0  0  0  0  0  0  0  0  0  0
    6.8913   14.4023   25.9436 C   0  0  0  0  0  0  0  0  0  0  0  0
    6.8655   14.7603   24.4510 C   0  0  0  0  0  0  0  0  0  0  0  0
  2  1  1  6
  2  3  1  0
  3  4  1  0
  4  5  1  0
  5  6  1  0
  6  7  1  6
  7  8  1  0
  8  9  2  0
  8 10  1  0
 10 11  1  0
 11 12  1  0
 12 13  1  0
 13 14  1  0
 14 15  2  0
 14 16  2  0
 14 17  1  0
 17 18  1  0
 18 19  1  0
 19 20  1  0
 20 21  1  0
 21 22  1  0
 13 23  1  0
 23 24  1  0
  6  2  1  0
 24 10  1  0
 22 17  1  0
M  END
>  <energy_score>  (936) 
-37.075604

>  <inchikey>  (936) 
None

>  <smiles>  (936) 
None

>  <ref_pdb>  (936) 
A4706a

>  <alias>  (936) 
None

>  <HIPPO Pose ID>  (936) 
499746

>  <name>  (936) 
P499746

>  <HIPPO Compound ID>  (936) 
314353

>  <ref_mols>  (936) 
A4706a,A0875a

>  <distance_score>  (936) 
1.622112

>  <inspiration_score>  (936) 
None

$$$$
P499747
     RDKit          3D

 24 25  0  0  0  0  0  0  0  0999 V2000
   19.1627   10.8497   28.2427 C   0  0  0  0  0  0  0  0  0  0  0  0
   18.0246    9.9082   27.8942 C   0  0  0  0  0  0  0  0  0  0  0  0
   16.7722   10.4249   28.3404 O   0  0  0  0  0  0  0  0  0  0  0  0
   16.1973   11.3761   27.4488 C   0  0  0  0  0  0  0  0  0  0  0  0
   14.8368   11.8171   27.9918 C   0  0  1  0  0  0  0  0  0  0  0  0
   14.9621   12.5380   29.3320 C   0  0  0  0  0  0  0  0  0  0  0  0
   14.1778   12.6988   27.0621 O   0  0  0  0  0  0  0  0  0  0  0  0
   13.3550   12.1480   26.1158 C   0  0  0  0  0  0  0  0  0  0  0  0
   13.2052   10.9524   25.9097 O   0  0  0  0  0  0  0  0  0  0  0  0
   12.6354   13.2670   25.3833 C   0  0  0  0  0  0  0  0  0  0  0  0
   11.7396   14.0226   26.3594 C   0  0  0  0  0  0  0  0  0  0  0  0
   10.4520   13.2738   26.6125 C   0  0  0  0  0  0  0  0  0  0  0  0
    9.7926   12.9135   25.3576 N   0  0  0  0  0  0  0  0  0  0  0  0
    8.7390   14.0613   24.7499 S   0  0  0  0  0  0  0  0  0  0  0  0
    8.5506   13.8676   23.3372 O   0  0  0  0  0  0  0  0  0  0  0  0
    9.1225   15.3266   25.3228 O   0  0  0  0  0  0  0  0  0  0  0  0
    7.3964   13.5088   25.5587 N   0  0  0  0  0  0  0  0  0  0  0  0
    6.8451   12.1930   25.2030 C   0  0  0  0  0  0  0  0  0  0  0  0
    6.2624   11.6030   26.4819 C   0  0  0  0  0  0  0  0  0  0  0  0
    5.2188   12.5383   27.0967 C   0  0  0  0  0  0  0  0  0  0  0  0
    5.7454   13.9685   27.2451 C   0  0  0  0  0  0  0  0  0  0  0  0
    6.3595   14.4770   25.9412 C   0  0  0  0  0  0  0  0  0  0  0  0
   10.5947   12.1293   24.4289 C   0  0  0  0  0  0  0  0  0  0  0  0
   11.8488   12.9151   24.1319 C   0  0  0  0  0  0  0  0  0  0  0  0
  1  2  1  0
  2  3  1  0
  3  4  1  0
  4  5  1  0
  5  6  1  1
  5  7  1  0
  7  8  1  0
  8  9  2  0
  8 10  1  0
 10 11  1  0
 11 12  1  0
 12 13  1  0
 13 14  1  0
 14 15  2  0
 14 16  2  0
 14 17  1  0
 17 18  1  0
 18 19  1  0
 19 20  1  0
 20 21  1  0
 21 22  1  0
 13 23  1  0
 23 24  1  0
 24 10  1  0
 22 17  1  0
M  END
>  <energy_score>  (937) 
-82.876431

>  <inchikey>  (937) 
None

>  <smiles>  (937) 
None

>  <ref_pdb>  (937) 
A4706a

>  <alias>  (937) 
None

>  <HIPPO Pose ID>  (937) 
499747

>  <name>  (937) 
P499747

>  <HIPPO Compound ID>  (937) 
314354

>  <ref_mols>  (937) 
A4706a,A0875a

>  <distance_score>  (937) 
1.863693

>  <inspiration_score>  (937) 
None

$$$$
P499748
     RDKit          3D

 24 26  0  0  0  0  0  0  0  0999 V2000
    6.5345   13.6016   21.5670 O   0  0  0  0  0  0  0  0  0  0  0  0
    7.1911   14.2779   22.3414 C   0  0  0  0  0  0  0  0  0  0  0  0
    8.1787   15.1597   21.9938 O   0  0  0  0  0  0  0  0  0  0  0  0
    9.2599   14.5642   21.2344 C   0  0  2  0  0  0  0  0  0  0  0  0
   10.2795   13.9096   22.1563 C   0  0  0  0  0  0  0  0  0  0  0  0
   11.1755   14.9226   22.5934 O   0  0  0  0  0  0  0  0  0  0  0  0
   11.2150   15.9036   21.5540 C   0  0  0  0  0  0  0  0  0  0  0  0
   10.1102   15.6106   20.5531 C   0  0  1  0  0  0  0  0  0  0  0  0
   10.9215   14.8691   18.9332 Br  0  0  0  0  0  0  0  0  0  0  0  0
    7.0821   14.1614   23.8281 C   0  0  0  0  0  0  0  0  0  0  0  0
    6.6420   12.8041   24.3725 C   0  0  0  0  0  0  0  0  0  0  0  0
    6.8310   12.7353   25.8864 C   0  0  0  0  0  0  0  0  0  0  0  0
    7.4748   13.9509   26.4029 N   0  0  0  0  0  0  0  0  0  0  0  0
    9.1173   14.3300   26.4568 S   0  0  0  0  0  0  0  0  0  0  0  0
    9.5232   15.0197   25.2568 O   0  0  0  0  0  0  0  0  0  0  0  0
    9.2761   14.9858   27.7237 O   0  0  0  0  0  0  0  0  0  0  0  0
   10.0200   12.9147   26.5410 N   0  0  0  0  0  0  0  0  0  0  0  0
    9.7774   11.9299   25.4955 C   0  0  0  0  0  0  0  0  0  0  0  0
   10.9886   11.2641   24.9461 C   0  0  0  0  0  0  0  0  0  0  0  0
   12.1611   12.1965   24.6700 C   0  0  0  0  0  0  0  0  0  0  0  0
   12.2777   13.3708   25.5878 C   0  0  0  0  0  0  0  0  0  0  0  0
   11.4583   13.1988   26.8330 C   0  0  0  0  0  0  0  0  0  0  0  0
    6.6178   15.1437   26.1065 C   0  0  0  0  0  0  0  0  0  0  0  0
    6.4170   15.2955   24.5872 C   0  0  0  0  0  0  0  0  0  0  0  0
  1  2  2  0
  2  3  1  0
  4  3  1  1
  4  5  1  0
  5  6  1  0
  6  7  1  0
  7  8  1  0
  8  9  1  6
  2 10  1  0
 10 11  1  0
 11 12  1  0
 12 13  1  0
 13 14  1  0
 14 15  2  0
 14 16  2  0
 14 17  1  0
 17 18  1  0
 18 19  1  0
 19 20  1  0
 20 21  1  0
 21 22  1  0
 13 23  1  0
 23 24  1  0
  8  4  1  0
 24 10  1  0
 22 17  1  0
M  END
>  <energy_score>  (938) 
-29.145548

>  <inchikey>  (938) 
None

>  <smiles>  (938) 
None

>  <ref_pdb>  (938) 
A4706a

>  <alias>  (938) 
None

>  <HIPPO Pose ID>  (938) 
499748

>  <name>  (938) 
P499748

>  <HIPPO Compound ID>  (938) 
314355

>  <ref_mols>  (938) 
A4706a,A0875a

>  <distance_score>  (938) 
1.877881

>  <inspiration_score>  (938) 
None

$$$$
P499751
     RDKit          3D

 24 26  0  0  0  0  0  0  0  0999 V2000
    6.3361   13.3659   22.2114 O   0  0  0  0  0  0  0  0  0  0  0  0
    6.5483   14.1304   23.1499 C   0  0  0  0  0  0  0  0  0  0  0  0
    7.3707   15.2078   23.0931 O   0  0  0  0  0  0  0  0  0  0  0  0
    7.9297   15.5909   21.8197 C   0  0  0  0  0  0  0  0  0  0  0  0
    9.2396   14.9134   21.3988 C   0  0  1  0  0  0  0  0  0  0  0  0
    9.7822   15.4794   20.0998 C   0  0  0  0  0  0  0  0  0  0  0  0
   11.1336   15.0326   20.0710 O   0  0  0  0  0  0  0  0  0  0  0  0
   11.4891   14.9314   21.4531 C   0  0  0  0  0  0  0  0  0  0  0  0
   10.3440   15.1514   22.2804 O   0  0  0  0  0  0  0  0  0  0  0  0
    5.8818   13.9672   24.5348 C   0  0  0  0  0  0  0  0  0  0  0  0
    6.0029   12.5221   25.0569 C   0  0  0  0  0  0  0  0  0  0  0  0
    7.1677   12.1881   25.9856 C   0  0  0  0  0  0  0  0  0  0  0  0
    8.0237   13.3599   26.2043 N   0  0  0  0  0  0  0  0  0  0  0  0
    9.1788   13.6805   25.0145 S   0  0  0  0  0  0  0  0  0  0  0  0
    9.3750   15.1060   24.9877 O   0  0  0  0  0  0  0  0  0  0  0  0
    8.8275   12.8857   23.8622 O   0  0  0  0  0  0  0  0  0  0  0  0
   10.5212   12.9658   25.7325 N   0  0  0  0  0  0  0  0  0  0  0  0
   10.8007   11.5995   25.2375 C   0  0  0  0  0  0  0  0  0  0  0  0
   12.2157   11.2007   25.6483 C   0  0  0  0  0  0  0  0  0  0  0  0
   13.3068   12.0757   25.1185 C   0  0  0  0  0  0  0  0  0  0  0  0
   12.6938   13.3961   24.7129 C   0  0  0  0  0  0  0  0  0  0  0  0
   11.7126   13.8391   25.7842 C   0  0  0  0  0  0  0  0  0  0  0  0
    7.2321   14.5140   26.6743 C   0  0  0  0  0  0  0  0  0  0  0  0
    6.2558   15.0045   25.6073 C   0  0  0  0  0  0  0  0  0  0  0  0
  1  2  2  0
  2  3  1  0
  3  4  1  0
  5  4  1  1
  5  6  1  0
  6  7  1  0
  7  8  1  0
  8  9  1  0
  2 10  1  0
 10 11  1  0
 11 12  1  0
 12 13  1  0
 13 14  1  0
 14 15  2  0
 14 16  2  0
 14 17  1  0
 17 18  1  0
 18 19  1  0
 19 20  1  0
 20 21  1  0
 21 22  1  0
 13 23  1  0
 23 24  1  0
  9  5  1  0
 24 10  1  0
 22 17  1  0
M  END
>  <energy_score>  (939) 
-50.218629

>  <inchikey>  (939) 
None

>  <smiles>  (939) 
None

>  <ref_pdb>  (939) 
A4706a

>  <alias>  (939) 
None

>  <HIPPO Pose ID>  (939) 
499751

>  <name>  (939) 
P499751

>  <HIPPO Compound ID>  (939) 
314357

>  <ref_mols>  (939) 
A4706a,A0875a

>  <distance_score>  (939) 
1.320328

>  <inspiration_score>  (939) 
None

$$$$
P499753
     RDKit          3D

 24 26  0  0  0  0  0  0  0  0999 V2000
   10.6317   14.9710   18.7586 C   0  0  0  0  0  0  0  0  0  0  0  0
    9.5776   15.2920   19.6567 O   0  0  0  0  0  0  0  0  0  0  0  0
    9.9282   15.8428   20.9470 C   0  0  2  0  0  0  0  0  0  0  0  0
   11.1330   15.1509   21.6717 C   0  0  0  0  0  0  0  0  0  0  0  0
   10.0690   14.1245   22.1218 C   0  0  0  0  0  0  0  0  0  0  0  0
    9.1111   15.3469   22.2040 C   0  0  2  0  0  0  0  0  0  0  0  0
    7.6632   15.2288   22.2071 O   0  0  0  0  0  0  0  0  0  0  0  0
    7.1437   14.0442   22.5764 C   0  0  0  0  0  0  0  0  0  0  0  0
    7.0376   13.1123   21.7828 O   0  0  0  0  0  0  0  0  0  0  0  0
    6.6039   13.8328   23.9929 C   0  0  0  0  0  0  0  0  0  0  0  0
    7.2478   12.5022   24.4783 C   0  0  0  0  0  0  0  0  0  0  0  0
    7.4213   12.3305   25.9625 C   0  0  0  0  0  0  0  0  0  0  0  0
    7.9553   13.5514   26.5496 N   0  0  0  0  0  0  0  0  0  0  0  0
    9.4588   14.1669   26.1534 S   0  0  0  0  0  0  0  0  0  0  0  0
    9.7444   15.1444   27.1765 O   0  0  0  0  0  0  0  0  0  0  0  0
    9.4447   14.5983   24.7863 O   0  0  0  0  0  0  0  0  0  0  0  0
   10.6755   13.0165   26.2357 N   0  0  0  0  0  0  0  0  0  0  0  0
   10.7006   11.8182   25.3581 C   0  0  0  0  0  0  0  0  0  0  0  0
   12.0614   11.1333   25.5852 C   0  0  0  0  0  0  0  0  0  0  0  0
   13.2722   11.8833   25.1408 C   0  0  0  0  0  0  0  0  0  0  0  0
   12.8535   13.3156   24.9893 C   0  0  0  0  0  0  0  0  0  0  0  0
   11.9975   13.7357   26.1854 C   0  0  0  0  0  0  0  0  0  0  0  0
    6.8879   14.6076   26.4405 C   0  0  0  0  0  0  0  0  0  0  0  0
    6.6562   15.0097   24.9757 C   0  0  0  0  0  0  0  0  0  0  0  0
  1  2  1  0
  3  2  1  6
  3  4  1  0
  4  5  1  0
  5  6  1  0
  6  7  1  6
  7  8  1  0
  8  9  2  0
  8 10  1  0
 10 11  1  0
 11 12  1  0
 12 13  1  0
 13 14  1  0
 14 15  2  0
 14 16  2  0
 14 17  1  0
 17 18  1  0
 18 19  1  0
 19 20  1  0
 20 21  1  0
 21 22  1  0
 13 23  1  0
 23 24  1  0
  6  3  1  0
 24 10  1  0
 22 17  1  0
M  END
>  <energy_score>  (940) 
-8.891616

>  <inchikey>  (940) 
None

>  <smiles>  (940) 
None

>  <ref_pdb>  (940) 
A4706a

>  <alias>  (940) 
None

>  <HIPPO Pose ID>  (940) 
499753

>  <name>  (940) 
P499753

>  <HIPPO Compound ID>  (940) 
314360

>  <ref_mols>  (940) 
A4706a,A0875a

>  <distance_score>  (940) 
1.221382

>  <inspiration_score>  (940) 
None

$$$$
P499757
     RDKit          3D

 24 26  0  0  0  0  0  0  0  0999 V2000
    6.6848   13.3306   21.9134 O   0  0  0  0  0  0  0  0  0  0  0  0
    7.0167   14.2443   22.6688 C   0  0  0  0  0  0  0  0  0  0  0  0
    8.1142   15.0431   22.4571 O   0  0  0  0  0  0  0  0  0  0  0  0
    9.0956   14.5830   21.4651 C   0  0  2  0  0  0  0  0  0  0  0  0
   10.3575   14.0174   22.1209 C   0  0  0  0  0  0  0  0  0  0  0  0
   11.4725   14.2897   21.2919 O   0  0  0  0  0  0  0  0  0  0  0  0
   11.1811   15.5541   20.7170 C   0  0  0  0  0  0  0  0  0  0  0  0
    9.6782   15.6580   20.5568 C   0  0  1  0  0  0  0  0  0  0  0  0
    9.4184   15.3262   19.2521 F   0  0  0  0  0  0  0  0  0  0  0  0
    6.2076   14.5114   23.9756 C   0  0  0  0  0  0  0  0  0  0  0  0
    5.7475   13.1864   24.6524 C   0  0  0  0  0  0  0  0  0  0  0  0
    6.6746   12.5210   25.6938 C   0  0  0  0  0  0  0  0  0  0  0  0
    7.7708   13.4330   26.1217 N   0  0  0  0  0  0  0  0  0  0  0  0
    9.1068   13.4151   25.0981 S   0  0  0  0  0  0  0  0  0  0  0  0
    8.6452   12.7470   23.9077 O   0  0  0  0  0  0  0  0  0  0  0  0
    9.6671   14.7441   25.0812 O   0  0  0  0  0  0  0  0  0  0  0  0
   10.2185   12.3640   25.8080 N   0  0  0  0  0  0  0  0  0  0  0  0
   10.3428   11.0949   25.0062 C   0  0  0  0  0  0  0  0  0  0  0  0
   11.6057   10.3049   25.2817 C   0  0  0  0  0  0  0  0  0  0  0  0
   12.8863   11.1740   25.4156 C   0  0  0  0  0  0  0  0  0  0  0  0
   12.6007   12.6498   25.2227 C   0  0  0  0  0  0  0  0  0  0  0  0
   11.4995   13.0188   26.1943 C   0  0  0  0  0  0  0  0  0  0  0  0
    7.2018   14.7899   26.3514 C   0  0  0  0  0  0  0  0  0  0  0  0
    6.7865   15.4589   25.0318 C   0  0  0  0  0  0  0  0  0  0  0  0
  1  2  2  0
  2  3  1  0
  4  3  1  1
  4  5  1  0
  5  6  1  0
  6  7  1  0
  7  8  1  0
  8  9  1  6
  2 10  1  0
 10 11  1  0
 11 12  1  0
 12 13  1  0
 13 14  1  0
 14 15  2  0
 14 16  2  0
 14 17  1  0
 17 18  1  0
 18 19  1  0
 19 20  1  0
 20 21  1  0
 21 22  1  0
 13 23  1  0
 23 24  1  0
  8  4  1  0
 24 10  1  0
 22 17  1  0
M  END
>  <energy_score>  (941) 
-14.380543

>  <inchikey>  (941) 
None

>  <smiles>  (941) 
None

>  <ref_pdb>  (941) 
A4706a

>  <alias>  (941) 
None

>  <HIPPO Pose ID>  (941) 
499757

>  <name>  (941) 
P499757

>  <HIPPO Compound ID>  (941) 
314362

>  <ref_mols>  (941) 
A4706a,A0875a

>  <distance_score>  (941) 
1.640329

>  <inspiration_score>  (941) 
None

$$$$
P499760
     RDKit          3D

 24 26  0  0  0  0  0  0  0  0999 V2000
   10.1795   15.8195   19.1198 C   0  0  0  0  0  0  0  0  0  0  0  0
   10.2007   14.9725   20.3503 C   0  0  2  0  0  0  0  0  0  0  0  0
    8.8648   14.9323   21.0483 C   0  0  0  0  0  0  0  0  0  0  0  0
    9.2925   14.2770   22.3263 C   0  0  2  0  0  0  0  0  0  0  0  0
    8.3150   14.3457   23.3538 O   0  0  0  0  0  0  0  0  0  0  0  0
    7.2811   13.4859   23.2006 C   0  0  0  0  0  0  0  0  0  0  0  0
    6.9096   13.0151   22.1305 O   0  0  0  0  0  0  0  0  0  0  0  0
    6.6486   13.0343   24.4979 C   0  0  0  0  0  0  0  0  0  0  0  0
    7.4179   11.7991   25.0098 C   0  0  0  0  0  0  0  0  0  0  0  0
    8.4127   12.1378   26.1202 C   0  0  0  0  0  0  0  0  0  0  0  0
    8.9618   13.4637   25.8364 N   0  0  0  0  0  0  0  0  0  0  0  0
   10.4228   14.0031   26.4448 S   0  0  0  0  0  0  0  0  0  0  0  0
   10.8645   15.0675   25.5774 O   0  0  0  0  0  0  0  0  0  0  0  0
   10.1812   14.2392   27.8468 O   0  0  0  0  0  0  0  0  0  0  0  0
   11.5854   12.7593   26.3719 N   0  0  0  0  0  0  0  0  0  0  0  0
   12.7573   13.0443   27.2868 C   0  0  0  0  0  0  0  0  0  0  0  0
   14.1387   12.8348   26.6723 C   0  0  0  0  0  0  0  0  0  0  0  0
   14.2668   11.4708   26.1001 C   0  0  0  0  0  0  0  0  0  0  0  0
   13.1096   11.2582   25.1603 C   0  0  0  0  0  0  0  0  0  0  0  0
   12.0337   12.3604   25.0375 C   0  0  0  0  0  0  0  0  0  0  0  0
    7.9079   14.5288   26.0952 C   0  0  0  0  0  0  0  0  0  0  0  0
    6.5498   14.1356   25.5350 C   0  0  0  0  0  0  0  0  0  0  0  0
   10.5747   15.0541   22.6139 C   0  0  0  0  0  0  0  0  0  0  0  0
   11.1280   15.4333   21.3388 O   0  0  0  0  0  0  0  0  0  0  0  0
  2  1  1  6
  2  3  1  0
  3  4  1  0
  4  5  1  1
  5  6  1  0
  6  7  2  0
  6  8  1  0
  8  9  1  0
  9 10  1  0
 10 11  1  0
 11 12  1  0
 12 13  2  0
 12 14  2  0
 12 15  1  0
 15 16  1  0
 16 17  1  0
 17 18  1  0
 18 19  1  0
 19 20  1  0
 11 21  1  0
 21 22  1  0
  4 23  1  0
 23 24  1  0
 24  2  1  0
 22  8  1  0
 20 15  1  0
M  END
>  <energy_score>  (942) 
-40.811606

>  <inchikey>  (942) 
None

>  <smiles>  (942) 
None

>  <ref_pdb>  (942) 
A4706a

>  <alias>  (942) 
None

>  <HIPPO Pose ID>  (942) 
499760

>  <name>  (942) 
P499760

>  <HIPPO Compound ID>  (942) 
314363

>  <ref_mols>  (942) 
A4706a,A0875a

>  <distance_score>  (942) 
1.447994

>  <inspiration_score>  (942) 
None

$$$$
P499765
     RDKit          3D

 24 26  0  0  0  0  0  0  0  0999 V2000
    7.2838   13.9298   21.5852 O   0  0  0  0  0  0  0  0  0  0  0  0
    7.4072   14.6829   22.5426 C   0  0  0  0  0  0  0  0  0  0  0  0
    8.3586   15.6372   22.6555 O   0  0  0  0  0  0  0  0  0  0  0  0
    9.3525   15.9395   21.6670 C   0  0  1  0  0  0  0  0  0  0  0  0
   10.7212   15.8916   22.3411 C   0  0  0  0  0  0  0  0  0  0  0  0
   11.4009   14.6862   21.7680 C   0  0  0  0  0  0  0  0  0  0  0  0
   10.8663   14.5157   20.4739 O   0  0  0  0  0  0  0  0  0  0  0  0
    9.7656   15.2996   20.3294 C   0  0  0  0  0  0  0  0  0  0  0  0
    9.3067   15.5606   19.2310 O   0  0  0  0  0  0  0  0  0  0  0  0
    6.4481   14.6462   23.7798 C   0  0  0  0  0  0  0  0  0  0  0  0
    6.0221   13.2201   24.1789 C   0  0  0  0  0  0  0  0  0  0  0  0
    7.0477   12.4005   24.9842 C   0  0  0  0  0  0  0  0  0  0  0  0
    7.9588   13.2774   25.7787 N   0  0  0  0  0  0  0  0  0  0  0  0
    9.4377   13.6306   25.0481 S   0  0  0  0  0  0  0  0  0  0  0  0
    9.3164   13.3001   23.6540 O   0  0  0  0  0  0  0  0  0  0  0  0
    9.8634   14.9415   25.4745 O   0  0  0  0  0  0  0  0  0  0  0  0
   10.5307   12.4956   25.7091 N   0  0  0  0  0  0  0  0  0  0  0  0
   10.4826   11.2090   24.9459 C   0  0  0  0  0  0  0  0  0  0  0  0
   11.6450   10.2746   25.2438 C   0  0  0  0  0  0  0  0  0  0  0  0
   13.0144   10.9926   25.3779 C   0  0  0  0  0  0  0  0  0  0  0  0
   12.9413   12.1802   26.3061 C   0  0  0  0  0  0  0  0  0  0  0  0
   11.8800   13.1305   25.8012 C   0  0  0  0  0  0  0  0  0  0  0  0
    7.2173   14.4802   26.2485 C   0  0  0  0  0  0  0  0  0  0  0  0
    6.8563   15.3940   25.0659 C   0  0  0  0  0  0  0  0  0  0  0  0
  1  2  2  0
  2  3  1  0
  4  3  1  1
  4  5  1  0
  5  6  1  0
  6  7  1  0
  7  8  1  0
  8  9  2  0
  2 10  1  0
 10 11  1  0
 11 12  1  0
 12 13  1  0
 13 14  1  0
 14 15  2  0
 14 16  2  0
 14 17  1  0
 17 18  1  0
 18 19  1  0
 19 20  1  0
 20 21  1  0
 21 22  1  0
 13 23  1  0
 23 24  1  0
  8  4  1  0
 24 10  1  0
 22 17  1  0
M  END
>  <energy_score>  (943) 
-27.022074

>  <inchikey>  (943) 
None

>  <smiles>  (943) 
None

>  <ref_pdb>  (943) 
A4706a

>  <alias>  (943) 
None

>  <HIPPO Pose ID>  (943) 
499765

>  <name>  (943) 
P499765

>  <HIPPO Compound ID>  (943) 
314364

>  <ref_mols>  (943) 
A4706a,A0875a

>  <distance_score>  (943) 
1.454968

>  <inspiration_score>  (943) 
None

$$$$
P499769
     RDKit          3D

 24 26  0  0  0  0  0  0  0  0999 V2000
   17.6045    9.6191   27.8853 C   0  0  0  0  0  0  0  0  0  0  0  0
   16.5757   10.1043   27.1772 C   0  0  0  0  0  0  0  0  0  0  0  0
   15.7531   11.2975   27.5726 C   0  0  0  0  0  0  0  0  0  0  0  0
   14.4302   11.3947   26.9247 O   0  0  0  0  0  0  0  0  0  0  0  0
   14.4230   11.7540   25.6273 C   0  0  0  0  0  0  0  0  0  0  0  0
   15.4140   11.7952   24.9173 O   0  0  0  0  0  0  0  0  0  0  0  0
   13.0722   12.0512   25.0193 C   0  0  0  0  0  0  0  0  0  0  0  0
   12.6929   13.4947   24.8207 C   0  0  0  0  0  0  0  0  0  0  0  0
   11.6838   13.9548   25.8535 C   0  0  0  0  0  0  0  0  0  0  0  0
   10.4125   13.2019   25.6876 N   0  0  0  0  0  0  0  0  0  0  0  0
    9.1404   14.1428   25.1021 S   0  0  0  0  0  0  0  0  0  0  0  0
    9.1195   14.0497   23.6655 O   0  0  0  0  0  0  0  0  0  0  0  0
    9.2545   15.4069   25.7875 O   0  0  0  0  0  0  0  0  0  0  0  0
    7.8204   13.3535   25.7479 N   0  0  0  0  0  0  0  0  0  0  0  0
    7.2491   12.1883   25.0557 C   0  0  0  0  0  0  0  0  0  0  0  0
    6.6319   11.3135   26.1414 C   0  0  0  0  0  0  0  0  0  0  0  0
    5.5419   12.0755   26.8969 C   0  0  0  0  0  0  0  0  0  0  0  0
    6.0434   13.4233   27.4100 C   0  0  0  0  0  0  0  0  0  0  0  0
    6.7507   14.2151   26.3137 C   0  0  0  0  0  0  0  0  0  0  0  0
   10.5726   11.8398   25.1503 C   0  0  0  0  0  0  0  0  0  0  0  0
   11.9272   11.3042   25.5987 C   0  0  0  0  0  0  0  0  0  0  0  0
   15.6197   11.6476   29.0912 C   0  0  0  0  0  0  0  0  0  0  0  0
   15.8767   13.0594   28.7645 O   0  0  0  0  0  0  0  0  0  0  0  0
   16.6076   12.5836   27.5901 C   0  0  0  0  0  0  0  0  0  0  0  0
  1  2  2  0
  2  3  1  0
  3  4  1  0
  4  5  1  0
  5  6  2  0
  5  7  1  0
  7  8  1  0
  8  9  1  0
  9 10  1  0
 10 11  1  0
 11 12  2  0
 11 13  2  0
 11 14  1  0
 14 15  1  0
 15 16  1  0
 16 17  1  0
 17 18  1  0
 18 19  1  0
 10 20  1  0
 20 21  1  0
  3 22  1  0
 22 23  1  0
 23 24  1  0
 24  3  1  0
 21  7  1  0
 19 14  1  0
M  END
>  <energy_score>  (944) 
-69.611322

>  <inchikey>  (944) 
None

>  <smiles>  (944) 
None

>  <ref_pdb>  (944) 
A4706a

>  <alias>  (944) 
None

>  <HIPPO Pose ID>  (944) 
499769

>  <name>  (944) 
P499769

>  <HIPPO Compound ID>  (944) 
314368

>  <ref_mols>  (944) 
A0875a,A4706a

>  <distance_score>  (944) 
1.210102

>  <inspiration_score>  (944) 
None

$$$$
P499771
     RDKit          3D

 24 25  0  0  0  0  0  0  0  0999 V2000
   19.2076   13.4234   29.4670 C   0  0  0  0  0  0  0  0  0  0  0  0
   18.3576   12.2908   29.3240 O   0  0  0  0  0  0  0  0  0  0  0  0
   17.2758   12.5561   28.4331 C   0  0  0  0  0  0  0  0  0  0  0  0
   16.4023   11.2978   28.1849 C   0  0  0  0  0  0  0  0  0  0  0  0
   17.3219   10.1646   27.7028 C   0  0  0  0  0  0  0  0  0  0  0  0
   15.7270   10.9246   29.5119 C   0  0  0  0  0  0  0  0  0  0  0  0
   15.3391   11.7251   27.2508 O   0  0  0  0  0  0  0  0  0  0  0  0
   14.8168   10.9828   26.2485 C   0  0  0  0  0  0  0  0  0  0  0  0
   15.1427    9.8429   25.9490 O   0  0  0  0  0  0  0  0  0  0  0  0
   13.7313   11.6818   25.4253 C   0  0  0  0  0  0  0  0  0  0  0  0
   13.4484   13.1257   25.7592 C   0  0  0  0  0  0  0  0  0  0  0  0
   12.1030   13.4396   26.4740 C   0  0  0  0  0  0  0  0  0  0  0  0
   10.9181   12.8503   25.7838 N   0  0  0  0  0  0  0  0  0  0  0  0
    9.6743   13.9300   25.4393 S   0  0  0  0  0  0  0  0  0  0  0  0
   10.0690   14.7166   24.2963 O   0  0  0  0  0  0  0  0  0  0  0  0
    9.3418   14.5618   26.6938 O   0  0  0  0  0  0  0  0  0  0  0  0
    8.3718   12.9460   24.9930 N   0  0  0  0  0  0  0  0  0  0  0  0
    8.0930   11.7375   25.8090 C   0  0  0  0  0  0  0  0  0  0  0  0
    6.6373   11.6065   26.2345 C   0  0  0  0  0  0  0  0  0  0  0  0
    6.1240   12.9000   26.8414 C   0  0  0  0  0  0  0  0  0  0  0  0
    6.3240   14.0799   25.8910 C   0  0  0  0  0  0  0  0  0  0  0  0
    7.1465   13.7299   24.6492 C   0  0  0  0  0  0  0  0  0  0  0  0
   11.2805   11.8739   24.7678 C   0  0  0  0  0  0  0  0  0  0  0  0
   12.3895   11.0138   25.4053 C   0  0  0  0  0  0  0  0  0  0  0  0
  1  2  1  0
  2  3  1  0
  3  4  1  0
  4  5  1  0
  4  6  1  0
  4  7  1  0
  7  8  1  0
  8  9  2  0
  8 10  1  0
 10 11  1  0
 11 12  1  0
 12 13  1  0
 13 14  1  0
 14 15  2  0
 14 16  2  0
 14 17  1  0
 17 18  1  0
 18 19  1  0
 19 20  1  0
 20 21  1  0
 21 22  1  0
 13 23  1  0
 23 24  1  0
 24 10  1  0
 22 17  1  0
M  END
>  <energy_score>  (945) 
-47.091694

>  <inchikey>  (945) 
None

>  <smiles>  (945) 
None

>  <ref_pdb>  (945) 
A4706a

>  <alias>  (945) 
None

>  <HIPPO Pose ID>  (945) 
499771

>  <name>  (945) 
P499771

>  <HIPPO Compound ID>  (945) 
314370

>  <ref_mols>  (945) 
A0875a,A4706a

>  <distance_score>  (945) 
1.292934

>  <inspiration_score>  (945) 
None

$$$$
P499772
     RDKit          3D

 24 26  0  0  0  0  0  0  0  0999 V2000
   14.7767   12.9184   28.9296 C   0  0  0  0  0  0  0  0  0  0  0  0
   15.3331   12.0188   27.8203 C   0  0  2  0  0  0  0  0  0  0  0  0
   14.2018   11.3391   27.2309 O   0  0  0  0  0  0  0  0  0  0  0  0
   13.7202   11.8548   26.0627 C   0  0  0  0  0  0  0  0  0  0  0  0
   14.3602   12.0283   25.0398 O   0  0  0  0  0  0  0  0  0  0  0  0
   12.2665   12.2316   26.2533 C   0  0  0  0  0  0  0  0  0  0  0  0
   12.1248   13.7196   26.1725 C   0  0  0  0  0  0  0  0  0  0  0  0
   10.6920   14.1198   26.0376 C   0  0  0  0  0  0  0  0  0  0  0  0
   10.1939   13.6234   24.7584 N   0  0  0  0  0  0  0  0  0  0  0  0
    8.6809   14.1517   24.3520 S   0  0  0  0  0  0  0  0  0  0  0  0
    8.3673   13.7444   23.0098 O   0  0  0  0  0  0  0  0  0  0  0  0
    8.6334   15.5211   24.7915 O   0  0  0  0  0  0  0  0  0  0  0  0
    7.7350   13.2861   25.4468 N   0  0  0  0  0  0  0  0  0  0  0  0
    7.2719   11.9572   25.0058 C   0  0  0  0  0  0  0  0  0  0  0  0
    6.8035   11.1898   26.2327 C   0  0  0  0  0  0  0  0  0  0  0  0
    5.7105   11.9385   26.9910 C   0  0  0  0  0  0  0  0  0  0  0  0
    6.1218   13.3741   27.2892 C   0  0  0  0  0  0  0  0  0  0  0  0
    6.6107   14.0777   26.0294 C   0  0  0  0  0  0  0  0  0  0  0  0
   10.7805   12.4004   24.2000 C   0  0  0  0  0  0  0  0  0  0  0  0
   11.2428   11.5206   25.3590 C   0  0  0  0  0  0  0  0  0  0  0  0
   16.3174   11.0297   28.4060 C   0  0  2  0  0  0  0  0  0  0  0  0
   15.9662   10.2962   29.6666 C   0  0  0  0  0  0  0  0  0  0  0  0
   17.7952   11.2126   28.1276 C   0  0  0  0  0  0  0  0  0  0  0  0
   17.0061   10.2458   27.4225 O   0  0  0  0  0  0  0  0  0  0  0  0
  2  1  1  1
  2  3  1  0
  3  4  1  0
  4  5  2  0
  4  6  1  0
  6  7  1  0
  7  8  1  0
  8  9  1  0
  9 10  1  0
 10 11  2  0
 10 12  2  0
 10 13  1  0
 13 14  1  0
 14 15  1  0
 15 16  1  0
 16 17  1  0
 17 18  1  0
  9 19  1  0
 19 20  1  0
  2 21  1  0
 21 22  1  1
 21 23  1  0
 23 24  1  0
 20  6  1  0
 24 21  1  0
 18 13  1  0
M  END
>  <energy_score>  (946) 
-63.498258

>  <inchikey>  (946) 
None

>  <smiles>  (946) 
None

>  <ref_pdb>  (946) 
A4706a

>  <alias>  (946) 
None

>  <HIPPO Pose ID>  (946) 
499772

>  <name>  (946) 
P499772

>  <HIPPO Compound ID>  (946) 
314372

>  <ref_mols>  (946) 
A4706a,A0875a

>  <distance_score>  (946) 
1.571579

>  <inspiration_score>  (946) 
None

$$$$
P499776
     RDKit          3D

 24 25  0  0  0  0  0  0  0  0999 V2000
   13.9732   10.1522   31.2415 C   0  0  0  0  0  0  0  0  0  0  0  0
   13.6934   11.0522   30.1698 O   0  0  0  0  0  0  0  0  0  0  0  0
   14.8703   11.3779   29.4341 C   0  0  0  0  0  0  0  0  0  0  0  0
   14.6609   12.6483   28.6063 C   0  0  2  0  0  0  0  0  0  0  0  0
   14.3652   13.7719   29.5201 C   0  0  0  0  0  0  0  0  0  0  0  0
   14.2363   14.6849   30.2256 N   0  0  0  0  0  0  0  0  0  0  0  0
   13.6420   12.5510   27.5683 O   0  0  0  0  0  0  0  0  0  0  0  0
   14.0747   12.0796   26.3721 C   0  0  0  0  0  0  0  0  0  0  0  0
   15.2042   11.6422   26.1900 O   0  0  0  0  0  0  0  0  0  0  0  0
   13.0403   12.1018   25.2401 C   0  0  0  0  0  0  0  0  0  0  0  0
   12.6955   13.4671   24.6914 C   0  0  0  0  0  0  0  0  0  0  0  0
   11.5399   14.1292   25.4216 C   0  0  0  0  0  0  0  0  0  0  0  0
   10.3089   13.3073   25.3459 N   0  0  0  0  0  0  0  0  0  0  0  0
    8.9464   14.1740   24.9113 S   0  0  0  0  0  0  0  0  0  0  0  0
    8.7813   14.0726   23.4851 O   0  0  0  0  0  0  0  0  0  0  0  0
    9.0872   15.4412   25.5863 O   0  0  0  0  0  0  0  0  0  0  0  0
    7.7293   13.3440   25.6954 N   0  0  0  0  0  0  0  0  0  0  0  0
    7.1087   12.1794   25.0442 C   0  0  0  0  0  0  0  0  0  0  0  0
    6.6004   11.2890   26.1724 C   0  0  0  0  0  0  0  0  0  0  0  0
    5.5584   12.0279   27.0132 C   0  0  0  0  0  0  0  0  0  0  0  0
    6.0725   13.3840   27.4894 C   0  0  0  0  0  0  0  0  0  0  0  0
    6.6946   14.1890   26.3522 C   0  0  0  0  0  0  0  0  0  0  0  0
   10.5067   11.9447   24.8544 C   0  0  0  0  0  0  0  0  0  0  0  0
   11.7445   11.4282   25.5775 C   0  0  0  0  0  0  0  0  0  0  0  0
  1  2  1  0
  2  3  1  0
  4  3  1  1
  4  5  1  0
  5  6  3  0
  4  7  1  0
  7  8  1  0
  8  9  2  0
  8 10  1  0
 10 11  1  0
 11 12  1  0
 12 13  1  0
 13 14  1  0
 14 15  2  0
 14 16  2  0
 14 17  1  0
 17 18  1  0
 18 19  1  0
 19 20  1  0
 20 21  1  0
 21 22  1  0
 13 23  1  0
 23 24  1  0
 24 10  1  0
 22 17  1  0
M  END
>  <energy_score>  (947) 
-38.675822

>  <inchikey>  (947) 
None

>  <smiles>  (947) 
None

>  <ref_pdb>  (947) 
A4706a

>  <alias>  (947) 
None

>  <HIPPO Pose ID>  (947) 
499776

>  <name>  (947) 
P499776

>  <HIPPO Compound ID>  (947) 
314376

>  <ref_mols>  (947) 
A0875a,A4706a

>  <distance_score>  (947) 
1.525239

>  <inspiration_score>  (947) 
None

$$$$
P499779
     RDKit          3D

 25 26  0  0  0  0  0  0  0  0999 V2000
   19.2270   10.0362   27.4565 C   0  0  0  0  0  0  0  0  0  0  0  0
   18.2103   10.9232   27.9029 O   0  0  0  0  0  0  0  0  0  0  0  0
   16.9009   10.4465   27.5875 C   0  0  0  0  0  0  0  0  0  0  0  0
   15.8483   11.3501   28.2658 C   0  0  1  0  0  0  0  0  0  0  0  0
   14.6605   11.4227   27.3963 O   0  0  0  0  0  0  0  0  0  0  0  0
   14.1256   12.6672   27.3268 C   0  0  0  0  0  0  0  0  0  0  0  0
   14.5082   13.5950   28.0403 O   0  0  0  0  0  0  0  0  0  0  0  0
   13.0792   12.9240   26.2418 C   0  0  0  0  0  0  0  0  0  0  0  0
   11.9674   13.8280   26.8125 C   0  0  0  0  0  0  0  0  0  0  0  0
   10.5902   13.2403   26.6983 C   0  0  0  0  0  0  0  0  0  0  0  0
   10.2622   12.9140   25.3087 N   0  0  0  0  0  0  0  0  0  0  0  0
    9.1465   13.9788   24.6329 S   0  0  0  0  0  0  0  0  0  0  0  0
    8.9693   13.6838   23.2366 O   0  0  0  0  0  0  0  0  0  0  0  0
    9.5095   15.2867   25.1146 O   0  0  0  0  0  0  0  0  0  0  0  0
    7.8027   13.4445   25.4787 N   0  0  0  0  0  0  0  0  0  0  0  0
    7.2707   12.1143   25.1207 C   0  0  0  0  0  0  0  0  0  0  0  0
    6.5092   11.5818   26.3287 C   0  0  0  0  0  0  0  0  0  0  0  0
    5.4105   12.5510   26.7639 C   0  0  0  0  0  0  0  0  0  0  0  0
    5.9489   13.9709   26.9443 C   0  0  0  0  0  0  0  0  0  0  0  0
    6.7278   14.4302   25.7123 C   0  0  0  0  0  0  0  0  0  0  0  0
   11.3978   12.5393   24.4589 C   0  0  0  0  0  0  0  0  0  0  0  0
   12.5024   11.8666   25.3172 C   0  0  0  0  0  0  0  0  0  0  0  0
   15.4961   10.8693   29.7075 C   0  0  0  0  0  0  0  0  0  0  0  0
   16.7329   10.7785   30.6095 C   0  0  0  0  0  0  0  0  0  0  0  0
   14.4521   11.7485   30.3995 C   0  0  0  0  0  0  0  0  0  0  0  0
  1  2  1  0
  2  3  1  0
  4  3  1  6
  4  5  1  0
  5  6  1  0
  6  7  2  0
  6  8  1  0
  8  9  1  0
  9 10  1  0
 10 11  1  0
 11 12  1  0
 12 13  2  0
 12 14  2  0
 12 15  1  0
 15 16  1  0
 16 17  1  0
 17 18  1  0
 18 19  1  0
 19 20  1  0
 11 21  1  0
 21 22  1  0
  4 23  1  0
 23 24  1  0
 23 25  1  0
 22  8  1  0
 20 15  1  0
M  END
>  <energy_score>  (948) 
-61.473322

>  <inchikey>  (948) 
None

>  <smiles>  (948) 
None

>  <ref_pdb>  (948) 
A4706a

>  <alias>  (948) 
None

>  <HIPPO Pose ID>  (948) 
499779

>  <name>  (948) 
P499779

>  <HIPPO Compound ID>  (948) 
314380

>  <ref_mols>  (948) 
A4706a,A0875a

>  <distance_score>  (948) 
1.983793

>  <inspiration_score>  (948) 
None

$$$$
P499781
     RDKit          3D

 25 27  0  0  0  0  0  0  0  0999 V2000
   10.9192   14.8947   18.6847 C   0  0  0  0  0  0  0  0  0  0  0  0
   10.0160   15.3593   19.6765 O   0  0  0  0  0  0  0  0  0  0  0  0
    9.7482   14.3952   20.7041 C   0  0  1  0  0  0  0  0  0  0  0  0
   10.9642   14.2489   21.6058 C   0  0  0  0  0  0  0  0  0  0  0  0
   10.9063   15.5016   22.4340 C   0  0  0  0  0  0  0  0  0  0  0  0
    9.4257   15.8771   22.4719 C   0  0  0  0  0  0  0  0  0  0  0  0
    8.6216   14.9192   21.6068 C   0  0  2  0  0  0  0  0  0  0  0  0
    7.9120   13.8923   22.3721 O   0  0  0  0  0  0  0  0  0  0  0  0
    7.0191   14.3700   23.2952 C   0  0  0  0  0  0  0  0  0  0  0  0
    6.6692   15.5457   23.3521 O   0  0  0  0  0  0  0  0  0  0  0  0
    6.4227   13.3331   24.2734 C   0  0  0  0  0  0  0  0  0  0  0  0
    7.1908   12.0422   24.6086 C   0  0  0  0  0  0  0  0  0  0  0  0
    7.8861   12.0264   25.9782 C   0  0  0  0  0  0  0  0  0  0  0  0
    8.4153   13.3610   26.3408 N   0  0  0  0  0  0  0  0  0  0  0  0
    9.7705   13.8370   25.4627 S   0  0  0  0  0  0  0  0  0  0  0  0
    9.5545   13.3347   24.1382 O   0  0  0  0  0  0  0  0  0  0  0  0
   10.0447   15.2290   25.7045 O   0  0  0  0  0  0  0  0  0  0  0  0
   11.0423   12.8913   26.0914 N   0  0  0  0  0  0  0  0  0  0  0  0
   11.7124   12.1464   25.0026 C   0  0  0  0  0  0  0  0  0  0  0  0
   12.8563   11.2537   25.4741 C   0  0  0  0  0  0  0  0  0  0  0  0
   13.5133   11.6763   26.7767 C   0  0  0  0  0  0  0  0  0  0  0  0
   13.4233   13.1491   26.8463 C   0  0  0  0  0  0  0  0  0  0  0  0
   11.9739   13.6380   26.9686 C   0  0  0  0  0  0  0  0  0  0  0  0
    7.3227   14.3891   26.4205 C   0  0  0  0  0  0  0  0  0  0  0  0
    6.0785   14.0183   25.6076 C   0  0  0  0  0  0  0  0  0  0  0  0
  1  2  1  0
  3  2  1  6
  3  4  1  0
  4  5  1  0
  5  6  1  0
  6  7  1  0
  7  8  1  1
  8  9  1  0
  9 10  2  0
  9 11  1  0
 11 12  1  0
 12 13  1  0
 13 14  1  0
 14 15  1  0
 15 16  2  0
 15 17  2  0
 15 18  1  0
 18 19  1  0
 19 20  1  0
 20 21  1  0
 21 22  1  0
 22 23  1  0
 14 24  1  0
 24 25  1  0
  7  3  1  0
 25 11  1  0
 23 18  1  0
M  END
>  <energy_score>  (949) 
-25.710006

>  <inchikey>  (949) 
None

>  <smiles>  (949) 
None

>  <ref_pdb>  (949) 
A4706a

>  <alias>  (949) 
None

>  <HIPPO Pose ID>  (949) 
499781

>  <name>  (949) 
P499781

>  <HIPPO Compound ID>  (949) 
314381

>  <ref_mols>  (949) 
A0875a,A4706a

>  <distance_score>  (949) 
1.530288

>  <inspiration_score>  (949) 
None

$$$$
P499784
     RDKit          3D

 25 26  0  0  0  0  0  0  0  0999 V2000
   17.1705   10.1440   30.0353 C   0  0  0  0  0  0  0  0  0  0  0  0
   17.4174   11.2997   29.0838 C   0  0  0  0  0  0  0  0  0  0  0  0
   17.0167   10.9363   27.7543 O   0  0  0  0  0  0  0  0  0  0  0  0
   15.7052   11.1238   27.4504 C   0  0  0  0  0  0  0  0  0  0  0  0
   14.8546   11.5729   28.2124 O   0  0  0  0  0  0  0  0  0  0  0  0
   15.4154   10.7111   26.0006 C   0  0  1  0  0  0  0  0  0  0  0  0
   15.7744    9.2804   25.6902 C   0  0  0  0  0  0  0  0  0  0  0  0
   14.0203   10.9235   25.6888 O   0  0  0  0  0  0  0  0  0  0  0  0
   13.8003   12.2381   25.4806 C   0  0  0  0  0  0  0  0  0  0  0  0
   14.7031   13.0620   25.4234 O   0  0  0  0  0  0  0  0  0  0  0  0
   12.3833   12.6679   25.3501 C   0  0  0  0  0  0  0  0  0  0  0  0
   12.1766   13.5651   24.1483 C   0  0  0  0  0  0  0  0  0  0  0  0
   10.8845   14.3125   24.3142 C   0  0  0  0  0  0  0  0  0  0  0  0
    9.7343   13.4466   24.7456 N   0  0  0  0  0  0  0  0  0  0  0  0
    8.4847   14.4907   25.1642 S   0  0  0  0  0  0  0  0  0  0  0  0
    7.9886   15.0628   23.9408 O   0  0  0  0  0  0  0  0  0  0  0  0
    9.0020   15.3182   26.2319 O   0  0  0  0  0  0  0  0  0  0  0  0
    7.3381   13.5126   25.8430 N   0  0  0  0  0  0  0  0  0  0  0  0
    6.7796   12.3660   25.1177 C   0  0  0  0  0  0  0  0  0  0  0  0
    6.3955   11.3629   26.2101 C   0  0  0  0  0  0  0  0  0  0  0  0
    5.3699   11.9658   27.1749 C   0  0  0  0  0  0  0  0  0  0  0  0
    5.8200   13.3223   27.7150 C   0  0  0  0  0  0  0  0  0  0  0  0
    6.2811   14.2369   26.5877 C   0  0  0  0  0  0  0  0  0  0  0  0
   10.0480   12.4049   25.7523 C   0  0  0  0  0  0  0  0  0  0  0  0
   11.2660   11.6595   25.2643 C   0  0  0  0  0  0  0  0  0  0  0  0
  1  2  1  0
  2  3  1  0
  3  4  1  0
  4  5  2  0
  4  6  1  0
  6  7  1  1
  6  8  1  0
  8  9  1  0
  9 10  2  0
  9 11  1  0
 11 12  1  0
 12 13  1  0
 13 14  1  0
 14 15  1  0
 15 16  2  0
 15 17  2  0
 15 18  1  0
 18 19  1  0
 19 20  1  0
 20 21  1  0
 21 22  1  0
 22 23  1  0
 14 24  1  0
 24 25  1  0
 25 11  1  0
 23 18  1  0
M  END
>  <energy_score>  (950) 
-73.99122

>  <inchikey>  (950) 
None

>  <smiles>  (950) 
None

>  <ref_pdb>  (950) 
A4706a

>  <alias>  (950) 
None

>  <HIPPO Pose ID>  (950) 
499784

>  <name>  (950) 
P499784

>  <HIPPO Compound ID>  (950) 
314382

>  <ref_mols>  (950) 
A4706a,A0875a

>  <distance_score>  (950) 
1.612828

>  <inspiration_score>  (950) 
None

$$$$
P499785
     RDKit          3D

 25 27  0  0  0  0  0  0  0  0999 V2000
   18.1261   13.3892   29.1877 C   0  0  0  0  0  0  0  0  0  0  0  0
   17.4964   12.1158   29.1858 O   0  0  0  0  0  0  0  0  0  0  0  0
   16.5939   11.9178   28.0922 C   0  0  0  0  0  0  0  0  0  0  0  0
   15.1666   12.4125   28.4015 C   0  0  1  0  0  0  0  0  0  0  0  0
   14.3694   12.7005   27.1983 O   0  0  0  0  0  0  0  0  0  0  0  0
   14.2366   11.7337   26.2619 C   0  0  0  0  0  0  0  0  0  0  0  0
   14.8224   10.6580   26.2796 O   0  0  0  0  0  0  0  0  0  0  0  0
   13.1925   11.9957   25.1785 C   0  0  0  0  0  0  0  0  0  0  0  0
   12.8215   13.4130   24.8274 C   0  0  0  0  0  0  0  0  0  0  0  0
   11.7193   13.9707   25.7162 C   0  0  0  0  0  0  0  0  0  0  0  0
   10.4573   13.2096   25.5370 N   0  0  0  0  0  0  0  0  0  0  0  0
    9.1545   14.1489   25.0398 S   0  0  0  0  0  0  0  0  0  0  0  0
    9.0691   14.0971   23.6038 O   0  0  0  0  0  0  0  0  0  0  0  0
    9.2954   15.3945   25.7556 O   0  0  0  0  0  0  0  0  0  0  0  0
    7.8599   13.3451   25.7225 N   0  0  0  0  0  0  0  0  0  0  0  0
    7.2656   12.1921   25.0257 C   0  0  0  0  0  0  0  0  0  0  0  0
    6.6623   11.3092   26.1129 C   0  0  0  0  0  0  0  0  0  0  0  0
    5.5805   12.0676   26.8835 C   0  0  0  0  0  0  0  0  0  0  0  0
    6.0887   13.4119   27.3990 C   0  0  0  0  0  0  0  0  0  0  0  0
    6.7963   14.2075   26.3053 C   0  0  0  0  0  0  0  0  0  0  0  0
   10.6313   11.8672   24.9710 C   0  0  0  0  0  0  0  0  0  0  0  0
   11.9201   11.2988   25.5528 C   0  0  0  0  0  0  0  0  0  0  0  0
   14.3662   11.5683   29.3616 C   0  0  0  0  0  0  0  0  0  0  0  0
   14.4572   11.8600   30.8449 C   0  0  0  0  0  0  0  0  0  0  0  0
   14.9526   10.5499   30.3153 C   0  0  0  0  0  0  0  0  0  0  0  0
  1  2  1  0
  2  3  1  0
  4  3  1  6
  4  5  1  0
  5  6  1  0
  6  7  2  0
  6  8  1  0
  8  9  1  0
  9 10  1  0
 10 11  1  0
 11 12  1  0
 12 13  2  0
 12 14  2  0
 12 15  1  0
 15 16  1  0
 16 17  1  0
 17 18  1  0
 18 19  1  0
 19 20  1  0
 11 21  1  0
 21 22  1  0
  4 23  1  0
 23 24  1  0
 24 25  1  0
 22  8  1  0
 25 23  1  0
 20 15  1  0
M  END
>  <energy_score>  (951) 
-54.935125

>  <inchikey>  (951) 
None

>  <smiles>  (951) 
None

>  <ref_pdb>  (951) 
A4706a

>  <alias>  (951) 
None

>  <HIPPO Pose ID>  (951) 
499785

>  <name>  (951) 
P499785

>  <HIPPO Compound ID>  (951) 
314383

>  <ref_mols>  (951) 
A4706a,A0875a

>  <distance_score>  (951) 
1.441194

>  <inspiration_score>  (951) 
None

$$$$
P499787
     RDKit          3D

 25 28  0  0  0  0  0  0  0  0999 V2000
    7.0725   13.0262   21.9768 O   0  0  0  0  0  0  0  0  0  0  0  0
    7.4072   13.8103   22.8651 C   0  0  0  0  0  0  0  0  0  0  0  0
    8.6485   14.3865   22.9260 O   0  0  0  0  0  0  0  0  0  0  0  0
    9.5617   13.9615   21.8581 C   0  0  1  0  0  0  0  0  0  0  0  0
    9.2826   14.6921   20.5393 C   0  0  0  0  0  0  0  0  0  0  0  0
    9.7062   16.1543   20.5393 C   0  0  0  0  0  0  0  0  0  0  0  0
   10.6271   16.4560   21.7001 C   0  0  0  0  0  0  0  0  0  0  0  0
   11.6382   15.4035   21.9131 C   0  0  1  0  0  0  0  0  0  0  0  0
   11.5912   14.7758   23.1955 O   0  0  0  0  0  0  0  0  0  0  0  0
   11.0517   14.0508   22.1034 C   0  0  1  0  0  0  0  0  0  0  0  0
    6.4067   14.0543   23.9931 C   0  0  0  0  0  0  0  0  0  0  0  0
    6.3333   12.8183   24.9400 C   0  0  0  0  0  0  0  0  0  0  0  0
    7.3321   12.8547   26.1061 C   0  0  0  0  0  0  0  0  0  0  0  0
    8.1599   14.0264   25.8668 N   0  0  0  0  0  0  0  0  0  0  0  0
    9.7525   14.1471   26.2490 S   0  0  0  0  0  0  0  0  0  0  0  0
    9.8393   14.2457   27.6834 O   0  0  0  0  0  0  0  0  0  0  0  0
   10.3060   15.1874   25.4216 O   0  0  0  0  0  0  0  0  0  0  0  0
   10.4272   12.6705   25.8272 N   0  0  0  0  0  0  0  0  0  0  0  0
   10.1271   12.0897   24.5145 C   0  0  0  0  0  0  0  0  0  0  0  0
   10.2458   10.5888   24.6482 C   0  0  0  0  0  0  0  0  0  0  0  0
   11.5984   10.2163   25.2427 C   0  0  0  0  0  0  0  0  0  0  0  0
   12.5496   11.4129   25.5138 C   0  0  0  0  0  0  0  0  0  0  0  0
   11.8784   12.6353   26.1286 C   0  0  0  0  0  0  0  0  0  0  0  0
    7.3771   15.2640   25.9890 C   0  0  0  0  0  0  0  0  0  0  0  0
    6.5523   15.3851   24.7220 C   0  0  0  0  0  0  0  0  0  0  0  0
  1  2  2  0
  2  3  1  0
  4  3  1  1
  4  5  1  0
  5  6  1  0
  6  7  1  0
  8  7  1  1
  8  9  1  0
 10  9  1  1
  2 11  1  0
 11 12  1  0
 12 13  1  0
 13 14  1  0
 14 15  1  0
 15 16  2  0
 15 17  2  0
 15 18  1  0
 18 19  1  0
 19 20  1  0
 20 21  1  0
 21 22  1  0
 22 23  1  0
 14 24  1  0
 24 25  1  0
 10  4  1  0
 25 11  1  0
 10  8  1  0
 23 18  1  0
M  END
>  <energy_score>  (952) 
-35.436089

>  <inchikey>  (952) 
None

>  <smiles>  (952) 
None

>  <ref_pdb>  (952) 
A4706a

>  <alias>  (952) 
None

>  <HIPPO Pose ID>  (952) 
499787

>  <name>  (952) 
P499787

>  <HIPPO Compound ID>  (952) 
314386

>  <ref_mols>  (952) 
A4706a,A0875a

>  <distance_score>  (952) 
1.720056

>  <inspiration_score>  (952) 
None

$$$$
P499790
     RDKit          3D

 25 27  0  0  0  0  0  0  0  0999 V2000
   10.8508   14.6821   18.5809 C   0  0  0  0  0  0  0  0  0  0  0  0
    9.8334   14.9533   19.5860 N   0  0  0  0  0  0  0  0  0  0  0  0
   10.4526   15.2171   20.8537 C   0  0  2  0  0  0  0  0  0  0  0  0
   11.0382   14.0625   21.6398 C   0  0  0  0  0  0  0  0  0  0  0  0
   11.5376   14.6705   22.8371 O   0  0  0  0  0  0  0  0  0  0  0  0
   10.8643   15.9387   22.9396 C   0  0  0  0  0  0  0  0  0  0  0  0
    9.7118   16.0027   21.9213 C   0  0  2  0  0  0  0  0  0  0  0  0
    8.4978   15.6094   22.6291 O   0  0  0  0  0  0  0  0  0  0  0  0
    7.6803   14.5600   22.4361 C   0  0  0  0  0  0  0  0  0  0  0  0
    7.6796   13.8313   21.4530 O   0  0  0  0  0  0  0  0  0  0  0  0
    6.7144   14.2893   23.6412 C   0  0  0  0  0  0  0  0  0  0  0  0
    6.8796   12.8122   24.0990 C   0  0  0  0  0  0  0  0  0  0  0  0
    7.1779   12.4878   25.5587 C   0  0  0  0  0  0  0  0  0  0  0  0
    7.7996   13.6178   26.2592 N   0  0  0  0  0  0  0  0  0  0  0  0
    9.3655   14.0796   25.8277 S   0  0  0  0  0  0  0  0  0  0  0  0
    9.6621   15.2805   26.5705 O   0  0  0  0  0  0  0  0  0  0  0  0
    9.4454   14.0536   24.3996 O   0  0  0  0  0  0  0  0  0  0  0  0
   10.3845   12.8599   26.3541 N   0  0  0  0  0  0  0  0  0  0  0  0
   11.7379   13.3653   26.7457 C   0  0  0  0  0  0  0  0  0  0  0  0
   12.7560   13.3216   25.6161 C   0  0  0  0  0  0  0  0  0  0  0  0
   12.7078   12.0975   24.7553 C   0  0  0  0  0  0  0  0  0  0  0  0
   11.8148   11.0946   25.4115 C   0  0  0  0  0  0  0  0  0  0  0  0
   10.4106   11.6499   25.4781 C   0  0  0  0  0  0  0  0  0  0  0  0
    6.8242   14.7463   26.2094 C   0  0  0  0  0  0  0  0  0  0  0  0
    6.7165   15.3163   24.7940 C   0  0  0  0  0  0  0  0  0  0  0  0
  1  2  1  0
  3  2  1  6
  3  4  1  0
  4  5  1  0
  5  6  1  0
  6  7  1  0
  7  8  1  1
  8  9  1  0
  9 10  2  0
  9 11  1  0
 11 12  1  0
 12 13  1  0
 13 14  1  0
 14 15  1  0
 15 16  2  0
 15 17  2  0
 15 18  1  0
 18 19  1  0
 19 20  1  0
 20 21  1  0
 21 22  1  0
 22 23  1  0
 14 24  1  0
 24 25  1  0
  7  3  1  0
 25 11  1  0
 23 18  1  0
M  END
>  <energy_score>  (953) 
-20.713182

>  <inchikey>  (953) 
None

>  <smiles>  (953) 
None

>  <ref_pdb>  (953) 
A4706a

>  <alias>  (953) 
None

>  <HIPPO Pose ID>  (953) 
499790

>  <name>  (953) 
P499790

>  <HIPPO Compound ID>  (953) 
314388

>  <ref_mols>  (953) 
A4706a,A0875a

>  <distance_score>  (953) 
1.326442

>  <inspiration_score>  (953) 
None

$$$$
P499795
     RDKit          3D

 25 27  0  0  0  0  0  0  0  0999 V2000
    7.5389   14.1273   21.6351 C   0  0  0  0  0  0  0  0  0  0  0  0
    7.7361   15.6199   21.8465 C   0  0  1  0  0  0  0  0  0  0  0  0
    7.2420   16.0358   23.1435 O   0  0  0  0  0  0  0  0  0  0  0  0
    6.1075   15.4261   23.6186 C   0  0  0  0  0  0  0  0  0  0  0  0
    4.9836   15.5407   23.1590 O   0  0  0  0  0  0  0  0  0  0  0  0
    6.5241   14.5123   24.7413 C   0  0  0  0  0  0  0  0  0  0  0  0
    6.0935   13.0528   24.7276 C   0  0  0  0  0  0  0  0  0  0  0  0
    7.2239   12.2045   25.3531 C   0  0  0  0  0  0  0  0  0  0  0  0
    8.0147   12.9817   26.3676 N   0  0  0  0  0  0  0  0  0  0  0  0
    9.5061   13.6753   25.8801 S   0  0  0  0  0  0  0  0  0  0  0  0
    9.5163   13.9129   24.4630 O   0  0  0  0  0  0  0  0  0  0  0  0
    9.8183   14.7171   26.8268 O   0  0  0  0  0  0  0  0  0  0  0  0
   10.6620   12.4437   26.0954 N   0  0  0  0  0  0  0  0  0  0  0  0
   10.5542   11.3667   25.0672 C   0  0  0  0  0  0  0  0  0  0  0  0
   11.6485   10.3272   25.2509 C   0  0  0  0  0  0  0  0  0  0  0  0
   13.0571   10.9740   25.3613 C   0  0  0  0  0  0  0  0  0  0  0  0
   13.1094   12.0915   26.3816 C   0  0  0  0  0  0  0  0  0  0  0  0
   12.0143   13.0944   26.0931 C   0  0  0  0  0  0  0  0  0  0  0  0
    7.1150   13.9568   27.0991 C   0  0  0  0  0  0  0  0  0  0  0  0
    6.5736   15.0480   26.1564 C   0  0  0  0  0  0  0  0  0  0  0  0
    9.2129   16.0626   21.5531 C   0  0  2  0  0  0  0  0  0  0  0  0
    9.7364   15.7479   20.1443 C   0  0  0  0  0  0  0  0  0  0  0  0
   11.0431   15.0199   20.3495 C   0  0  0  0  0  0  0  0  0  0  0  0
   10.9275   14.4946   21.7557 C   0  0  0  0  0  0  0  0  0  0  0  0
   10.1576   15.4681   22.4559 O   0  0  0  0  0  0  0  0  0  0  0  0
  2  1  1  1
  2  3  1  0
  3  4  1  0
  4  5  2  0
  4  6  1  0
  6  7  1  0
  7  8  1  0
  8  9  1  0
  9 10  1  0
 10 11  2  0
 10 12  2  0
 10 13  1  0
 13 14  1  0
 14 15  1  0
 15 16  1  0
 16 17  1  0
 17 18  1  0
  9 19  1  0
 19 20  1  0
  2 21  1  0
 21 22  1  6
 22 23  1  0
 23 24  1  0
 24 25  1  0
 20  6  1  0
 25 21  1  0
 18 13  1  0
M  END
>  <energy_score>  (954) 
-4.809229

>  <inchikey>  (954) 
None

>  <smiles>  (954) 
None

>  <ref_pdb>  (954) 
A4706a

>  <alias>  (954) 
None

>  <HIPPO Pose ID>  (954) 
499795

>  <name>  (954) 
P499795

>  <HIPPO Compound ID>  (954) 
314389

>  <ref_mols>  (954) 
A0875a,A4706a

>  <distance_score>  (954) 
1.665378

>  <inspiration_score>  (954) 
None

$$$$
P499802
     RDKit          3D

 25 26  0  0  0  0  0  0  0  0999 V2000
   17.2779    9.4871   29.1762 C   0  0  0  0  0  0  0  0  0  0  0  0
   16.3635   10.4583   29.3132 C   0  0  0  0  0  0  0  0  0  0  0  0
   16.1712   11.5958   28.3440 C   0  0  1  0  0  0  0  0  0  0  0  0
   14.7696   11.6200   28.0077 O   0  0  0  0  0  0  0  0  0  0  0  0
   14.4267   12.3734   26.9255 C   0  0  0  0  0  0  0  0  0  0  0  0
   15.2115   12.9539   26.1993 O   0  0  0  0  0  0  0  0  0  0  0  0
   12.9367   12.3046   26.6879 C   0  0  0  0  0  0  0  0  0  0  0  0
   12.0978   13.4932   27.1018 C   0  0  0  0  0  0  0  0  0  0  0  0
   10.6464   13.2471   26.7538 C   0  0  0  0  0  0  0  0  0  0  0  0
   10.4530   13.0025   25.3053 N   0  0  0  0  0  0  0  0  0  0  0  0
    9.2945   14.0317   24.6425 S   0  0  0  0  0  0  0  0  0  0  0  0
    9.1365   13.7633   23.2390 O   0  0  0  0  0  0  0  0  0  0  0  0
    9.6061   15.3405   25.1556 O   0  0  0  0  0  0  0  0  0  0  0  0
    7.9568   13.4378   25.4683 N   0  0  0  0  0  0  0  0  0  0  0  0
    7.4691   12.1024   25.0635 C   0  0  0  0  0  0  0  0  0  0  0  0
    6.6623   11.5285   26.2228 C   0  0  0  0  0  0  0  0  0  0  0  0
    5.5253   12.4648   26.6296 C   0  0  0  0  0  0  0  0  0  0  0  0
    6.0266   13.8891   26.8668 C   0  0  0  0  0  0  0  0  0  0  0  0
    6.8454   14.3919   25.6788 C   0  0  0  0  0  0  0  0  0  0  0  0
   11.6953   12.8511   24.5287 C   0  0  0  0  0  0  0  0  0  0  0  0
   12.5944   11.8475   25.2689 C   0  0  0  0  0  0  0  0  0  0  0  0
   16.5769   12.9015   29.0343 C   0  0  0  0  0  0  0  0  0  0  0  0
   15.7862   13.8122   29.2743 O   0  0  0  0  0  0  0  0  0  0  0  0
   17.9105   12.9276   29.3065 O   0  0  0  0  0  0  0  0  0  0  0  0
   18.3705   14.1419   29.9024 C   0  0  0  0  0  0  0  0  0  0  0  0
  1  2  2  0
  2  3  1  0
  3  4  1  1
  4  5  1  0
  5  6  2  0
  5  7  1  0
  7  8  1  0
  8  9  1  0
  9 10  1  0
 10 11  1  0
 11 12  2  0
 11 13  2  0
 11 14  1  0
 14 15  1  0
 15 16  1  0
 16 17  1  0
 17 18  1  0
 18 19  1  0
 10 20  1  0
 20 21  1  0
  3 22  1  0
 22 23  2  0
 22 24  1  0
 24 25  1  0
 21  7  1  0
 19 14  1  0
M  END
>  <energy_score>  (955) 
-65.284411

>  <inchikey>  (955) 
None

>  <smiles>  (955) 
None

>  <ref_pdb>  (955) 
A4706a

>  <alias>  (955) 
None

>  <HIPPO Pose ID>  (955) 
499802

>  <name>  (955) 
P499802

>  <HIPPO Compound ID>  (955) 
314392

>  <ref_mols>  (955) 
A0875a,A4706a

>  <distance_score>  (955) 
1.747936

>  <inspiration_score>  (955) 
None

$$$$
P499803
     RDKit          3D

 25 26  0  0  0  0  0  0  0  0999 V2000
   14.0558   10.8588   30.7661 C   0  0  0  0  0  0  0  0  0  0  0  0
   13.9701   11.2644   29.3975 O   0  0  0  0  0  0  0  0  0  0  0  0
   15.2569   11.4570   28.7985 C   0  0  2  0  0  0  0  0  0  0  0  0
   15.9714   12.6716   29.4029 C   0  0  0  0  0  0  0  0  0  0  0  0
   15.1935   11.5668   27.2280 C   0  0  1  0  0  0  0  0  0  0  0  0
   16.0636   10.4974   26.7068 C   0  0  0  0  0  0  0  0  0  0  0  0
   16.7374    9.6041   26.4028 N   0  0  0  0  0  0  0  0  0  0  0  0
   13.8787   11.4552   26.5943 O   0  0  0  0  0  0  0  0  0  0  0  0
   13.1314   12.5675   26.7795 C   0  0  0  0  0  0  0  0  0  0  0  0
   13.4358   13.4272   27.5994 O   0  0  0  0  0  0  0  0  0  0  0  0
   11.9492   12.7532   25.8364 C   0  0  0  0  0  0  0  0  0  0  0  0
   12.3426   13.4095   24.5321 C   0  0  0  0  0  0  0  0  0  0  0  0
   11.1362   14.0997   23.9002 C   0  0  0  0  0  0  0  0  0  0  0  0
    9.8917   13.2970   24.0945 N   0  0  0  0  0  0  0  0  0  0  0  0
    8.7349   14.0361   25.0499 S   0  0  0  0  0  0  0  0  0  0  0  0
    8.5125   15.3221   24.4392 O   0  0  0  0  0  0  0  0  0  0  0  0
    9.1360   13.9452   26.4336 O   0  0  0  0  0  0  0  0  0  0  0  0
    7.3522   13.0812   24.8425 N   0  0  0  0  0  0  0  0  0  0  0  0
    7.2758   11.8101   25.6255 C   0  0  0  0  0  0  0  0  0  0  0  0
    6.0759   11.7397   26.5610 C   0  0  0  0  0  0  0  0  0  0  0  0
    5.8821   13.0411   27.3203 C   0  0  0  0  0  0  0  0  0  0  0  0
    5.7614   14.2317   26.3674 C   0  0  0  0  0  0  0  0  0  0  0  0
    6.0866   13.8677   24.9184 C   0  0  0  0  0  0  0  0  0  0  0  0
   10.1634   11.8734   24.2089 C   0  0  0  0  0  0  0  0  0  0  0  0
   11.0067   11.6028   25.4590 C   0  0  0  0  0  0  0  0  0  0  0  0
  1  2  1  0
  2  3  1  0
  3  4  1  1
  3  5  1  0
  5  6  1  6
  6  7  3  0
  5  8  1  0
  8  9  1  0
  9 10  2  0
  9 11  1  0
 11 12  1  0
 12 13  1  0
 13 14  1  0
 14 15  1  0
 15 16  2  0
 15 17  2  0
 15 18  1  0
 18 19  1  0
 19 20  1  0
 20 21  1  0
 21 22  1  0
 22 23  1  0
 14 24  1  0
 24 25  1  0
 25 11  1  0
 23 18  1  0
M  END
>  <energy_score>  (956) 
-28.880434

>  <inchikey>  (956) 
None

>  <smiles>  (956) 
None

>  <ref_pdb>  (956) 
A4706a

>  <alias>  (956) 
None

>  <HIPPO Pose ID>  (956) 
499803

>  <name>  (956) 
P499803

>  <HIPPO Compound ID>  (956) 
314393

>  <ref_mols>  (956) 
A4706a,A0875a

>  <distance_score>  (956) 
1.90838

>  <inspiration_score>  (956) 
None

$$$$
P499807
     RDKit          3D

 25 27  0  0  0  0  0  0  0  0999 V2000
   10.8992   14.4610   18.5813 N   0  0  0  0  0  0  0  0  0  0  0  0
   10.1439   15.2495   19.5460 C   0  0  0  0  0  0  0  0  0  0  0  0
    9.8143   14.5297   20.8722 C   0  0  1  0  0  0  0  0  0  0  0  0
   11.0740   13.9682   21.5186 C   0  0  0  0  0  0  0  0  0  0  0  0
   11.5163   14.8645   22.5283 O   0  0  0  0  0  0  0  0  0  0  0  0
   10.6335   15.9860   22.4762 C   0  0  0  0  0  0  0  0  0  0  0  0
    9.2911   15.5254   21.8972 C   0  0  2  0  0  0  0  0  0  0  0  0
    8.4792   15.0373   23.0152 O   0  0  0  0  0  0  0  0  0  0  0  0
    7.4047   14.2182   22.9240 C   0  0  0  0  0  0  0  0  0  0  0  0
    7.0147   13.6821   21.8914 O   0  0  0  0  0  0  0  0  0  0  0  0
    6.6804   13.9895   24.2924 C   0  0  0  0  0  0  0  0  0  0  0  0
    6.7373   12.5158   24.7715 C   0  0  0  0  0  0  0  0  0  0  0  0
    7.6342   12.1618   25.9697 C   0  0  0  0  0  0  0  0  0  0  0  0
    8.5479   13.2752   26.3221 N   0  0  0  0  0  0  0  0  0  0  0  0
    9.8026   13.5283   25.2258 S   0  0  0  0  0  0  0  0  0  0  0  0
    9.4532   12.7646   24.0526 O   0  0  0  0  0  0  0  0  0  0  0  0
   10.0946   14.9393   25.2146 O   0  0  0  0  0  0  0  0  0  0  0  0
   11.1663   12.7641   25.8792 N   0  0  0  0  0  0  0  0  0  0  0  0
   12.1817   12.6283   24.7936 C   0  0  0  0  0  0  0  0  0  0  0  0
   13.2333   11.6476   25.2702 C   0  0  0  0  0  0  0  0  0  0  0  0
   14.0171   12.2862   26.3893 C   0  0  0  0  0  0  0  0  0  0  0  0
   13.0836   12.7981   27.4784 C   0  0  0  0  0  0  0  0  0  0  0  0
   11.7889   13.4941   27.0100 C   0  0  0  0  0  0  0  0  0  0  0  0
    7.7273   14.4758   26.6294 C   0  0  0  0  0  0  0  0  0  0  0  0
    6.9811   15.0090   25.4041 C   0  0  0  0  0  0  0  0  0  0  0  0
  1  2  1  0
  3  2  1  6
  3  4  1  0
  4  5  1  0
  5  6  1  0
  6  7  1  0
  7  8  1  1
  8  9  1  0
  9 10  2  0
  9 11  1  0
 11 12  1  0
 12 13  1  0
 13 14  1  0
 14 15  1  0
 15 16  2  0
 15 17  2  0
 15 18  1  0
 18 19  1  0
 19 20  1  0
 20 21  1  0
 21 22  1  0
 22 23  1  0
 14 24  1  0
 24 25  1  0
  7  3  1  0
 25 11  1  0
 23 18  1  0
M  END
>  <energy_score>  (957) 
-62.395895

>  <inchikey>  (957) 
None

>  <smiles>  (957) 
None

>  <ref_pdb>  (957) 
A4706a

>  <alias>  (957) 
None

>  <HIPPO Pose ID>  (957) 
499807

>  <name>  (957) 
P499807

>  <HIPPO Compound ID>  (957) 
314395

>  <ref_mols>  (957) 
A0875a,A4706a

>  <distance_score>  (957) 
1.437229

>  <inspiration_score>  (957) 
None

$$$$
P499812
     RDKit          3D

 25 27  0  0  0  0  0  0  0  0999 V2000
   10.7966   14.5445   18.6357 N   0  0  0  0  0  0  0  0  0  0  0  0
   10.1415   15.4000   19.5964 N   0  0  0  0  0  0  0  0  0  0  0  0
    9.7724   14.6790   20.8543 C   0  0  1  0  0  0  0  0  0  0  0  0
   10.9753   14.0005   21.5331 C   0  0  0  0  0  0  0  0  0  0  0  0
   11.4139   14.7848   22.6349 O   0  0  0  0  0  0  0  0  0  0  0  0
   10.6572   15.9903   22.5756 C   0  0  0  0  0  0  0  0  0  0  0  0
    9.3163   15.7240   21.8787 C   0  0  2  0  0  0  0  0  0  0  0  0
    8.3209   15.4055   22.9028 O   0  0  0  0  0  0  0  0  0  0  0  0
    7.1938   14.6786   22.7103 C   0  0  0  0  0  0  0  0  0  0  0  0
    6.9034   14.0935   21.6733 O   0  0  0  0  0  0  0  0  0  0  0  0
    6.2812   14.6265   23.9722 C   0  0  0  0  0  0  0  0  0  0  0  0
    5.8674   13.1895   24.3508 C   0  0  0  0  0  0  0  0  0  0  0  0
    6.8362   12.3806   25.2308 C   0  0  0  0  0  0  0  0  0  0  0  0
    7.8313   13.2558   25.9001 N   0  0  0  0  0  0  0  0  0  0  0  0
    9.2571   13.5160   25.0274 S   0  0  0  0  0  0  0  0  0  0  0  0
    9.0028   13.0276   23.6973 O   0  0  0  0  0  0  0  0  0  0  0  0
    9.6976   14.8584   25.3162 O   0  0  0  0  0  0  0  0  0  0  0  0
   10.3236   12.4228   25.7460 N   0  0  0  0  0  0  0  0  0  0  0  0
   11.6277   13.0336   26.1033 C   0  0  0  0  0  0  0  0  0  0  0  0
   12.7054   12.5839   25.1499 C   0  0  0  0  0  0  0  0  0  0  0  0
   12.9223   11.1111   25.4079 C   0  0  0  0  0  0  0  0  0  0  0  0
   11.6083   10.2904   25.2781 C   0  0  0  0  0  0  0  0  0  0  0  0
   10.3618   11.1166   25.0140 C   0  0  0  0  0  0  0  0  0  0  0  0
    7.1714   14.4896   26.3961 C   0  0  0  0  0  0  0  0  0  0  0  0
    6.7215   15.3866   25.2360 C   0  0  0  0  0  0  0  0  0  0  0  0
  1  2  1  0
  3  2  1  6
  3  4  1  0
  4  5  1  0
  5  6  1  0
  6  7  1  0
  7  8  1  1
  8  9  1  0
  9 10  2  0
  9 11  1  0
 11 12  1  0
 12 13  1  0
 13 14  1  0
 14 15  1  0
 15 16  2  0
 15 17  2  0
 15 18  1  0
 18 19  1  0
 19 20  1  0
 20 21  1  0
 21 22  1  0
 22 23  1  0
 14 24  1  0
 24 25  1  0
  7  3  1  0
 25 11  1  0
 23 18  1  0
M  END
>  <energy_score>  (958) 
-27.075148

>  <inchikey>  (958) 
None

>  <smiles>  (958) 
None

>  <ref_pdb>  (958) 
A4706a

>  <alias>  (958) 
None

>  <HIPPO Pose ID>  (958) 
499812

>  <name>  (958) 
P499812

>  <HIPPO Compound ID>  (958) 
314397

>  <ref_mols>  (958) 
A0875a,A4706a

>  <distance_score>  (958) 
1.399429

>  <inspiration_score>  (958) 
None

$$$$
P499818
     RDKit          3D

 25 27  0  0  0  0  0  0  0  0999 V2000
   14.3313   11.0534   29.8686 C   0  0  0  0  0  0  0  0  0  0  0  0
   14.6520   12.0437   28.7381 C   0  0  0  0  0  0  0  0  0  0  0  0
   14.2931   13.4345   29.2817 C   0  0  0  0  0  0  0  0  0  0  0  0
   13.7682   11.7525   27.5779 O   0  0  0  0  0  0  0  0  0  0  0  0
   14.0109   12.3869   26.3964 C   0  0  0  0  0  0  0  0  0  0  0  0
   14.9793   13.1077   26.2068 O   0  0  0  0  0  0  0  0  0  0  0  0
   13.0149   12.1420   25.2579 C   0  0  0  0  0  0  0  0  0  0  0  0
   12.6259   13.4434   24.5638 C   0  0  0  0  0  0  0  0  0  0  0  0
   11.4839   14.1641   25.2518 C   0  0  0  0  0  0  0  0  0  0  0  0
   10.2674   13.3264   25.3144 N   0  0  0  0  0  0  0  0  0  0  0  0
    8.8837   14.1608   24.8936 S   0  0  0  0  0  0  0  0  0  0  0  0
    8.6954   14.0401   23.4718 O   0  0  0  0  0  0  0  0  0  0  0  0
    9.0212   15.4388   25.5500 O   0  0  0  0  0  0  0  0  0  0  0  0
    7.6920   13.3254   25.7090 N   0  0  0  0  0  0  0  0  0  0  0  0
    7.0751   12.1508   25.0705 C   0  0  0  0  0  0  0  0  0  0  0  0
    6.5761   11.2674   26.2075 C   0  0  0  0  0  0  0  0  0  0  0  0
    5.5382   12.0074   27.0521 C   0  0  0  0  0  0  0  0  0  0  0  0
    6.0498   13.3690   27.5147 C   0  0  0  0  0  0  0  0  0  0  0  0
    6.6557   14.1683   26.3652 C   0  0  0  0  0  0  0  0  0  0  0  0
   10.4668   11.9413   24.8957 C   0  0  0  0  0  0  0  0  0  0  0  0
   11.7228   11.4771   25.6282 C   0  0  0  0  0  0  0  0  0  0  0  0
   16.1552   11.9246   28.3787 C   0  0  1  0  0  0  0  0  0  0  0  0
   17.2527   11.6158   29.4210 C   0  0  0  0  0  0  0  0  0  0  0  0
   17.6747   10.5248   28.4385 C   0  0  0  0  0  0  0  0  0  0  0  0
   16.4359   10.6616   27.6985 O   0  0  0  0  0  0  0  0  0  0  0  0
  1  2  1  0
  2  3  1  0
  2  4  1  0
  4  5  1  0
  5  6  2  0
  5  7  1  0
  7  8  1  0
  8  9  1  0
  9 10  1  0
 10 11  1  0
 11 12  2  0
 11 13  2  0
 11 14  1  0
 14 15  1  0
 15 16  1  0
 16 17  1  0
 17 18  1  0
 18 19  1  0
 10 20  1  0
 20 21  1  0
 22  2  1  1
 22 23  1  0
 23 24  1  0
 24 25  1  0
 21  7  1  0
 25 22  1  0
 19 14  1  0
M  END
>  <energy_score>  (959) 
-76.685102

>  <inchikey>  (959) 
None

>  <smiles>  (959) 
None

>  <ref_pdb>  (959) 
A4706a

>  <alias>  (959) 
None

>  <HIPPO Pose ID>  (959) 
499818

>  <name>  (959) 
P499818

>  <HIPPO Compound ID>  (959) 
314399

>  <ref_mols>  (959) 
A4706a,A0875a

>  <distance_score>  (959) 
1.55939

>  <inspiration_score>  (959) 
None

$$$$
P499820
     RDKit          3D

 25 28  0  0  0  0  0  0  0  0999 V2000
    6.3445   13.2135   21.9205 O   0  0  0  0  0  0  0  0  0  0  0  0
    6.8644   14.0255   22.6708 C   0  0  0  0  0  0  0  0  0  0  0  0
    7.5755   15.1304   22.2930 O   0  0  0  0  0  0  0  0  0  0  0  0
    8.5696   14.8673   21.2920 C   0  0  2  0  0  0  0  0  0  0  0  0
    9.7526   14.1011   21.8836 C   0  0  0  0  0  0  0  0  0  0  0  0
   10.9666   14.8359   21.3506 C   0  0  1  0  0  0  0  0  0  0  0  0
   11.0518   14.8412   19.8267 C   0  0  0  0  0  0  0  0  0  0  0  0
    9.9327   15.7945   19.4433 C   0  0  0  0  0  0  0  0  0  0  0  0
    9.3094   16.1227   20.7968 C   0  0  2  0  0  0  0  0  0  0  0  0
   10.5184   16.1759   21.6057 O   0  0  0  0  0  0  0  0  0  0  0  0
    6.9004   13.8873   24.1607 C   0  0  0  0  0  0  0  0  0  0  0  0
    6.5362   12.5575   24.8119 C   0  0  0  0  0  0  0  0  0  0  0  0
    7.1837   12.4689   26.2066 C   0  0  0  0  0  0  0  0  0  0  0  0
    7.7234   13.7757   26.6388 N   0  0  0  0  0  0  0  0  0  0  0  0
    9.2897   14.3518   26.3694 S   0  0  0  0  0  0  0  0  0  0  0  0
    9.3223   15.1950   25.1989 O   0  0  0  0  0  0  0  0  0  0  0  0
    9.7181   14.8906   27.6355 O   0  0  0  0  0  0  0  0  0  0  0  0
   10.3240   13.0741   26.0304 N   0  0  0  0  0  0  0  0  0  0  0  0
   11.7412   13.6048   26.0494 C   0  0  0  0  0  0  0  0  0  0  0  0
   12.6912   12.7514   25.2125 C   0  0  0  0  0  0  0  0  0  0  0  0
   12.3488   11.3006   25.4707 C   0  0  0  0  0  0  0  0  0  0  0  0
   10.8769   10.9662   25.0871 C   0  0  0  0  0  0  0  0  0  0  0  0
   10.1138   12.2458   24.8346 C   0  0  0  0  0  0  0  0  0  0  0  0
    6.6841   14.8424   26.4827 C   0  0  0  0  0  0  0  0  0  0  0  0
    6.3697   15.0508   24.9905 C   0  0  0  0  0  0  0  0  0  0  0  0
  1  2  2  0
  2  3  1  0
  4  3  1  1
  4  5  1  0
  6  5  1  6
  6  7  1  0
  7  8  1  0
  9  8  1  6
  9 10  1  0
  2 11  1  0
 11 12  1  0
 12 13  1  0
 13 14  1  0
 14 15  1  0
 15 16  2  0
 15 17  2  0
 15 18  1  0
 18 19  1  0
 19 20  1  0
 20 21  1  0
 21 22  1  0
 22 23  1  0
 14 24  1  0
 24 25  1  0
  9  4  1  0
 25 11  1  0
 10  6  1  0
 23 18  1  0
M  END
>  <energy_score>  (960) 
-18.22343

>  <inchikey>  (960) 
None

>  <smiles>  (960) 
None

>  <ref_pdb>  (960) 
A4706a

>  <alias>  (960) 
None

>  <HIPPO Pose ID>  (960) 
499820

>  <name>  (960) 
P499820

>  <HIPPO Compound ID>  (960) 
314401

>  <ref_mols>  (960) 
A4706a,A0875a

>  <distance_score>  (960) 
1.579611

>  <inspiration_score>  (960) 
None

$$$$
P499821
     RDKit          3D

 25 27  0  0  0  0  0  0  0  0999 V2000
   11.4957   13.7192   22.2604 C   0  0  0  0  0  0  0  0  0  0  0  0
   10.3978   14.6507   21.8098 C   0  0  2  0  0  0  0  0  0  0  0  0
    9.1245   14.5434   22.5518 O   0  0  0  0  0  0  0  0  0  0  0  0
    8.5907   13.3729   22.9842 C   0  0  0  0  0  0  0  0  0  0  0  0
    9.1133   12.2696   22.8665 O   0  0  0  0  0  0  0  0  0  0  0  0
    7.1835   13.4937   23.6038 C   0  0  0  0  0  0  0  0  0  0  0  0
    6.9873   12.3735   24.6848 C   0  0  0  0  0  0  0  0  0  0  0  0
    7.7990   12.6352   25.9705 C   0  0  0  0  0  0  0  0  0  0  0  0
    8.5491   13.8499   25.6953 N   0  0  0  0  0  0  0  0  0  0  0  0
   10.0489   14.2332   26.2283 S   0  0  0  0  0  0  0  0  0  0  0  0
   10.6246   15.1072   25.2345 O   0  0  0  0  0  0  0  0  0  0  0  0
    9.8850   14.6658   27.5925 O   0  0  0  0  0  0  0  0  0  0  0  0
   11.0053   12.8609   26.2792 N   0  0  0  0  0  0  0  0  0  0  0  0
   11.0315   11.9138   25.1468 C   0  0  0  0  0  0  0  0  0  0  0  0
   12.1814   10.9531   25.3835 C   0  0  0  0  0  0  0  0  0  0  0  0
   13.5700   11.5158   25.3187 C   0  0  0  0  0  0  0  0  0  0  0  0
   13.4949   12.9503   25.7923 C   0  0  0  0  0  0  0  0  0  0  0  0
   12.3784   13.1670   26.8325 C   0  0  0  0  0  0  0  0  0  0  0  0
    7.6273   15.0058   25.5680 C   0  0  0  0  0  0  0  0  0  0  0  0
    6.8920   14.8540   24.2442 C   0  0  0  0  0  0  0  0  0  0  0  0
   10.1603   14.4317   20.3170 C   0  0  0  0  0  0  0  0  0  0  0  0
    9.8282   15.6732   19.5255 C   0  0  0  0  0  0  0  0  0  0  0  0
    9.2921   16.7291   20.4543 C   0  0  0  0  0  0  0  0  0  0  0  0
   10.2878   17.0925   21.3751 O   0  0  0  0  0  0  0  0  0  0  0  0
   10.9701   16.0445   22.0333 C   0  0  0  0  0  0  0  0  0  0  0  0
  2  1  1  1
  2  3  1  0
  3  4  1  0
  4  5  2  0
  4  6  1  0
  6  7  1  0
  7  8  1  0
  8  9  1  0
  9 10  1  0
 10 11  2  0
 10 12  2  0
 10 13  1  0
 13 14  1  0
 14 15  1  0
 15 16  1  0
 16 17  1  0
 17 18  1  0
  9 19  1  0
 19 20  1  0
  2 21  1  0
 21 22  1  0
 22 23  1  0
 23 24  1  0
 24 25  1  0
 25  2  1  0
 20  6  1  0
 18 13  1  0
M  END
>  <energy_score>  (961) 
-29.431131

>  <inchikey>  (961) 
None

>  <smiles>  (961) 
None

>  <ref_pdb>  (961) 
A4706a

>  <alias>  (961) 
None

>  <HIPPO Pose ID>  (961) 
499821

>  <name>  (961) 
P499821

>  <HIPPO Compound ID>  (961) 
314402

>  <ref_mols>  (961) 
A4706a,A0875a

>  <distance_score>  (961) 
1.609365

>  <inspiration_score>  (961) 
None

$$$$
P499824
     RDKit          3D

 25 27  0  0  0  0  0  0  0  0999 V2000
   10.4424   15.1672   19.2237 C   0  0  0  0  0  0  0  0  0  0  0  0
   10.9982   15.3308   20.6190 C   0  0  1  0  0  0  0  0  0  0  0  0
   10.1316   16.2447   21.4579 C   0  0  0  0  0  0  0  0  0  0  0  0
    8.7619   15.6547   21.7664 C   0  0  0  0  0  0  0  0  0  0  0  0
    8.7499   14.1369   21.7557 C   0  0  2  0  0  0  0  0  0  0  0  0
    7.8344   13.4504   22.6530 O   0  0  0  0  0  0  0  0  0  0  0  0
    6.7390   14.0274   23.2034 C   0  0  0  0  0  0  0  0  0  0  0  0
    6.1982   15.0489   22.8077 O   0  0  0  0  0  0  0  0  0  0  0  0
    6.1753   13.1714   24.3444 C   0  0  0  0  0  0  0  0  0  0  0  0
    7.0618   12.0016   24.8195 C   0  0  0  0  0  0  0  0  0  0  0  0
    7.4643   12.1025   26.2695 C   0  0  0  0  0  0  0  0  0  0  0  0
    7.8910   13.4505   26.6000 N   0  0  0  0  0  0  0  0  0  0  0  0
    9.2957   14.1654   26.0543 S   0  0  0  0  0  0  0  0  0  0  0  0
    9.5922   15.1780   27.0406 O   0  0  0  0  0  0  0  0  0  0  0  0
    9.0955   14.5695   24.6922 O   0  0  0  0  0  0  0  0  0  0  0  0
   10.5894   13.1000   26.0848 N   0  0  0  0  0  0  0  0  0  0  0  0
   11.8632   13.8857   25.9745 C   0  0  0  0  0  0  0  0  0  0  0  0
   12.7763   13.3890   24.8557 C   0  0  0  0  0  0  0  0  0  0  0  0
   13.2347   11.9877   25.1313 C   0  0  0  0  0  0  0  0  0  0  0  0
   12.0366   11.2254   25.5946 C   0  0  0  0  0  0  0  0  0  0  0  0
   10.6646   11.8602   25.2893 C   0  0  0  0  0  0  0  0  0  0  0  0
    6.7402   14.4127   26.5528 C   0  0  0  0  0  0  0  0  0  0  0  0
    5.6764   14.0157   25.5262 C   0  0  0  0  0  0  0  0  0  0  0  0
   10.1616   13.6457   22.0934 C   0  0  0  0  0  0  0  0  0  0  0  0
   11.1944   14.0650   21.2235 O   0  0  0  0  0  0  0  0  0  0  0  0
  2  1  1  6
  2  3  1  0
  3  4  1  0
  4  5  1  0
  5  6  1  1
  6  7  1  0
  7  8  2  0
  7  9  1  0
  9 10  1  0
 10 11  1  0
 11 12  1  0
 12 13  1  0
 13 14  2  0
 13 15  2  0
 13 16  1  0
 16 17  1  0
 17 18  1  0
 18 19  1  0
 19 20  1  0
 20 21  1  0
 12 22  1  0
 22 23  1  0
  5 24  1  0
 24 25  1  0
 25  2  1  0
 23  9  1  0
 21 16  1  0
M  END
>  <energy_score>  (962) 
-34.011775

>  <inchikey>  (962) 
None

>  <smiles>  (962) 
None

>  <ref_pdb>  (962) 
A4706a

>  <alias>  (962) 
None

>  <HIPPO Pose ID>  (962) 
499824

>  <name>  (962) 
P499824

>  <HIPPO Compound ID>  (962) 
314404

>  <ref_mols>  (962) 
A4706a,A0875a

>  <distance_score>  (962) 
1.772793

>  <inspiration_score>  (962) 
None

$$$$
P499827
     RDKit          3D

 25 26  0  0  0  0  0  0  0  0999 V2000
   12.1229   14.7847   23.2024 C   0  0  0  0  0  0  0  0  0  0  0  0
   11.1998   14.2639   22.2977 O   0  0  0  0  0  0  0  0  0  0  0  0
   10.3877   15.3390   21.8267 C   0  0  0  0  0  0  0  0  0  0  0  0
    9.4353   14.7514   20.8101 C   0  0  1  0  0  0  0  0  0  0  0  0
    7.9784   14.8672   21.2875 C   0  0  0  0  0  0  0  0  0  0  0  0
    7.7510   14.1530   22.5153 O   0  0  0  0  0  0  0  0  0  0  0  0
    6.4532   14.0029   22.8897 C   0  0  0  0  0  0  0  0  0  0  0  0
    5.4891   14.3038   22.1994 O   0  0  0  0  0  0  0  0  0  0  0  0
    6.3231   13.4369   24.3024 C   0  0  0  0  0  0  0  0  0  0  0  0
    7.2816   12.2517   24.5488 C   0  0  0  0  0  0  0  0  0  0  0  0
    7.7021   12.0436   25.9867 C   0  0  0  0  0  0  0  0  0  0  0  0
    8.0743   13.3166   26.6068 N   0  0  0  0  0  0  0  0  0  0  0  0
    9.4637   14.1193   26.0903 S   0  0  0  0  0  0  0  0  0  0  0  0
    9.6212   15.2458   26.9797 O   0  0  0  0  0  0  0  0  0  0  0  0
    9.3856   14.3568   24.6761 O   0  0  0  0  0  0  0  0  0  0  0  0
   10.7332   12.9991   26.4119 N   0  0  0  0  0  0  0  0  0  0  0  0
   11.1518   12.1904   25.2385 C   0  0  0  0  0  0  0  0  0  0  0  0
   12.5965   11.6899   25.2563 C   0  0  0  0  0  0  0  0  0  0  0  0
   13.6402   12.3782   26.0868 C   0  0  0  0  0  0  0  0  0  0  0  0
   13.0544   12.8421   27.3809 C   0  0  0  0  0  0  0  0  0  0  0  0
   11.8172   13.6882   27.1503 C   0  0  0  0  0  0  0  0  0  0  0  0
    6.8713   14.1922   26.6882 C   0  0  0  0  0  0  0  0  0  0  0  0
    6.4223   14.6072   25.2946 C   0  0  0  0  0  0  0  0  0  0  0  0
    9.6275   15.4241   19.5565 O   0  0  0  0  0  0  0  0  0  0  0  0
   10.7936   14.9652   18.8705 C   0  0  0  0  0  0  0  0  0  0  0  0
  1  2  1  0
  2  3  1  0
  4  3  1  1
  4  5  1  0
  5  6  1  0
  6  7  1  0
  7  8  2  0
  7  9  1  0
  9 10  1  0
 10 11  1  0
 11 12  1  0
 12 13  1  0
 13 14  2  0
 13 15  2  0
 13 16  1  0
 16 17  1  0
 17 18  1  0
 18 19  1  0
 19 20  1  0
 20 21  1  0
 12 22  1  0
 22 23  1  0
  4 24  1  0
 24 25  1  0
 23  9  1  0
 21 16  1  0
M  END
>  <energy_score>  (963) 
-29.444851

>  <inchikey>  (963) 
None

>  <smiles>  (963) 
None

>  <ref_pdb>  (963) 
A4706a

>  <alias>  (963) 
None

>  <HIPPO Pose ID>  (963) 
499827

>  <name>  (963) 
P499827

>  <HIPPO Compound ID>  (963) 
314406

>  <ref_mols>  (963) 
A4706a,A0875a

>  <distance_score>  (963) 
1.498646

>  <inspiration_score>  (963) 
None

$$$$
P499831
     RDKit          3D

 25 27  0  0  0  0  0  0  0  0999 V2000
   11.4837   13.8188   22.0842 C   0  0  0  0  0  0  0  0  0  0  0  0
   11.2856   15.1174   21.3555 C   0  0  1  0  0  0  0  0  0  0  0  0
   10.9155   14.8476   20.0008 O   0  0  0  0  0  0  0  0  0  0  0  0
    9.8065   15.7002   19.7646 C   0  0  0  0  0  0  0  0  0  0  0  0
    9.1504   15.8728   21.1184 C   0  0  1  0  0  0  0  0  0  0  0  0
    8.1638   14.7410   21.4192 C   0  0  0  0  0  0  0  0  0  0  0  0
    7.4040   14.9773   22.6183 O   0  0  0  0  0  0  0  0  0  0  0  0
    6.5986   13.9346   22.9315 C   0  0  0  0  0  0  0  0  0  0  0  0
    6.2421   13.0841   22.1161 O   0  0  0  0  0  0  0  0  0  0  0  0
    6.2354   13.8017   24.4082 C   0  0  0  0  0  0  0  0  0  0  0  0
    6.7925   12.4138   24.8356 C   0  0  0  0  0  0  0  0  0  0  0  0
    7.4122   12.3079   26.2091 C   0  0  0  0  0  0  0  0  0  0  0  0
    8.1546   13.5254   26.5438 N   0  0  0  0  0  0  0  0  0  0  0  0
    9.5681   13.9315   25.6949 S   0  0  0  0  0  0  0  0  0  0  0  0
    9.2914   13.9115   24.2849 O   0  0  0  0  0  0  0  0  0  0  0  0
   10.0754   15.1144   26.3435 O   0  0  0  0  0  0  0  0  0  0  0  0
   10.5999   12.6237   26.0332 N   0  0  0  0  0  0  0  0  0  0  0  0
   10.6015   11.5409   25.0017 C   0  0  0  0  0  0  0  0  0  0  0  0
   11.7006   10.5179   25.2661 C   0  0  0  0  0  0  0  0  0  0  0  0
   13.1022   11.1727   25.3878 C   0  0  0  0  0  0  0  0  0  0  0  0
   13.0419   12.6712   25.5964 C   0  0  0  0  0  0  0  0  0  0  0  0
   11.9349   13.0205   26.5562 C   0  0  0  0  0  0  0  0  0  0  0  0
    7.1839   14.6488   26.6537 C   0  0  0  0  0  0  0  0  0  0  0  0
    6.6302   15.0073   25.2822 C   0  0  0  0  0  0  0  0  0  0  0  0
   10.2623   15.8526   22.0183 O   0  0  0  0  0  0  0  0  0  0  0  0
  2  1  1  1
  2  3  1  0
  3  4  1  0
  4  5  1  0
  5  6  1  1
  6  7  1  0
  7  8  1  0
  8  9  2  0
  8 10  1  0
 10 11  1  0
 11 12  1  0
 12 13  1  0
 13 14  1  0
 14 15  2  0
 14 16  2  0
 14 17  1  0
 17 18  1  0
 18 19  1  0
 19 20  1  0
 20 21  1  0
 21 22  1  0
 13 23  1  0
 23 24  1  0
  5 25  1  0
 25  2  1  0
 24 10  1  0
 22 17  1  0
M  END
>  <energy_score>  (964) 
-44.087888

>  <inchikey>  (964) 
None

>  <smiles>  (964) 
None

>  <ref_pdb>  (964) 
A4706a

>  <alias>  (964) 
None

>  <HIPPO Pose ID>  (964) 
499831

>  <name>  (964) 
P499831

>  <HIPPO Compound ID>  (964) 
314407

>  <ref_mols>  (964) 
A4706a,A0875a

>  <distance_score>  (964) 
1.275665

>  <inspiration_score>  (964) 
None

$$$$
P499838
     RDKit          3D

 25 27  0  0  0  0  0  0  0  0999 V2000
   10.1272   15.2198   19.2486 C   0  0  0  0  0  0  0  0  0  0  0  0
    9.9106   14.6744   20.6629 C   0  0  1  0  0  0  0  0  0  0  0  0
   11.2548   14.1672   21.1399 C   0  0  0  0  0  0  0  0  0  0  0  0
   11.8283   15.2061   21.8920 O   0  0  0  0  0  0  0  0  0  0  0  0
   10.7834   15.7459   22.5662 C   0  0  0  0  0  0  0  0  0  0  0  0
   10.9132   16.0908   23.7283 O   0  0  0  0  0  0  0  0  0  0  0  0
    9.5140   15.7298   21.7040 C   0  0  2  0  0  0  0  0  0  0  0  0
    8.4048   15.4968   22.6318 O   0  0  0  0  0  0  0  0  0  0  0  0
    7.3749   14.6500   22.4483 C   0  0  0  0  0  0  0  0  0  0  0  0
    7.0931   14.1154   21.3801 O   0  0  0  0  0  0  0  0  0  0  0  0
    6.5909   14.2804   23.7434 C   0  0  0  0  0  0  0  0  0  0  0  0
    6.8299   12.7748   24.0401 C   0  0  0  0  0  0  0  0  0  0  0  0
    7.3337   12.3034   25.3998 C   0  0  0  0  0  0  0  0  0  0  0  0
    7.9823   13.3906   26.1293 N   0  0  0  0  0  0  0  0  0  0  0  0
    9.4558   13.9687   25.5427 S   0  0  0  0  0  0  0  0  0  0  0  0
    9.6491   15.2249   26.2255 O   0  0  0  0  0  0  0  0  0  0  0  0
    9.4661   13.8223   24.1112 O   0  0  0  0  0  0  0  0  0  0  0  0
   10.6605   12.9244   26.0704 N   0  0  0  0  0  0  0  0  0  0  0  0
   10.7928   11.6511   25.3024 C   0  0  0  0  0  0  0  0  0  0  0  0
   12.1816   11.0761   25.5945 C   0  0  0  0  0  0  0  0  0  0  0  0
   13.3452   11.8850   25.1211 C   0  0  0  0  0  0  0  0  0  0  0  0
   12.8498   13.2920   24.9317 C   0  0  0  0  0  0  0  0  0  0  0  0
   11.9635   13.6726   26.1131 C   0  0  0  0  0  0  0  0  0  0  0  0
    6.9690   14.4858   26.2910 C   0  0  0  0  0  0  0  0  0  0  0  0
    6.7306   15.2072   24.9605 C   0  0  0  0  0  0  0  0  0  0  0  0
  2  1  1  6
  2  3  1  0
  3  4  1  0
  4  5  1  0
  5  6  2  0
  5  7  1  0
  7  8  1  1
  8  9  1  0
  9 10  2  0
  9 11  1  0
 11 12  1  0
 12 13  1  0
 13 14  1  0
 14 15  1  0
 15 16  2  0
 15 17  2  0
 15 18  1  0
 18 19  1  0
 19 20  1  0
 20 21  1  0
 21 22  1  0
 22 23  1  0
 14 24  1  0
 24 25  1  0
  7  2  1  0
 25 11  1  0
 23 18  1  0
M  END
>  <energy_score>  (965) 
-11.299702

>  <inchikey>  (965) 
None

>  <smiles>  (965) 
None

>  <ref_pdb>  (965) 
A4706a

>  <alias>  (965) 
None

>  <HIPPO Pose ID>  (965) 
499838

>  <name>  (965) 
P499838

>  <HIPPO Compound ID>  (965) 
314411

>  <ref_mols>  (965) 
A4706a,A0875a

>  <distance_score>  (965) 
1.580775

>  <inspiration_score>  (965) 
None

$$$$
P499843
     RDKit          3D

 25 28  0  0  0  0  0  0  0  0999 V2000
    6.2746   15.0372   21.6474 O   0  0  0  0  0  0  0  0  0  0  0  0
    6.9741   14.3320   22.3688 C   0  0  0  0  0  0  0  0  0  0  0  0
    8.2684   13.9852   22.0277 O   0  0  0  0  0  0  0  0  0  0  0  0
    8.8502   14.9251   21.0383 C   0  0  1  0  0  0  0  0  0  0  0  0
    9.1119   16.2441   21.7597 C   0  0  0  0  0  0  0  0  0  0  0  0
   10.3695   16.0389   22.4811 O   0  0  0  0  0  0  0  0  0  0  0  0
   11.1415   15.0962   21.7380 C   0  0  0  0  0  0  0  0  0  0  0  0
   10.2798   14.7078   20.5859 C   0  0  1  0  0  0  0  0  0  0  0  0
   10.8877   14.3642   19.2172 C   0  0  0  0  0  0  0  0  0  0  0  0
   10.5103   15.6789   19.4868 O   0  0  0  0  0  0  0  0  0  0  0  0
    6.3827   13.8601   23.7191 C   0  0  0  0  0  0  0  0  0  0  0  0
    6.8918   12.5271   24.2548 C   0  0  0  0  0  0  0  0  0  0  0  0
    7.2608   12.4288   25.7225 C   0  0  0  0  0  0  0  0  0  0  0  0
    7.7702   13.6913   26.2386 N   0  0  0  0  0  0  0  0  0  0  0  0
    9.2396   14.3333   25.7512 S   0  0  0  0  0  0  0  0  0  0  0  0
    9.6363   15.2565   26.7871 O   0  0  0  0  0  0  0  0  0  0  0  0
    9.1203   14.7763   24.3950 O   0  0  0  0  0  0  0  0  0  0  0  0
   10.3563   13.0909   25.7273 N   0  0  0  0  0  0  0  0  0  0  0  0
   10.2783   12.1186   24.6147 C   0  0  0  0  0  0  0  0  0  0  0  0
   11.0222   10.9071   25.1176 C   0  0  0  0  0  0  0  0  0  0  0  0
   12.4598   11.3091   25.5375 C   0  0  0  0  0  0  0  0  0  0  0  0
   12.7705   12.7496   25.1901 C   0  0  0  0  0  0  0  0  0  0  0  0
   11.7389   13.6471   25.8554 C   0  0  0  0  0  0  0  0  0  0  0  0
    6.6682   14.6933   26.1827 C   0  0  0  0  0  0  0  0  0  0  0  0
    6.3044   15.0253   24.7330 C   0  0  0  0  0  0  0  0  0  0  0  0
  1  2  2  0
  2  3  1  0
  4  3  1  1
  4  5  1  0
  5  6  1  0
  6  7  1  0
  8  7  1  6
  8  9  1  0
  9 10  1  0
  2 11  1  0
 11 12  1  0
 12 13  1  0
 13 14  1  0
 14 15  1  0
 15 16  2  0
 15 17  2  0
 15 18  1  0
 18 19  1  0
 19 20  1  0
 20 21  1  0
 21 22  1  0
 22 23  1  0
 14 24  1  0
 24 25  1  0
  8  4  1  0
 25 11  1  0
  8 10  1  0
 23 18  1  0
M  END
>  <energy_score>  (966) 
-27.175699

>  <inchikey>  (966) 
None

>  <smiles>  (966) 
None

>  <ref_pdb>  (966) 
A4706a

>  <alias>  (966) 
None

>  <HIPPO Pose ID>  (966) 
499843

>  <name>  (966) 
P499843

>  <HIPPO Compound ID>  (966) 
314412

>  <ref_mols>  (966) 
A4706a,A0875a

>  <distance_score>  (966) 
1.408973

>  <inspiration_score>  (966) 
None

$$$$
P499845
     RDKit          3D

 25 28  0  0  0  0  0  0  0  0999 V2000
    6.8164   13.2840   21.9877 O   0  0  0  0  0  0  0  0  0  0  0  0
    7.0705   14.1672   22.8058 C   0  0  0  0  0  0  0  0  0  0  0  0
    8.0469   15.1072   22.6410 O   0  0  0  0  0  0  0  0  0  0  0  0
    8.8108   15.0437   21.4231 C   0  0  2  0  0  0  0  0  0  0  0  0
   10.0294   14.1152   21.3101 C   0  0  1  0  0  0  0  0  0  0  0  0
   10.6042   14.5711   19.9359 C   0  0  0  0  0  0  0  0  0  0  0  0
   10.2841   15.9851   19.8976 O   0  0  0  0  0  0  0  0  0  0  0  0
    9.7188   16.2373   21.2165 C   0  0  2  0  0  0  0  0  0  0  0  0
   10.8586   16.0223   22.2366 C   0  0  0  0  0  0  0  0  0  0  0  0
   11.0224   14.5615   22.3347 N   0  0  0  0  0  0  0  0  0  0  0  0
    6.2677   14.2941   24.1250 C   0  0  0  0  0  0  0  0  0  0  0  0
    6.0827   12.9300   24.8351 C   0  0  0  0  0  0  0  0  0  0  0  0
    7.1592   12.4932   25.8409 C   0  0  0  0  0  0  0  0  0  0  0  0
    8.0541   13.6162   26.2186 N   0  0  0  0  0  0  0  0  0  0  0  0
    9.4173   13.7921   25.2245 S   0  0  0  0  0  0  0  0  0  0  0  0
    9.0730   13.1340   23.9992 O   0  0  0  0  0  0  0  0  0  0  0  0
    9.8744   15.1543   25.3142 O   0  0  0  0  0  0  0  0  0  0  0  0
   10.5012   12.7837   25.9928 N   0  0  0  0  0  0  0  0  0  0  0  0
   10.6898   11.4676   25.3298 C   0  0  0  0  0  0  0  0  0  0  0  0
   12.1278   11.0290   25.5001 C   0  0  0  0  0  0  0  0  0  0  0  0
   13.0101   12.0341   24.8514 C   0  0  0  0  0  0  0  0  0  0  0  0
   12.9022   13.3113   25.6236 C   0  0  0  0  0  0  0  0  0  0  0  0
   11.7011   13.4284   26.5558 C   0  0  0  0  0  0  0  0  0  0  0  0
    7.2668   14.8493   26.4341 C   0  0  0  0  0  0  0  0  0  0  0  0
    6.6964   15.3805   25.1205 C   0  0  0  0  0  0  0  0  0  0  0  0
  1  2  2  0
  2  3  1  0
  4  3  1  1
  4  5  1  0
  5  6  1  6
  6  7  1  0
  7  8  1  0
  8  9  1  1
  9 10  1  0
  2 11  1  0
 11 12  1  0
 12 13  1  0
 13 14  1  0
 14 15  1  0
 15 16  2  0
 15 17  2  0
 15 18  1  0
 18 19  1  0
 19 20  1  0
 20 21  1  0
 21 22  1  0
 22 23  1  0
 14 24  1  0
 24 25  1  0
  8  4  1  0
 25 11  1  0
 10  5  1  0
 23 18  1  0
M  END
>  <energy_score>  (967) 
-55.473929

>  <inchikey>  (967) 
None

>  <smiles>  (967) 
None

>  <ref_pdb>  (967) 
A4706a

>  <alias>  (967) 
None

>  <HIPPO Pose ID>  (967) 
499845

>  <name>  (967) 
P499845

>  <HIPPO Compound ID>  (967) 
314414

>  <ref_mols>  (967) 
A4706a,A0875a

>  <distance_score>  (967) 
1.552308

>  <inspiration_score>  (967) 
None

$$$$
P499849
     RDKit          3D

 25 27  0  0  0  0  0  0  0  0999 V2000
    6.9730   13.4947   21.6930 O   0  0  0  0  0  0  0  0  0  0  0  0
    7.0975   14.5086   22.3756 C   0  0  0  0  0  0  0  0  0  0  0  0
    8.0504   15.4643   22.1374 O   0  0  0  0  0  0  0  0  0  0  0  0
    9.2517   14.9914   21.4571 C   0  0  2  0  0  0  0  0  0  0  0  0
   10.4801   15.4237   22.2541 C   0  0  0  0  0  0  0  0  0  0  0  0
   11.6318   15.0891   21.4786 O   0  0  0  0  0  0  0  0  0  0  0  0
   11.1675   15.0704   20.1171 C   0  0  0  0  0  0  0  0  0  0  0  0
    9.7273   15.5488   20.1202 C   0  0  0  0  0  0  0  0  0  0  0  0
    9.1160   15.0948   19.0258 F   0  0  0  0  0  0  0  0  0  0  0  0
    9.6618   16.8955   20.0774 F   0  0  0  0  0  0  0  0  0  0  0  0
    6.1677   14.7554   23.5891 C   0  0  0  0  0  0  0  0  0  0  0  0
    5.7565   13.4246   24.2898 C   0  0  0  0  0  0  0  0  0  0  0  0
    6.3286   13.2479   25.7041 C   0  0  0  0  0  0  0  0  0  0  0  0
    7.7507   13.6925   25.7406 N   0  0  0  0  0  0  0  0  0  0  0  0
    8.7850   12.6657   24.9075 S   0  0  0  0  0  0  0  0  0  0  0  0
    8.2105   11.3436   24.9805 O   0  0  0  0  0  0  0  0  0  0  0  0
    9.0978   13.2525   23.6360 O   0  0  0  0  0  0  0  0  0  0  0  0
   10.2506   12.6092   25.7603 N   0  0  0  0  0  0  0  0  0  0  0  0
   10.9776   11.3962   25.2707 C   0  0  0  0  0  0  0  0  0  0  0  0
   12.4354   11.3793   25.7350 C   0  0  0  0  0  0  0  0  0  0  0  0
   13.2238   12.6092   25.4146 C   0  0  0  0  0  0  0  0  0  0  0  0
   12.3056   13.5786   24.7215 C   0  0  0  0  0  0  0  0  0  0  0  0
   11.1162   13.8242   25.6616 C   0  0  0  0  0  0  0  0  0  0  0  0
    7.8513   15.1502   25.4746 C   0  0  0  0  0  0  0  0  0  0  0  0
    6.6656   15.7005   24.6754 C   0  0  0  0  0  0  0  0  0  0  0  0
  1  2  2  0
  2  3  1  0
  4  3  1  1
  4  5  1  0
  5  6  1  0
  6  7  1  0
  7  8  1  0
  8  9  1  0
  8 10  1  0
  2 11  1  0
 11 12  1  0
 12 13  1  0
 13 14  1  0
 14 15  1  0
 15 16  2  0
 15 17  2  0
 15 18  1  0
 18 19  1  0
 19 20  1  0
 20 21  1  0
 21 22  1  0
 22 23  1  0
 14 24  1  0
 24 25  1  0
  8  4  1  0
 25 11  1  0
 23 18  1  0
M  END
>  <energy_score>  (968) 
-32.724551

>  <inchikey>  (968) 
None

>  <smiles>  (968) 
None

>  <ref_pdb>  (968) 
A4706a

>  <alias>  (968) 
None

>  <HIPPO Pose ID>  (968) 
499849

>  <name>  (968) 
P499849

>  <HIPPO Compound ID>  (968) 
314415

>  <ref_mols>  (968) 
A4706a,A0875a

>  <distance_score>  (968) 
1.778672

>  <inspiration_score>  (968) 
None

$$$$
P499852
     RDKit          3D

 25 27  0  0  0  0  0  0  0  0999 V2000
   10.8287   15.2029   19.1111 C   0  0  0  0  0  0  0  0  0  0  0  0
    9.9543   16.1520   19.7122 O   0  0  0  0  0  0  0  0  0  0  0  0
    9.6366   16.0564   21.1192 C   0  0  2  0  0  0  0  0  0  0  0  0
   10.8526   15.8242   22.0127 C   0  0  0  0  0  0  0  0  0  0  0  0
   10.9998   14.4090   22.1782 O   0  0  0  0  0  0  0  0  0  0  0  0
    9.7748   13.8175   21.7209 C   0  0  0  0  0  0  0  0  0  0  0  0
    8.7264   14.8823   21.4403 C   0  0  1  0  0  0  0  0  0  0  0  0
    7.8840   15.0669   22.6040 O   0  0  0  0  0  0  0  0  0  0  0  0
    7.0276   14.0343   22.8249 C   0  0  0  0  0  0  0  0  0  0  0  0
    6.6855   13.2300   21.9569 O   0  0  0  0  0  0  0  0  0  0  0  0
    6.5662   13.8220   24.2657 C   0  0  0  0  0  0  0  0  0  0  0  0
    7.1894   12.4580   24.6789 C   0  0  0  0  0  0  0  0  0  0  0  0
    7.7049   12.3244   26.0927 C   0  0  0  0  0  0  0  0  0  0  0  0
    8.3072   13.5742   26.5603 N   0  0  0  0  0  0  0  0  0  0  0  0
    9.7557   14.1583   25.9106 S   0  0  0  0  0  0  0  0  0  0  0  0
    9.5647   14.3686   24.5067 O   0  0  0  0  0  0  0  0  0  0  0  0
   10.1292   15.2616   26.7595 O   0  0  0  0  0  0  0  0  0  0  0  0
   10.8734   12.9141   26.0962 N   0  0  0  0  0  0  0  0  0  0  0  0
   10.9827   11.9300   24.9828 C   0  0  0  0  0  0  0  0  0  0  0  0
   12.1176   10.9852   25.3593 C   0  0  0  0  0  0  0  0  0  0  0  0
   13.4922   11.5748   25.2860 C   0  0  0  0  0  0  0  0  0  0  0  0
   13.3656   13.0363   25.6548 C   0  0  0  0  0  0  0  0  0  0  0  0
   12.2104   13.3193   26.6415 C   0  0  0  0  0  0  0  0  0  0  0  0
    7.2359   14.6120   26.6266 C   0  0  0  0  0  0  0  0  0  0  0  0
    6.7784   15.0036   25.2244 C   0  0  0  0  0  0  0  0  0  0  0  0
  1  2  1  0
  3  2  1  6
  3  4  1  0
  4  5  1  0
  5  6  1  0
  6  7  1  0
  7  8  1  1
  8  9  1  0
  9 10  2  0
  9 11  1  0
 11 12  1  0
 12 13  1  0
 13 14  1  0
 14 15  1  0
 15 16  2  0
 15 17  2  0
 15 18  1  0
 18 19  1  0
 19 20  1  0
 20 21  1  0
 21 22  1  0
 22 23  1  0
 14 24  1  0
 24 25  1  0
  7  3  1  0
 25 11  1  0
 23 18  1  0
M  END
>  <energy_score>  (969) 
-31.423655

>  <inchikey>  (969) 
None

>  <smiles>  (969) 
None

>  <ref_pdb>  (969) 
A4706a

>  <alias>  (969) 
None

>  <HIPPO Pose ID>  (969) 
499852

>  <name>  (969) 
P499852

>  <HIPPO Compound ID>  (969) 
314416

>  <ref_mols>  (969) 
A0875a,A4706a

>  <distance_score>  (969) 
1.243504

>  <inspiration_score>  (969) 
None

$$$$
P499858
     RDKit          3D

 25 27  0  0  0  0  0  0  0  0999 V2000
   18.6236   12.7253   28.1876 C   0  0  0  0  0  0  0  0  0  0  0  0
   17.2338   12.9285   28.4543 O   0  0  0  0  0  0  0  0  0  0  0  0
   16.5180   11.7975   28.6774 C   0  0  0  0  0  0  0  0  0  0  0  0
   16.9242   10.6483   28.6058 O   0  0  0  0  0  0  0  0  0  0  0  0
   15.1315   12.1371   29.1178 C   0  0  0  0  0  0  0  0  0  0  0  0
   14.2920   12.7992   28.1335 O   0  0  0  0  0  0  0  0  0  0  0  0
   13.9067   12.0874   27.0427 C   0  0  0  0  0  0  0  0  0  0  0  0
   14.2710   10.9521   26.7732 O   0  0  0  0  0  0  0  0  0  0  0  0
   13.0115   12.8848   26.1224 C   0  0  0  0  0  0  0  0  0  0  0  0
   11.9469   13.7333   26.8138 C   0  0  0  0  0  0  0  0  0  0  0  0
   10.5465   13.1989   26.6271 C   0  0  0  0  0  0  0  0  0  0  0  0
   10.2009   13.0234   25.2064 N   0  0  0  0  0  0  0  0  0  0  0  0
    9.0455   14.1128   24.6691 S   0  0  0  0  0  0  0  0  0  0  0  0
    8.8343   13.9447   23.2570 O   0  0  0  0  0  0  0  0  0  0  0  0
    9.4046   15.3743   25.2645 O   0  0  0  0  0  0  0  0  0  0  0  0
    7.7402   13.4837   25.5031 N   0  0  0  0  0  0  0  0  0  0  0  0
    7.2352   12.1629   25.0811 C   0  0  0  0  0  0  0  0  0  0  0  0
    6.5443   11.5363   26.2874 C   0  0  0  0  0  0  0  0  0  0  0  0
    5.4369   12.4425   26.8268 C   0  0  0  0  0  0  0  0  0  0  0  0
    5.9336   13.8697   27.0620 C   0  0  0  0  0  0  0  0  0  0  0  0
    6.6449   14.4194   25.8267 C   0  0  0  0  0  0  0  0  0  0  0  0
   11.3216   12.7789   24.2928 C   0  0  0  0  0  0  0  0  0  0  0  0
   12.3903   12.0021   25.0564 C   0  0  0  0  0  0  0  0  0  0  0  0
   14.4403   11.3273   30.1865 C   0  0  0  0  0  0  0  0  0  0  0  0
   14.9577   12.6908   30.5221 C   0  0  0  0  0  0  0  0  0  0  0  0
  1  2  1  0
  2  3  1  0
  3  4  2  0
  3  5  1  0
  5  6  1  0
  6  7  1  0
  7  8  2  0
  7  9  1  0
  9 10  1  0
 10 11  1  0
 11 12  1  0
 12 13  1  0
 13 14  2  0
 13 15  2  0
 13 16  1  0
 16 17  1  0
 17 18  1  0
 18 19  1  0
 19 20  1  0
 20 21  1  0
 12 22  1  0
 22 23  1  0
  5 24  1  0
 24 25  1  0
 25  5  1  0
 23  9  1  0
 21 16  1  0
M  END
>  <energy_score>  (970) 
-51.708849

>  <inchikey>  (970) 
None

>  <smiles>  (970) 
None

>  <ref_pdb>  (970) 
A4706a

>  <alias>  (970) 
None

>  <HIPPO Pose ID>  (970) 
499858

>  <name>  (970) 
P499858

>  <HIPPO Compound ID>  (970) 
314419

>  <ref_mols>  (970) 
A4706a,A0875a

>  <distance_score>  (970) 
1.849376

>  <inspiration_score>  (970) 
None

$$$$
P499860
     RDKit          3D

 25 27  0  0  0  0  0  0  0  0999 V2000
   11.2290   14.3941   18.6504 O   0  0  0  0  0  0  0  0  0  0  0  0
   10.8131   14.9172   19.6686 C   0  0  0  0  0  0  0  0  0  0  0  0
   11.3377   14.7056   20.9096 O   0  0  0  0  0  0  0  0  0  0  0  0
   10.7318   15.6556   21.7613 C   0  0  0  0  0  0  0  0  0  0  0  0
    9.4026   15.9042   21.1194 C   0  0  2  0  0  0  0  0  0  0  0  0
    8.3080   14.8743   21.4395 C   0  0  0  0  0  0  0  0  0  0  0  0
    7.6287   15.1223   22.6893 O   0  0  0  0  0  0  0  0  0  0  0  0
    6.6950   14.1751   23.0133 C   0  0  0  0  0  0  0  0  0  0  0  0
    6.3555   13.2570   22.2683 O   0  0  0  0  0  0  0  0  0  0  0  0
    6.1137   14.3309   24.4290 C   0  0  0  0  0  0  0  0  0  0  0  0
    5.9290   12.9534   25.0977 C   0  0  0  0  0  0  0  0  0  0  0  0
    7.2210   12.2831   25.5803 C   0  0  0  0  0  0  0  0  0  0  0  0
    8.2738   13.2862   25.9236 N   0  0  0  0  0  0  0  0  0  0  0  0
    9.4727   13.5356   24.7512 S   0  0  0  0  0  0  0  0  0  0  0  0
    9.9428   14.8951   24.8606 O   0  0  0  0  0  0  0  0  0  0  0  0
    8.9930   12.9650   23.5228 O   0  0  0  0  0  0  0  0  0  0  0  0
   10.6992   12.5283   25.2339 N   0  0  0  0  0  0  0  0  0  0  0  0
   10.4190   11.0970   25.0489 C   0  0  0  0  0  0  0  0  0  0  0  0
   11.6573   10.2576   25.2632 C   0  0  0  0  0  0  0  0  0  0  0  0
   12.9501   11.0987   25.4023 C   0  0  0  0  0  0  0  0  0  0  0  0
   12.8373   12.2158   26.4273 C   0  0  0  0  0  0  0  0  0  0  0  0
   11.5053   12.9565   26.3730 C   0  0  0  0  0  0  0  0  0  0  0  0
    7.6620   14.5240   26.4711 C   0  0  0  0  0  0  0  0  0  0  0  0
    6.8576   15.2631   25.3978 C   0  0  0  0  0  0  0  0  0  0  0  0
    9.7571   15.7848   19.7366 O   0  0  0  0  0  0  0  0  0  0  0  0
  1  2  2  0
  2  3  1  0
  3  4  1  0
  4  5  1  0
  5  6  1  1
  6  7  1  0
  7  8  1  0
  8  9  2  0
  8 10  1  0
 10 11  1  0
 11 12  1  0
 12 13  1  0
 13 14  1  0
 14 15  2  0
 14 16  2  0
 14 17  1  0
 17 18  1  0
 18 19  1  0
 19 20  1  0
 20 21  1  0
 21 22  1  0
 13 23  1  0
 23 24  1  0
  5 25  1  0
 25  2  1  0
 24 10  1  0
 22 17  1  0
M  END
>  <energy_score>  (971) 
-39.781505

>  <inchikey>  (971) 
None

>  <smiles>  (971) 
None

>  <ref_pdb>  (971) 
A4706a

>  <alias>  (971) 
None

>  <HIPPO Pose ID>  (971) 
499860

>  <name>  (971) 
P499860

>  <HIPPO Compound ID>  (971) 
314420

>  <ref_mols>  (971) 
A4706a,A0875a

>  <distance_score>  (971) 
1.411709

>  <inspiration_score>  (971) 
None

$$$$
P499862
     RDKit          3D

 25 28  0  0  0  0  0  0  0  0999 V2000
    6.5768   13.3322   21.8334 O   0  0  0  0  0  0  0  0  0  0  0  0
    7.1213   14.0818   22.6271 C   0  0  0  0  0  0  0  0  0  0  0  0
    7.9836   15.1084   22.3426 O   0  0  0  0  0  0  0  0  0  0  0  0
    8.6820   15.0004   21.1104 C   0  0  0  0  0  0  0  0  0  0  0  0
    9.4610   16.2252   20.6504 C   0  0  2  0  0  0  0  0  0  0  0  0
   10.1130   15.6221   19.3926 C   0  0  0  0  0  0  0  0  0  0  0  0
   10.4795   14.2960   19.8305 O   0  0  0  0  0  0  0  0  0  0  0  0
    9.9770   14.2164   21.1879 C   0  0  1  0  0  0  0  0  0  0  0  0
   10.8910   15.0885   22.0325 C   0  0  0  0  0  0  0  0  0  0  0  0
   10.5125   16.4120   21.6412 O   0  0  0  0  0  0  0  0  0  0  0  0
    7.0189   13.9390   24.1111 C   0  0  0  0  0  0  0  0  0  0  0  0
    6.5974   12.6158   24.7421 C   0  0  0  0  0  0  0  0  0  0  0  0
    7.1739   12.5276   26.1709 C   0  0  0  0  0  0  0  0  0  0  0  0
    7.7044   13.8368   26.6190 N   0  0  0  0  0  0  0  0  0  0  0  0
    9.2843   14.3968   26.4059 S   0  0  0  0  0  0  0  0  0  0  0  0
    9.6970   14.8982   27.6916 O   0  0  0  0  0  0  0  0  0  0  0  0
    9.3587   15.2739   25.2605 O   0  0  0  0  0  0  0  0  0  0  0  0
   10.3111   13.1245   26.0418 N   0  0  0  0  0  0  0  0  0  0  0  0
   10.1058   12.3310   24.8209 C   0  0  0  0  0  0  0  0  0  0  0  0
   10.8679   11.0445   25.0528 C   0  0  0  0  0  0  0  0  0  0  0  0
   12.3390   11.3536   25.4478 C   0  0  0  0  0  0  0  0  0  0  0  0
   12.6825   12.8089   25.2335 C   0  0  0  0  0  0  0  0  0  0  0  0
   11.7336   13.6320   26.1005 C   0  0  0  0  0  0  0  0  0  0  0  0
    6.6778   14.9072   26.4083 C   0  0  0  0  0  0  0  0  0  0  0  0
    6.4390   15.1069   24.9001 C   0  0  0  0  0  0  0  0  0  0  0  0
  1  2  2  0
  2  3  1  0
  3  4  1  0
  4  5  1  0
  5  6  1  6
  6  7  1  0
  7  8  1  0
  8  9  1  1
  9 10  1  0
  2 11  1  0
 11 12  1  0
 12 13  1  0
 13 14  1  0
 14 15  1  0
 15 16  2  0
 15 17  2  0
 15 18  1  0
 18 19  1  0
 19 20  1  0
 20 21  1  0
 21 22  1  0
 22 23  1  0
 14 24  1  0
 24 25  1  0
  8  4  1  0
 25 11  1  0
 10  5  1  0
 23 18  1  0
M  END
>  <energy_score>  (972) 
-20.014213

>  <inchikey>  (972) 
None

>  <smiles>  (972) 
None

>  <ref_pdb>  (972) 
A4706a

>  <alias>  (972) 
None

>  <HIPPO Pose ID>  (972) 
499862

>  <name>  (972) 
P499862

>  <HIPPO Compound ID>  (972) 
314421

>  <ref_mols>  (972) 
A4706a,A0875a

>  <distance_score>  (972) 
1.57434

>  <inspiration_score>  (972) 
None

$$$$
P499866
     RDKit          3D

 25 27  0  0  0  0  0  0  0  0999 V2000
   11.0577   15.0149   18.6489 C   0  0  0  0  0  0  0  0  0  0  0  0
   10.4831   15.3023   19.6599 C   0  0  0  0  0  0  0  0  0  0  0  0
    9.8675   15.6178   20.9678 C   0  0  2  0  0  0  0  0  0  0  0  0
   10.9477   15.8847   22.0074 C   0  0  0  0  0  0  0  0  0  0  0  0
   11.3691   14.6421   22.5802 O   0  0  0  0  0  0  0  0  0  0  0  0
   10.4298   13.6667   22.1264 C   0  0  0  0  0  0  0  0  0  0  0  0
    9.2087   14.3826   21.5451 C   0  0  1  0  0  0  0  0  0  0  0  0
    8.2607   14.6790   22.6121 O   0  0  0  0  0  0  0  0  0  0  0  0
    7.2241   13.8163   22.7342 C   0  0  0  0  0  0  0  0  0  0  0  0
    6.7106   13.2200   21.7928 O   0  0  0  0  0  0  0  0  0  0  0  0
    6.7580   13.5040   24.1478 C   0  0  0  0  0  0  0  0  0  0  0  0
    7.5393   12.2305   24.5528 C   0  0  0  0  0  0  0  0  0  0  0  0
    7.9359   12.0819   25.9989 C   0  0  0  0  0  0  0  0  0  0  0  0
    8.2668   13.3717   26.5865 N   0  0  0  0  0  0  0  0  0  0  0  0
    9.6909   14.1762   26.1991 S   0  0  0  0  0  0  0  0  0  0  0  0
    9.7938   15.2073   27.2018 O   0  0  0  0  0  0  0  0  0  0  0  0
    9.6718   14.5222   24.8073 O   0  0  0  0  0  0  0  0  0  0  0  0
   10.9550   13.0431   26.4496 N   0  0  0  0  0  0  0  0  0  0  0  0
   12.0939   13.7299   27.1369 C   0  0  0  0  0  0  0  0  0  0  0  0
   13.4692   13.1379   26.8098 C   0  0  0  0  0  0  0  0  0  0  0  0
   13.3978   11.6696   26.7150 C   0  0  0  0  0  0  0  0  0  0  0  0
   12.5390   11.3538   25.5018 C   0  0  0  0  0  0  0  0  0  0  0  0
   11.4103   12.3524   25.2152 C   0  0  0  0  0  0  0  0  0  0  0  0
    7.0690   14.2614   26.5578 C   0  0  0  0  0  0  0  0  0  0  0  0
    6.7563   14.6806   25.1252 C   0  0  0  0  0  0  0  0  0  0  0  0
  1  2  3  0
  3  2  1  6
  3  4  1  0
  4  5  1  0
  5  6  1  0
  6  7  1  0
  7  8  1  1
  8  9  1  0
  9 10  2  0
  9 11  1  0
 11 12  1  0
 12 13  1  0
 13 14  1  0
 14 15  1  0
 15 16  2  0
 15 17  2  0
 15 18  1  0
 18 19  1  0
 19 20  1  0
 20 21  1  0
 21 22  1  0
 22 23  1  0
 14 24  1  0
 24 25  1  0
  7  3  1  0
 25 11  1  0
 23 18  1  0
M  END
>  <energy_score>  (973) 
-32.684028

>  <inchikey>  (973) 
None

>  <smiles>  (973) 
None

>  <ref_pdb>  (973) 
A4706a

>  <alias>  (973) 
None

>  <HIPPO Pose ID>  (973) 
499866

>  <name>  (973) 
P499866

>  <HIPPO Compound ID>  (973) 
314422

>  <ref_mols>  (973) 
A4706a,A0875a

>  <distance_score>  (973) 
1.660331

>  <inspiration_score>  (973) 
None

$$$$
P499868
     RDKit          3D

 25 26  0  0  0  0  0  0  0  0999 V2000
    8.7432   16.8436   21.2447 C   0  0  0  0  0  0  0  0  0  0  0  0
    8.8443   15.6440   22.1721 C   0  0  2  0  0  0  0  0  0  0  0  0
   10.3128   15.1529   22.3425 C   0  0  0  0  0  0  0  0  0  0  0  0
   11.1979   15.4247   21.2643 O   0  0  0  0  0  0  0  0  0  0  0  0
   10.8756   14.7042   20.0925 C   0  0  0  0  0  0  0  0  0  0  0  0
   10.6004   15.5946   19.1173 F   0  0  0  0  0  0  0  0  0  0  0  0
    9.7528   13.9939   20.3107 F   0  0  0  0  0  0  0  0  0  0  0  0
    7.9023   14.6376   21.6757 O   0  0  0  0  0  0  0  0  0  0  0  0
    7.1826   13.7842   22.4392 C   0  0  0  0  0  0  0  0  0  0  0  0
    6.2598   13.1234   21.9708 O   0  0  0  0  0  0  0  0  0  0  0  0
    7.6067   13.5731   23.8600 C   0  0  0  0  0  0  0  0  0  0  0  0
    7.5826   12.1126   24.3156 C   0  0  0  0  0  0  0  0  0  0  0  0
    8.2354   11.9414   25.6814 C   0  0  0  0  0  0  0  0  0  0  0  0
    8.2909   13.2167   26.4131 N   0  0  0  0  0  0  0  0  0  0  0  0
    9.6491   14.2040   26.4230 S   0  0  0  0  0  0  0  0  0  0  0  0
    9.5716   14.9531   27.6447 O   0  0  0  0  0  0  0  0  0  0  0  0
    9.7697   14.9535   25.2050 O   0  0  0  0  0  0  0  0  0  0  0  0
   10.9772   13.1279   26.4830 N   0  0  0  0  0  0  0  0  0  0  0  0
   11.5624   12.8576   25.1314 C   0  0  0  0  0  0  0  0  0  0  0  0
   12.7036   11.8659   25.2594 C   0  0  0  0  0  0  0  0  0  0  0  0
   13.8105   12.3494   26.1610 C   0  0  0  0  0  0  0  0  0  0  0  0
   13.2544   12.7997   27.4920 C   0  0  0  0  0  0  0  0  0  0  0  0
   12.0147   13.6867   27.3958 C   0  0  0  0  0  0  0  0  0  0  0  0
    7.0062   13.9639   26.2958 C   0  0  0  0  0  0  0  0  0  0  0  0
    6.8100   14.4323   24.8502 C   0  0  0  0  0  0  0  0  0  0  0  0
  2  1  1  6
  2  3  1  0
  3  4  1  0
  4  5  1  0
  5  6  1  0
  5  7  1  0
  2  8  1  0
  8  9  1  0
  9 10  2  0
  9 11  1  0
 11 12  1  0
 12 13  1  0
 13 14  1  0
 14 15  1  0
 15 16  2  0
 15 17  2  0
 15 18  1  0
 18 19  1  0
 19 20  1  0
 20 21  1  0
 21 22  1  0
 22 23  1  0
 14 24  1  0
 24 25  1  0
 25 11  1  0
 23 18  1  0
M  END
>  <energy_score>  (974) 
-41.332161

>  <inchikey>  (974) 
None

>  <smiles>  (974) 
None

>  <ref_pdb>  (974) 
A4706a

>  <alias>  (974) 
None

>  <HIPPO Pose ID>  (974) 
499868

>  <name>  (974) 
P499868

>  <HIPPO Compound ID>  (974) 
314424

>  <ref_mols>  (974) 
A4706a,A0875a

>  <distance_score>  (974) 
1.662884

>  <inspiration_score>  (974) 
None

$$$$
P499869
     RDKit          3D

 25 26  0  0  0  0  0  0  0  0999 V2000
   20.2192   12.7318   28.9944 C   0  0  0  0  0  0  0  0  0  0  0  0
   19.0368   11.8764   28.9521 N   0  0  0  0  0  0  0  0  0  0  0  0
   17.9085   12.5844   28.3396 C   0  0  0  0  0  0  0  0  0  0  0  0
   16.6219   11.7333   28.3070 C   0  0  1  0  0  0  0  0  0  0  0  0
   16.1008   11.5199   29.7375 C   0  0  0  0  0  0  0  0  0  0  0  0
   14.8256   10.8660   29.7185 O   0  0  0  0  0  0  0  0  0  0  0  0
   14.4246   10.5143   31.0407 C   0  0  0  0  0  0  0  0  0  0  0  0
   15.6170   12.4599   27.5541 O   0  0  0  0  0  0  0  0  0  0  0  0
   14.8874   11.7446   26.6495 C   0  0  0  0  0  0  0  0  0  0  0  0
   15.1146   10.6084   26.2613 O   0  0  0  0  0  0  0  0  0  0  0  0
   13.7254   12.5780   26.1469 C   0  0  0  0  0  0  0  0  0  0  0  0
   12.8925   13.0474   27.3153 C   0  0  0  0  0  0  0  0  0  0  0  0
   11.6305   13.7908   26.9123 C   0  0  0  0  0  0  0  0  0  0  0  0
   10.8245   13.0654   25.8871 N   0  0  0  0  0  0  0  0  0  0  0  0
    9.4642   14.0234   25.4860 S   0  0  0  0  0  0  0  0  0  0  0  0
    9.8825   14.9830   24.4915 O   0  0  0  0  0  0  0  0  0  0  0  0
    8.8957   14.4653   26.7367 O   0  0  0  0  0  0  0  0  0  0  0  0
    8.3784   12.9566   24.7776 N   0  0  0  0  0  0  0  0  0  0  0  0
    8.0456   11.6956   25.4784 C   0  0  0  0  0  0  0  0  0  0  0  0
    6.9671   11.8701   26.5412 C   0  0  0  0  0  0  0  0  0  0  0  0
    5.7376   12.6029   26.0362 C   0  0  0  0  0  0  0  0  0  0  0  0
    6.1228   13.9007   25.3443 C   0  0  0  0  0  0  0  0  0  0  0  0
    7.1572   13.6449   24.2512 C   0  0  0  0  0  0  0  0  0  0  0  0
   11.6415   12.6719   24.7143 C   0  0  0  0  0  0  0  0  0  0  0  0
   12.8147   11.8136   25.1990 C   0  0  0  0  0  0  0  0  0  0  0  0
  1  2  1  0
  2  3  1  0
  4  3  1  1
  4  5  1  0
  5  6  1  0
  6  7  1  0
  4  8  1  0
  8  9  1  0
  9 10  2  0
  9 11  1  0
 11 12  1  0
 12 13  1  0
 13 14  1  0
 14 15  1  0
 15 16  2  0
 15 17  2  0
 15 18  1  0
 18 19  1  0
 19 20  1  0
 20 21  1  0
 21 22  1  0
 22 23  1  0
 14 24  1  0
 24 25  1  0
 25 11  1  0
 23 18  1  0
M  END
>  <energy_score>  (975) 
-76.465322

>  <inchikey>  (975) 
None

>  <smiles>  (975) 
None

>  <ref_pdb>  (975) 
A4706a

>  <alias>  (975) 
None

>  <HIPPO Pose ID>  (975) 
499869

>  <name>  (975) 
P499869

>  <HIPPO Compound ID>  (975) 
314426

>  <ref_mols>  (975) 
A4706a,A0875a

>  <distance_score>  (975) 
1.739145

>  <inspiration_score>  (975) 
None

$$$$
P499874
     RDKit          3D

 25 27  0  0  0  0  0  0  0  0999 V2000
   10.3458   15.0086   18.6484 C   0  0  0  0  0  0  0  0  0  0  0  0
    9.9347   15.6986   19.8062 O   0  0  0  0  0  0  0  0  0  0  0  0
    9.4909   14.9090   20.9494 C   0  0  2  0  0  0  0  0  0  0  0  0
    8.9786   15.8157   22.1185 C   0  0  1  0  0  0  0  0  0  0  0  0
    8.1091   15.3963   23.2041 O   0  0  0  0  0  0  0  0  0  0  0  0
    6.9981   14.6439   23.0040 C   0  0  0  0  0  0  0  0  0  0  0  0
    6.6754   14.1297   21.9396 O   0  0  0  0  0  0  0  0  0  0  0  0
    6.1855   14.4511   24.3292 C   0  0  0  0  0  0  0  0  0  0  0  0
    5.9518   12.9657   24.6913 C   0  0  0  0  0  0  0  0  0  0  0  0
    6.8858   12.2879   25.7131 C   0  0  0  0  0  0  0  0  0  0  0  0
    7.9151   13.2194   26.2361 N   0  0  0  0  0  0  0  0  0  0  0  0
    9.2274   13.4651   25.2111 S   0  0  0  0  0  0  0  0  0  0  0  0
    9.6978   14.8142   25.4102 O   0  0  0  0  0  0  0  0  0  0  0  0
    8.8056   12.9481   23.9331 O   0  0  0  0  0  0  0  0  0  0  0  0
   10.4402   12.4047   25.7830 N   0  0  0  0  0  0  0  0  0  0  0  0
   10.4872   11.1825   24.9186 C   0  0  0  0  0  0  0  0  0  0  0  0
   11.6559   10.2724   25.2469 C   0  0  0  0  0  0  0  0  0  0  0  0
   12.9960   11.0387   25.3970 C   0  0  0  0  0  0  0  0  0  0  0  0
   12.8760   12.2271   26.3246 C   0  0  0  0  0  0  0  0  0  0  0  0
   11.7497   13.1291   25.8593 C   0  0  0  0  0  0  0  0  0  0  0  0
    7.2459   14.4596   26.7073 C   0  0  0  0  0  0  0  0  0  0  0  0
    6.6330   15.2671   25.5572 C   0  0  0  0  0  0  0  0  0  0  0  0
   10.5008   15.8460   22.5413 C   0  0  0  0  0  0  0  0  0  0  0  0
   10.6161   14.4596   21.9137 C   0  0  2  0  0  0  0  0  0  0  0  0
   11.9008   14.3394   21.2571 N   0  0  0  0  0  0  0  0  0  0  0  0
  1  2  1  0
  3  2  1  6
  3  4  1  0
  4  5  1  1
  5  6  1  0
  6  7  2  0
  6  8  1  0
  8  9  1  0
  9 10  1  0
 10 11  1  0
 11 12  1  0
 12 13  2  0
 12 14  2  0
 12 15  1  0
 15 16  1  0
 16 17  1  0
 17 18  1  0
 18 19  1  0
 19 20  1  0
 11 21  1  0
 21 22  1  0
  4 23  1  0
 23 24  1  0
 24 25  1  6
 24  3  1  0
 22  8  1  0
 20 15  1  0
M  END
>  <energy_score>  (976) 
-40.739763

>  <inchikey>  (976) 
None

>  <smiles>  (976) 
None

>  <ref_pdb>  (976) 
A4706a

>  <alias>  (976) 
None

>  <HIPPO Pose ID>  (976) 
499874

>  <name>  (976) 
P499874

>  <HIPPO Compound ID>  (976) 
314428

>  <ref_mols>  (976) 
A4706a,A0875a

>  <distance_score>  (976) 
1.364124

>  <inspiration_score>  (976) 
None

$$$$
P499887
     RDKit          3D

 25 27  0  0  0  0  0  0  0  0999 V2000
   11.3542   14.7827   18.7789 C   0  0  0  0  0  0  0  0  0  0  0  0
   10.0741   14.5684   19.3213 O   0  0  0  0  0  0  0  0  0  0  0  0
    9.9092   14.5851   20.7569 C   0  0  2  0  0  0  0  0  0  0  0  0
    8.5148   15.1448   21.2055 C   0  0  1  0  0  0  0  0  0  0  0  0
    8.0034   14.8716   22.5183 O   0  0  0  0  0  0  0  0  0  0  0  0
    7.0876   13.8837   22.7207 C   0  0  0  0  0  0  0  0  0  0  0  0
    6.5246   13.1959   21.8907 O   0  0  0  0  0  0  0  0  0  0  0  0
    6.9695   13.7207   24.2066 C   0  0  0  0  0  0  0  0  0  0  0  0
    6.5919   12.3953   24.8504 C   0  0  0  0  0  0  0  0  0  0  0  0
    7.1908   12.3405   26.2736 C   0  0  0  0  0  0  0  0  0  0  0  0
    7.6642   13.6771   26.7090 N   0  0  0  0  0  0  0  0  0  0  0  0
    9.2242   14.2949   26.4996 S   0  0  0  0  0  0  0  0  0  0  0  0
    9.6550   14.7271   27.8055 O   0  0  0  0  0  0  0  0  0  0  0  0
    9.2281   15.2574   25.4228 O   0  0  0  0  0  0  0  0  0  0  0  0
   10.2883   13.0818   26.0416 N   0  0  0  0  0  0  0  0  0  0  0  0
   10.0791   12.2713   24.8333 C   0  0  0  0  0  0  0  0  0  0  0  0
   10.8740   11.0036   25.0617 C   0  0  0  0  0  0  0  0  0  0  0  0
   12.3399   11.3465   25.4479 C   0  0  0  0  0  0  0  0  0  0  0  0
   12.6552   12.8053   25.2143 C   0  0  0  0  0  0  0  0  0  0  0  0
   11.6948   13.6281   26.0707 C   0  0  0  0  0  0  0  0  0  0  0  0
    6.5934   14.7025   26.4913 C   0  0  0  0  0  0  0  0  0  0  0  0
    6.3439   14.8780   24.9818 C   0  0  0  0  0  0  0  0  0  0  0  0
    9.2178   16.5298   21.1396 C   0  0  0  0  0  0  0  0  0  0  0  0
   10.5509   15.7869   21.4745 C   0  0  1  0  0  0  0  0  0  0  0  0
   11.0161   15.4247   22.8651 C   0  0  0  0  0  0  0  0  0  0  0  0
  1  2  1  0
  3  2  1  6
  3  4  1  0
  4  5  1  1
  5  6  1  0
  6  7  2  0
  6  8  1  0
  8  9  1  0
  9 10  1  0
 10 11  1  0
 11 12  1  0
 12 13  2  0
 12 14  2  0
 12 15  1  0
 15 16  1  0
 16 17  1  0
 17 18  1  0
 18 19  1  0
 19 20  1  0
 11 21  1  0
 21 22  1  0
  4 23  1  0
 23 24  1  0
 24 25  1  1
 24  3  1  0
 22  8  1  0
 20 15  1  0
M  END
>  <energy_score>  (977) 
-16.394648

>  <inchikey>  (977) 
None

>  <smiles>  (977) 
None

>  <ref_pdb>  (977) 
A4706a

>  <alias>  (977) 
None

>  <HIPPO Pose ID>  (977) 
499887

>  <name>  (977) 
P499887

>  <HIPPO Compound ID>  (977) 
314432

>  <ref_mols>  (977) 
A0875a,A4706a

>  <distance_score>  (977) 
1.357911

>  <inspiration_score>  (977) 
None

$$$$
P499899
     RDKit          3D

 25 27  0  0  0  0  0  0  0  0999 V2000
   11.2684   14.7168   18.4906 N   0  0  0  0  0  0  0  0  0  0  0  0
   10.9534   14.6231   19.5991 C   0  0  0  0  0  0  0  0  0  0  0  0
   10.6020   14.4286   20.9954 C   0  0  1  0  0  0  0  0  0  0  0  0
   11.3576   15.3990   21.8784 C   0  0  0  0  0  0  0  0  0  0  0  0
   10.3880   15.8543   22.8186 O   0  0  0  0  0  0  0  0  0  0  0  0
    9.1735   15.9701   22.0512 C   0  0  0  0  0  0  0  0  0  0  0  0
    9.1210   14.6829   21.2604 C   0  0  2  0  0  0  0  0  0  0  0  0
    8.6360   13.6281   22.1277 O   0  0  0  0  0  0  0  0  0  0  0  0
    7.3346   13.7253   22.5394 C   0  0  0  0  0  0  0  0  0  0  0  0
    6.3810   13.8970   21.8067 O   0  0  0  0  0  0  0  0  0  0  0  0
    7.3237   13.5936   24.0338 C   0  0  0  0  0  0  0  0  0  0  0  0
    7.6298   12.1717   24.5134 C   0  0  0  0  0  0  0  0  0  0  0  0
    7.8668   12.1260   26.0166 C   0  0  0  0  0  0  0  0  0  0  0  0
    7.8355   13.4874   26.5426 N   0  0  0  0  0  0  0  0  0  0  0  0
    9.2098   14.3930   26.8342 S   0  0  0  0  0  0  0  0  0  0  0  0
    9.3190   14.4695   28.2666 O   0  0  0  0  0  0  0  0  0  0  0  0
    9.1628   15.6013   26.0506 O   0  0  0  0  0  0  0  0  0  0  0  0
   10.5009   13.4346   26.2724 N   0  0  0  0  0  0  0  0  0  0  0  0
   11.7463   13.6565   27.0485 C   0  0  0  0  0  0  0  0  0  0  0  0
   12.8456   12.6751   26.6238 C   0  0  0  0  0  0  0  0  0  0  0  0
   12.5530   11.8401   25.3887 C   0  0  0  0  0  0  0  0  0  0  0  0
   11.6271   12.4824   24.3651 C   0  0  0  0  0  0  0  0  0  0  0  0
   10.8484   13.6634   24.8593 C   0  0  0  0  0  0  0  0  0  0  0  0
    6.5505   14.2060   26.3221 C   0  0  0  0  0  0  0  0  0  0  0  0
    6.1644   14.1704   24.8293 C   0  0  0  0  0  0  0  0  0  0  0  0
  1  2  3  0
  3  2  1  6
  3  4  1  0
  4  5  1  0
  5  6  1  0
  6  7  1  0
  7  8  1  1
  8  9  1  0
  9 10  2  0
  9 11  1  0
 11 12  1  0
 12 13  1  0
 13 14  1  0
 14 15  1  0
 15 16  2  0
 15 17  2  0
 15 18  1  0
 18 19  1  0
 19 20  1  0
 20 21  1  0
 21 22  1  0
 22 23  1  0
 14 24  1  0
 24 25  1  0
  7  3  1  0
 25 11  1  0
 23 18  1  0
M  END
>  <energy_score>  (978) 
-22.856727

>  <inchikey>  (978) 
None

>  <smiles>  (978) 
None

>  <ref_pdb>  (978) 
A4706a

>  <alias>  (978) 
None

>  <HIPPO Pose ID>  (978) 
499899

>  <name>  (978) 
P499899

>  <HIPPO Compound ID>  (978) 
314436

>  <ref_mols>  (978) 
A4706a,A0875a

>  <distance_score>  (978) 
1.422854

>  <inspiration_score>  (978) 
None

$$$$
P499907
     RDKit          3D

 25 27  0  0  0  0  0  0  0  0999 V2000
   10.2066   15.3656   18.6972 C   0  0  0  0  0  0  0  0  0  0  0  0
    9.8429   16.3026   19.7033 O   0  0  0  0  0  0  0  0  0  0  0  0
    9.7285   15.8884   21.0919 C   0  0  2  0  0  0  0  0  0  0  0  0
   10.7464   14.8161   21.5300 C   0  0  1  0  0  0  0  0  0  0  0  0
   11.7443   15.0272   22.9684 Cl  0  0  0  0  0  0  0  0  0  0  0  0
    9.6002   13.8150   21.5268 C   0  0  0  0  0  0  0  0  0  0  0  0
    8.5561   14.9280   21.4554 C   0  0  1  0  0  0  0  0  0  0  0  0
    7.7523   15.0986   22.6565 O   0  0  0  0  0  0  0  0  0  0  0  0
    6.9192   14.0446   22.8927 C   0  0  0  0  0  0  0  0  0  0  0  0
    6.5693   13.2443   22.0222 O   0  0  0  0  0  0  0  0  0  0  0  0
    6.5028   13.8086   24.3464 C   0  0  0  0  0  0  0  0  0  0  0  0
    7.1166   12.4282   24.7250 C   0  0  0  0  0  0  0  0  0  0  0  0
    7.7056   12.2711   26.1115 C   0  0  0  0  0  0  0  0  0  0  0  0
    8.3304   13.5147   26.5802 N   0  0  0  0  0  0  0  0  0  0  0  0
    9.7342   14.0980   25.8305 S   0  0  0  0  0  0  0  0  0  0  0  0
    9.4471   14.1842   24.4288 O   0  0  0  0  0  0  0  0  0  0  0  0
   10.1191   15.2647   26.5831 O   0  0  0  0  0  0  0  0  0  0  0  0
   10.8856   12.8906   26.0426 N   0  0  0  0  0  0  0  0  0  0  0  0
   11.0293   11.8978   24.9481 C   0  0  0  0  0  0  0  0  0  0  0  0
   12.1568   10.9596   25.3569 C   0  0  0  0  0  0  0  0  0  0  0  0
   13.5352   11.5434   25.3522 C   0  0  0  0  0  0  0  0  0  0  0  0
   13.4065   12.9959   25.7546 C   0  0  0  0  0  0  0  0  0  0  0  0
   12.1879   13.3008   26.6550 C   0  0  0  0  0  0  0  0  0  0  0  0
    7.2603   14.5520   26.6962 C   0  0  0  0  0  0  0  0  0  0  0  0
    6.7596   14.9724   25.3171 C   0  0  0  0  0  0  0  0  0  0  0  0
  1  2  1  0
  3  2  1  6
  3  4  1  0
  4  5  1  1
  4  6  1  0
  6  7  1  0
  7  8  1  1
  8  9  1  0
  9 10  2  0
  9 11  1  0
 11 12  1  0
 12 13  1  0
 13 14  1  0
 14 15  1  0
 15 16  2  0
 15 17  2  0
 15 18  1  0
 18 19  1  0
 19 20  1  0
 20 21  1  0
 21 22  1  0
 22 23  1  0
 14 24  1  0
 24 25  1  0
  7  3  1  0
 25 11  1  0
 23 18  1  0
M  END
>  <energy_score>  (979) 
-24.897343

>  <inchikey>  (979) 
None

>  <smiles>  (979) 
None

>  <ref_pdb>  (979) 
A4706a

>  <alias>  (979) 
None

>  <HIPPO Pose ID>  (979) 
499907

>  <name>  (979) 
P499907

>  <HIPPO Compound ID>  (979) 
314437

>  <ref_mols>  (979) 
A4706a,A0875a

>  <distance_score>  (979) 
1.315048

>  <inspiration_score>  (979) 
None

$$$$
P499910
     RDKit          3D

 25 27  0  0  0  0  0  0  0  0999 V2000
    9.4148   17.3807   20.6867 C   0  0  0  0  0  0  0  0  0  0  0  0
   10.1005   16.0299   20.6466 C   0  0  2  0  0  0  0  0  0  0  0  0
    9.2391   15.0761   20.0423 O   0  0  0  0  0  0  0  0  0  0  0  0
    8.1628   14.7900   20.9037 C   0  0  0  0  0  0  0  0  0  0  0  0
    8.6445   14.1727   22.1798 C   0  0  2  0  0  0  0  0  0  0  0  0
    7.8185   14.6956   23.2563 O   0  0  0  0  0  0  0  0  0  0  0  0
    6.6350   14.0254   23.4230 C   0  0  0  0  0  0  0  0  0  0  0  0
    6.1564   13.2776   22.5705 O   0  0  0  0  0  0  0  0  0  0  0  0
    5.9974   14.1928   24.8172 C   0  0  0  0  0  0  0  0  0  0  0  0
    5.7979   12.8128   25.4973 C   0  0  0  0  0  0  0  0  0  0  0  0
    6.8896   12.3051   26.4577 C   0  0  0  0  0  0  0  0  0  0  0  0
    7.9788   13.2961   26.6451 N   0  0  0  0  0  0  0  0  0  0  0  0
    9.1390   13.2970   25.4373 S   0  0  0  0  0  0  0  0  0  0  0  0
    8.5327   12.5458   24.3644 O   0  0  0  0  0  0  0  0  0  0  0  0
    9.6444   14.6393   25.2980 O   0  0  0  0  0  0  0  0  0  0  0  0
   10.3839   12.2989   25.9629 N   0  0  0  0  0  0  0  0  0  0  0  0
   10.5241   11.1367   25.0145 C   0  0  0  0  0  0  0  0  0  0  0  0
   11.7529   10.3089   25.2922 C   0  0  0  0  0  0  0  0  0  0  0  0
   13.0370   11.1654   25.4325 C   0  0  0  0  0  0  0  0  0  0  0  0
   12.7507   12.6530   25.3247 C   0  0  0  0  0  0  0  0  0  0  0  0
   11.6514   13.0039   26.3079 C   0  0  0  0  0  0  0  0  0  0  0  0
    7.3895   14.6232   26.9544 C   0  0  0  0  0  0  0  0  0  0  0  0
    6.6430   15.2192   25.7578 C   0  0  0  0  0  0  0  0  0  0  0  0
   10.1633   14.3845   22.3046 C   0  0  0  0  0  0  0  0  0  0  0  0
   10.5251   15.7070   21.9662 O   0  0  0  0  0  0  0  0  0  0  0  0
  2  1  1  1
  2  3  1  0
  3  4  1  0
  4  5  1  0
  5  6  1  1
  6  7  1  0
  7  8  2  0
  7  9  1  0
  9 10  1  0
 10 11  1  0
 11 12  1  0
 12 13  1  0
 13 14  2  0
 13 15  2  0
 13 16  1  0
 16 17  1  0
 17 18  1  0
 18 19  1  0
 19 20  1  0
 20 21  1  0
 12 22  1  0
 22 23  1  0
  5 24  1  0
 24 25  1  0
 25  2  1  0
 23  9  1  0
 21 16  1  0
M  END
>  <energy_score>  (980) 
-24.93249

>  <inchikey>  (980) 
None

>  <smiles>  (980) 
None

>  <ref_pdb>  (980) 
A4706a

>  <alias>  (980) 
None

>  <HIPPO Pose ID>  (980) 
499910

>  <name>  (980) 
P499910

>  <HIPPO Compound ID>  (980) 
314438

>  <ref_mols>  (980) 
A0875a,A4706a

>  <distance_score>  (980) 
1.635168

>  <inspiration_score>  (980) 
None

$$$$
P499911
     RDKit          3D

 25 27  0  0  0  0  0  0  0  0999 V2000
    6.1137   15.3222   22.2553 O   0  0  0  0  0  0  0  0  0  0  0  0
    6.7710   14.7150   23.0931 C   0  0  0  0  0  0  0  0  0  0  0  0
    8.1286   14.5828   23.0671 O   0  0  0  0  0  0  0  0  0  0  0  0
    8.8380   15.4364   22.1252 C   0  0  2  0  0  0  0  0  0  0  0  0
    8.7680   14.7929   20.7520 C   0  0  0  0  0  0  0  0  0  0  0  0
    9.8073   15.3306   19.7734 C   0  0  0  0  0  0  0  0  0  0  0  0
   11.1926   14.7577   20.0424 C   0  0  0  0  0  0  0  0  0  0  0  0
   11.3143   14.0049   21.3597 C   0  0  0  0  0  0  0  0  0  0  0  0
   11.3195   14.8163   22.5059 O   0  0  0  0  0  0  0  0  0  0  0  0
   10.2833   15.7794   22.5792 C   0  0  0  0  0  0  0  0  0  0  0  0
    6.0997   14.0427   24.2916 C   0  0  0  0  0  0  0  0  0  0  0  0
    6.6522   12.6446   24.6017 C   0  0  0  0  0  0  0  0  0  0  0  0
    7.2446   12.3932   25.9776 C   0  0  0  0  0  0  0  0  0  0  0  0
    7.5781   13.6219   26.6822 N   0  0  0  0  0  0  0  0  0  0  0  0
    9.0241   14.4514   26.5275 S   0  0  0  0  0  0  0  0  0  0  0  0
    9.2923   14.9977   27.8328 O   0  0  0  0  0  0  0  0  0  0  0  0
    8.9647   15.3174   25.3826 O   0  0  0  0  0  0  0  0  0  0  0  0
   10.1839   13.2904   26.2227 N   0  0  0  0  0  0  0  0  0  0  0  0
   10.2262   12.8286   24.8371 C   0  0  0  0  0  0  0  0  0  0  0  0
   10.9063   11.5015   24.9075 C   0  0  0  0  0  0  0  0  0  0  0  0
   12.3830   11.7301   25.2531 C   0  0  0  0  0  0  0  0  0  0  0  0
   12.6711   13.0614   25.9114 C   0  0  0  0  0  0  0  0  0  0  0  0
   11.5340   13.6851   26.7087 C   0  0  0  0  0  0  0  0  0  0  0  0
    6.3898   14.4865   26.8164 C   0  0  0  0  0  0  0  0  0  0  0  0
    5.9865   15.0361   25.4564 C   0  0  0  0  0  0  0  0  0  0  0  0
  1  2  2  0
  2  3  1  0
  4  3  1  1
  4  5  1  0
  5  6  1  0
  6  7  1  0
  7  8  1  0
  8  9  1  0
  9 10  1  0
  2 11  1  0
 11 12  1  0
 12 13  1  0
 13 14  1  0
 14 15  1  0
 15 16  2  0
 15 17  2  0
 15 18  1  0
 18 19  1  0
 19 20  1  0
 20 21  1  0
 21 22  1  0
 22 23  1  0
 14 24  1  0
 24 25  1  0
 10  4  1  0
 25 11  1  0
 23 18  1  0
M  END
>  <energy_score>  (981) 
-32.967841

>  <inchikey>  (981) 
None

>  <smiles>  (981) 
None

>  <ref_pdb>  (981) 
A4706a

>  <alias>  (981) 
None

>  <HIPPO Pose ID>  (981) 
499911

>  <name>  (981) 
P499911

>  <HIPPO Compound ID>  (981) 
314439

>  <ref_mols>  (981) 
A4706a,A0875a

>  <distance_score>  (981) 
1.650167

>  <inspiration_score>  (981) 
None

$$$$
P499916
     RDKit          3D

 25 28  0  0  0  0  0  0  0  0999 V2000
    6.5316   13.2323   22.4416 O   0  0  0  0  0  0  0  0  0  0  0  0
    6.8400   14.1447   23.2073 C   0  0  0  0  0  0  0  0  0  0  0  0
    7.8969   14.9907   23.0028 O   0  0  0  0  0  0  0  0  0  0  0  0
    9.0531   14.4674   22.2828 C   0  0  1  0  0  0  0  0  0  0  0  0
    8.8603   14.1697   20.8224 C   0  0  0  0  0  0  0  0  0  0  0  0
    8.9077   15.2173   19.9061 O   0  0  0  0  0  0  0  0  0  0  0  0
    9.9169   16.1666   20.1224 C   0  0  1  0  0  0  0  0  0  0  0  0
    9.4272   17.2418   21.0432 C   0  0  0  0  0  0  0  0  0  0  0  0
   10.5313   16.3130   21.4736 C   0  0  1  0  0  0  0  0  0  0  0  0
   10.3074   15.2991   22.5174 C   0  0  0  0  0  0  0  0  0  0  0  0
    6.0954   14.3695   24.5557 C   0  0  0  0  0  0  0  0  0  0  0  0
    5.7357   13.0205   25.2461 C   0  0  0  0  0  0  0  0  0  0  0  0
    6.6975   12.4521   26.3150 C   0  0  0  0  0  0  0  0  0  0  0  0
    7.8737   13.3375   26.5457 N   0  0  0  0  0  0  0  0  0  0  0  0
    9.0529   13.2159   25.3636 S   0  0  0  0  0  0  0  0  0  0  0  0
    9.6208   14.5225   25.1600 O   0  0  0  0  0  0  0  0  0  0  0  0
    8.4282   12.4421   24.3196 O   0  0  0  0  0  0  0  0  0  0  0  0
   10.2769   12.2275   25.9460 N   0  0  0  0  0  0  0  0  0  0  0  0
   10.4561   11.0655   25.0015 C   0  0  0  0  0  0  0  0  0  0  0  0
   11.7129   10.2804   25.2799 C   0  0  0  0  0  0  0  0  0  0  0  0
   12.9729   11.1782   25.4105 C   0  0  0  0  0  0  0  0  0  0  0  0
   12.6368   12.6562   25.3124 C   0  0  0  0  0  0  0  0  0  0  0  0
   11.5339   12.9508   26.3107 C   0  0  0  0  0  0  0  0  0  0  0  0
    7.3784   14.7171   26.7969 C   0  0  0  0  0  0  0  0  0  0  0  0
    6.7307   15.3484   25.5564 C   0  0  0  0  0  0  0  0  0  0  0  0
  1  2  2  0
  2  3  1  0
  4  3  1  6
  4  5  1  0
  5  6  1  0
  6  7  1  0
  7  8  1  1
  9  8  1  1
  9 10  1  0
  2 11  1  0
 11 12  1  0
 12 13  1  0
 13 14  1  0
 14 15  1  0
 15 16  2  0
 15 17  2  0
 15 18  1  0
 18 19  1  0
 19 20  1  0
 20 21  1  0
 21 22  1  0
 22 23  1  0
 14 24  1  0
 24 25  1  0
 10  4  1  0
 25 11  1  0
  9  7  1  0
 23 18  1  0
M  END
>  <energy_score>  (982) 
-4.189487

>  <inchikey>  (982) 
None

>  <smiles>  (982) 
None

>  <ref_pdb>  (982) 
A4706a

>  <alias>  (982) 
None

>  <HIPPO Pose ID>  (982) 
499916

>  <name>  (982) 
P499916

>  <HIPPO Compound ID>  (982) 
314440

>  <ref_mols>  (982) 
A0875a,A4706a

>  <distance_score>  (982) 
1.509785

>  <inspiration_score>  (982) 
None

$$$$
P499917
     RDKit          3D

 25 27  0  0  0  0  0  0  0  0999 V2000
   11.2977   14.5555   18.6494 N   0  0  0  0  0  0  0  0  0  0  0  0
   10.1653   15.1608   19.3480 C   0  0  0  0  0  0  0  0  0  0  0  0
    9.8955   14.4542   20.6887 C   0  0  1  0  0  0  0  0  0  0  0  0
   10.9110   14.8192   21.6362 O   0  0  0  0  0  0  0  0  0  0  0  0
   10.4272   15.9986   22.2621 C   0  0  0  0  0  0  0  0  0  0  0  0
    8.9187   16.0802   22.0209 C   0  0  0  0  0  0  0  0  0  0  0  0
    8.5621   14.8144   21.3100 C   0  0  2  0  0  0  0  0  0  0  0  0
    8.1580   13.8209   22.2911 O   0  0  0  0  0  0  0  0  0  0  0  0
    6.8778   13.8899   22.7420 C   0  0  0  0  0  0  0  0  0  0  0  0
    5.9759   14.4869   22.1675 O   0  0  0  0  0  0  0  0  0  0  0  0
    6.6737   13.1948   24.0932 C   0  0  0  0  0  0  0  0  0  0  0  0
    7.6765   12.0494   24.3651 C   0  0  0  0  0  0  0  0  0  0  0  0
    8.0791   11.8377   25.8033 C   0  0  0  0  0  0  0  0  0  0  0  0
    8.3271   13.1193   26.4474 N   0  0  0  0  0  0  0  0  0  0  0  0
    9.6469   14.0522   25.9769 S   0  0  0  0  0  0  0  0  0  0  0  0
    9.7103   15.1299   26.9341 O   0  0  0  0  0  0  0  0  0  0  0  0
    9.5590   14.3397   24.5733 O   0  0  0  0  0  0  0  0  0  0  0  0
   10.9754   13.0152   26.2273 N   0  0  0  0  0  0  0  0  0  0  0  0
   12.0557   13.7091   26.9767 C   0  0  0  0  0  0  0  0  0  0  0  0
   13.4526   13.1402   26.6982 C   0  0  0  0  0  0  0  0  0  0  0  0
   13.4097   11.6709   26.6028 C   0  0  0  0  0  0  0  0  0  0  0  0
   12.5799   11.3305   25.3855 C   0  0  0  0  0  0  0  0  0  0  0  0
   11.4830   12.3433   25.0083 C   0  0  0  0  0  0  0  0  0  0  0  0
    7.0520   13.8786   26.5458 C   0  0  0  0  0  0  0  0  0  0  0  0
    6.5878   14.3027   25.1625 C   0  0  0  0  0  0  0  0  0  0  0  0
  1  2  1  0
  3  2  1  6
  3  4  1  0
  4  5  1  0
  5  6  1  0
  6  7  1  0
  7  8  1  1
  8  9  1  0
  9 10  2  0
  9 11  1  0
 11 12  1  0
 12 13  1  0
 13 14  1  0
 14 15  1  0
 15 16  2  0
 15 17  2  0
 15 18  1  0
 18 19  1  0
 19 20  1  0
 20 21  1  0
 21 22  1  0
 22 23  1  0
 14 24  1  0
 24 25  1  0
  7  3  1  0
 25 11  1  0
 23 18  1  0
M  END
>  <energy_score>  (983) 
-45.441537

>  <inchikey>  (983) 
None

>  <smiles>  (983) 
None

>  <ref_pdb>  (983) 
A4706a

>  <alias>  (983) 
None

>  <HIPPO Pose ID>  (983) 
499917

>  <name>  (983) 
P499917

>  <HIPPO Compound ID>  (983) 
314441

>  <ref_mols>  (983) 
A4706a,A0875a

>  <distance_score>  (983) 
1.502252

>  <inspiration_score>  (983) 
None

$$$$
P499921
     RDKit          3D

 25 27  0  0  0  0  0  0  0  0999 V2000
    7.0380   12.6565   22.9124 O   0  0  0  0  0  0  0  0  0  0  0  0
    6.7901   13.8091   23.2594 C   0  0  0  0  0  0  0  0  0  0  0  0
    7.2665   14.8887   22.5983 O   0  0  0  0  0  0  0  0  0  0  0  0
    8.1940   14.5517   21.5347 C   0  0  0  0  0  0  0  0  0  0  0  0
    9.2918   15.6011   21.3444 C   0  0  2  0  0  0  0  0  0  0  0  0
    9.8178   15.5963   19.8927 C   0  0  0  0  0  0  0  0  0  0  0  0
   10.7881   14.5992   19.6288 O   0  0  0  0  0  0  0  0  0  0  0  0
   11.8308   14.5801   20.5967 C   0  0  0  0  0  0  0  0  0  0  0  0
   11.6271   15.4903   21.7976 C   0  0  0  0  0  0  0  0  0  0  0  0
   10.3236   15.3107   22.3125 O   0  0  0  0  0  0  0  0  0  0  0  0
    5.8280   14.0830   24.4073 C   0  0  0  0  0  0  0  0  0  0  0  0
    5.8224   12.8575   25.3442 C   0  0  0  0  0  0  0  0  0  0  0  0
    7.1156   12.7085   26.1466 C   0  0  0  0  0  0  0  0  0  0  0  0
    7.6748   14.0087   26.5537 N   0  0  0  0  0  0  0  0  0  0  0  0
    9.1474   14.6186   26.0145 S   0  0  0  0  0  0  0  0  0  0  0  0
    8.9914   15.0961   24.6709 O   0  0  0  0  0  0  0  0  0  0  0  0
    9.5903   15.5076   27.0594 O   0  0  0  0  0  0  0  0  0  0  0  0
   10.2140   13.3262   25.9605 N   0  0  0  0  0  0  0  0  0  0  0  0
   10.1808   12.6023   24.6624 C   0  0  0  0  0  0  0  0  0  0  0  0
   10.8447   11.2882   24.9594 C   0  0  0  0  0  0  0  0  0  0  0  0
   12.3351   11.5831   25.2331 C   0  0  0  0  0  0  0  0  0  0  0  0
   12.5497   12.5767   26.3568 C   0  0  0  0  0  0  0  0  0  0  0  0
   11.6138   13.7700   26.2334 C   0  0  0  0  0  0  0  0  0  0  0  0
    6.6340   15.0679   26.6264 C   0  0  0  0  0  0  0  0  0  0  0  0
    6.0663   15.3541   25.2304 C   0  0  0  0  0  0  0  0  0  0  0  0
  1  2  2  0
  2  3  1  0
  3  4  1  0
  5  4  1  6
  5  6  1  0
  6  7  1  0
  7  8  1  0
  8  9  1  0
  9 10  1  0
  2 11  1  0
 11 12  1  0
 12 13  1  0
 13 14  1  0
 14 15  1  0
 15 16  2  0
 15 17  2  0
 15 18  1  0
 18 19  1  0
 19 20  1  0
 20 21  1  0
 21 22  1  0
 22 23  1  0
 14 24  1  0
 24 25  1  0
 10  5  1  0
 25 11  1  0
 23 18  1  0
M  END
>  <energy_score>  (984) 
-63.325372

>  <inchikey>  (984) 
None

>  <smiles>  (984) 
None

>  <ref_pdb>  (984) 
A4706a

>  <alias>  (984) 
None

>  <HIPPO Pose ID>  (984) 
499921

>  <name>  (984) 
P499921

>  <HIPPO Compound ID>  (984) 
314443

>  <ref_mols>  (984) 
A4706a,A0875a

>  <distance_score>  (984) 
1.47289

>  <inspiration_score>  (984) 
None

$$$$
P499925
     RDKit          3D

 25 27  0  0  0  0  0  0  0  0999 V2000
    9.6695   15.5666   19.2278 N   0  0  0  0  0  0  0  0  0  0  0  0
    9.5960   14.9390   20.5763 C   0  0  1  0  0  0  0  0  0  0  0  0
   11.0024   14.5095   20.9266 C   0  0  0  0  0  0  0  0  0  0  0  0
   11.7916   14.0234   20.1387 O   0  0  0  0  0  0  0  0  0  0  0  0
   11.3350   14.8590   22.1858 O   0  0  0  0  0  0  0  0  0  0  0  0
   10.5939   16.0393   22.4035 C   0  0  0  0  0  0  0  0  0  0  0  0
    9.2357   15.8897   21.7190 C   0  0  2  0  0  0  0  0  0  0  0  0
    8.2706   15.5042   22.7641 O   0  0  0  0  0  0  0  0  0  0  0  0
    7.1991   14.6904   22.6403 C   0  0  0  0  0  0  0  0  0  0  0  0
    6.9028   14.0616   21.6312 O   0  0  0  0  0  0  0  0  0  0  0  0
    6.3361   14.6159   23.9333 C   0  0  0  0  0  0  0  0  0  0  0  0
    5.9473   13.1697   24.2959 C   0  0  0  0  0  0  0  0  0  0  0  0
    7.0144   12.3380   25.0252 C   0  0  0  0  0  0  0  0  0  0  0  0
    7.9845   13.2018   25.7418 N   0  0  0  0  0  0  0  0  0  0  0  0
    9.4158   13.5512   24.9134 S   0  0  0  0  0  0  0  0  0  0  0  0
    9.8257   14.8842   25.2793 O   0  0  0  0  0  0  0  0  0  0  0  0
    9.2276   13.1500   23.5421 O   0  0  0  0  0  0  0  0  0  0  0  0
   10.5356   12.4650   25.6056 N   0  0  0  0  0  0  0  0  0  0  0  0
   11.8774   13.1176   25.6507 C   0  0  0  0  0  0  0  0  0  0  0  0
   12.9293   12.2065   26.2423 C   0  0  0  0  0  0  0  0  0  0  0  0
   13.0360   10.9725   25.3811 C   0  0  0  0  0  0  0  0  0  0  0  0
   11.6713   10.2419   25.2374 C   0  0  0  0  0  0  0  0  0  0  0  0
   10.4937   11.1490   24.9060 C   0  0  0  0  0  0  0  0  0  0  0  0
    7.3023   14.3904   26.3162 C   0  0  0  0  0  0  0  0  0  0  0  0
    6.8253   15.3347   25.2039 C   0  0  0  0  0  0  0  0  0  0  0  0
  2  1  1  6
  2  3  1  0
  3  4  2  0
  3  5  1  0
  5  6  1  0
  6  7  1  0
  7  8  1  1
  8  9  1  0
  9 10  2  0
  9 11  1  0
 11 12  1  0
 12 13  1  0
 13 14  1  0
 14 15  1  0
 15 16  2  0
 15 17  2  0
 15 18  1  0
 18 19  1  0
 19 20  1  0
 20 21  1  0
 21 22  1  0
 22 23  1  0
 14 24  1  0
 24 25  1  0
  7  2  1  0
 25 11  1  0
 23 18  1  0
M  END
>  <energy_score>  (985) 
-32.766003

>  <inchikey>  (985) 
None

>  <smiles>  (985) 
None

>  <ref_pdb>  (985) 
A4706a

>  <alias>  (985) 
None

>  <HIPPO Pose ID>  (985) 
499925

>  <name>  (985) 
P499925

>  <HIPPO Compound ID>  (985) 
314445

>  <ref_mols>  (985) 
A0875a,A4706a

>  <distance_score>  (985) 
1.61936

>  <inspiration_score>  (985) 
None

$$$$
P499928
     RDKit          3D

 25 27  0  0  0  0  0  0  0  0999 V2000
    7.0719   12.9765   21.9048 O   0  0  0  0  0  0  0  0  0  0  0  0
    7.3803   13.6363   22.8907 C   0  0  0  0  0  0  0  0  0  0  0  0
    8.5373   14.3417   22.9823 O   0  0  0  0  0  0  0  0  0  0  0  0
    9.5603   14.0110   22.0062 C   0  0  1  0  0  0  0  0  0  0  0  0
    9.2763   14.5064   20.5777 C   0  0  0  0  0  0  0  0  0  0  0  0
    9.5632   15.8658   20.2649 O   0  0  0  0  0  0  0  0  0  0  0  0
    9.9175   16.6035   21.4100 C   0  0  0  0  0  0  0  0  0  0  0  0
   11.1721   16.0117   22.0120 C   0  0  0  0  0  0  0  0  0  0  0  0
   10.9383   14.5698   22.3224 C   0  0  0  0  0  0  0  0  0  0  0  0
   11.8495   13.8732   22.7749 O   0  0  0  0  0  0  0  0  0  0  0  0
    6.4667   13.5646   24.1076 C   0  0  0  0  0  0  0  0  0  0  0  0
    6.8294   12.3406   24.9915 C   0  0  0  0  0  0  0  0  0  0  0  0
    7.7630   12.6975   26.1523 C   0  0  0  0  0  0  0  0  0  0  0  0
    8.4786   13.8855   25.7035 N   0  0  0  0  0  0  0  0  0  0  0  0
   10.0137   14.2794   26.1582 S   0  0  0  0  0  0  0  0  0  0  0  0
   10.5296   15.1733   25.1483 O   0  0  0  0  0  0  0  0  0  0  0  0
    9.9070   14.7175   27.5284 O   0  0  0  0  0  0  0  0  0  0  0  0
   10.9543   12.9044   26.1853 N   0  0  0  0  0  0  0  0  0  0  0  0
   12.3205   13.1835   26.7584 C   0  0  0  0  0  0  0  0  0  0  0  0
   13.4429   12.9495   25.7404 C   0  0  0  0  0  0  0  0  0  0  0  0
   13.4981   11.5088   25.2898 C   0  0  0  0  0  0  0  0  0  0  0  0
   12.0965   10.9628   25.3294 C   0  0  0  0  0  0  0  0  0  0  0  0
   10.9621   11.9454   25.0618 C   0  0  0  0  0  0  0  0  0  0  0  0
    7.5733   15.0734   25.7829 C   0  0  0  0  0  0  0  0  0  0  0  0
    6.3682   14.8588   24.8911 C   0  0  0  0  0  0  0  0  0  0  0  0
  1  2  2  0
  2  3  1  0
  4  3  1  1
  4  5  1  0
  5  6  1  0
  6  7  1  0
  7  8  1  0
  8  9  1  0
  9 10  2  0
  2 11  1  0
 11 12  1  0
 12 13  1  0
 13 14  1  0
 14 15  1  0
 15 16  2  0
 15 17  2  0
 15 18  1  0
 18 19  1  0
 19 20  1  0
 20 21  1  0
 21 22  1  0
 22 23  1  0
 14 24  1  0
 24 25  1  0
  9  4  1  0
 25 11  1  0
 23 18  1  0
M  END
>  <energy_score>  (986) 
-38.533767

>  <inchikey>  (986) 
None

>  <smiles>  (986) 
None

>  <ref_pdb>  (986) 
A4706a

>  <alias>  (986) 
None

>  <HIPPO Pose ID>  (986) 
499928

>  <name>  (986) 
P499928

>  <HIPPO Compound ID>  (986) 
314446

>  <ref_mols>  (986) 
A4706a,A0875a

>  <distance_score>  (986) 
1.426216

>  <inspiration_score>  (986) 
None

$$$$
P499934
     RDKit          3D

 25 27  0  0  0  0  0  0  0  0999 V2000
    6.4983   13.1580   21.9471 O   0  0  0  0  0  0  0  0  0  0  0  0
    7.0156   13.9287   22.7372 C   0  0  0  0  0  0  0  0  0  0  0  0
    7.8034   14.9940   22.4134 O   0  0  0  0  0  0  0  0  0  0  0  0
    9.0849   14.6537   21.8164 C   0  0  0  0  0  0  0  0  0  0  0  0
    9.0623   15.0997   20.3771 C   0  0  0  0  0  0  0  0  0  0  0  0
   10.0229   14.4138   19.5896 O   0  0  0  0  0  0  0  0  0  0  0  0
   11.2920   15.0201   19.5640 C   0  0  0  0  0  0  0  0  0  0  0  0
   11.9173   15.0374   20.9466 C   0  0  0  0  0  0  0  0  0  0  0  0
   11.2440   15.9375   21.8131 O   0  0  0  0  0  0  0  0  0  0  0  0
   10.2250   15.3267   22.5874 C   0  0  0  0  0  0  0  0  0  0  0  0
    6.9669   13.7836   24.2228 C   0  0  0  0  0  0  0  0  0  0  0  0
    6.5686   12.4589   24.8621 C   0  0  0  0  0  0  0  0  0  0  0  0
    7.1674   12.3793   26.2815 C   0  0  0  0  0  0  0  0  0  0  0  0
    7.6833   13.6962   26.7189 N   0  0  0  0  0  0  0  0  0  0  0  0
    9.2508   14.2830   26.4920 S   0  0  0  0  0  0  0  0  0  0  0  0
    9.2647   15.2038   25.3796 O   0  0  0  0  0  0  0  0  0  0  0  0
    9.6893   14.7437   27.7839 O   0  0  0  0  0  0  0  0  0  0  0  0
   10.2956   13.0471   26.0539 N   0  0  0  0  0  0  0  0  0  0  0  0
   10.0620   12.2205   24.8624 C   0  0  0  0  0  0  0  0  0  0  0  0
   10.8687   10.9579   25.0743 C   0  0  0  0  0  0  0  0  0  0  0  0
   12.3342   11.3092   25.4562 C   0  0  0  0  0  0  0  0  0  0  0  0
   12.6487   12.7629   25.1852 C   0  0  0  0  0  0  0  0  0  0  0  0
   11.7053   13.5997   26.0451 C   0  0  0  0  0  0  0  0  0  0  0  0
    6.6363   14.7502   26.5237 C   0  0  0  0  0  0  0  0  0  0  0  0
    6.3784   14.9461   25.0179 C   0  0  0  0  0  0  0  0  0  0  0  0
  1  2  2  0
  2  3  1  0
  3  4  1  0
  4  5  1  0
  5  6  1  0
  6  7  1  0
  7  8  1  0
  8  9  1  0
  9 10  1  0
  2 11  1  0
 11 12  1  0
 12 13  1  0
 13 14  1  0
 14 15  1  0
 15 16  2  0
 15 17  2  0
 15 18  1  0
 18 19  1  0
 19 20  1  0
 20 21  1  0
 21 22  1  0
 22 23  1  0
 14 24  1  0
 24 25  1  0
 10  4  1  0
 25 11  1  0
 23 18  1  0
M  END
>  <energy_score>  (987) 
-30.611539

>  <inchikey>  (987) 
None

>  <smiles>  (987) 
None

>  <ref_pdb>  (987) 
A4706a

>  <alias>  (987) 
None

>  <HIPPO Pose ID>  (987) 
499934

>  <name>  (987) 
P499934

>  <HIPPO Compound ID>  (987) 
314450

>  <ref_mols>  (987) 
A4706a,A0875a

>  <distance_score>  (987) 
1.570254

>  <inspiration_score>  (987) 
None

$$$$
P499937
     RDKit          3D

 26 28  0  0  0  0  0  0  0  0999 V2000
   11.1690   14.9018   18.6366 C   0  0  0  0  0  0  0  0  0  0  0  0
   10.3653   15.3769   19.7012 O   0  0  0  0  0  0  0  0  0  0  0  0
    9.9942   14.3403   20.6116 C   0  0  1  0  0  0  0  0  0  0  0  0
   11.1429   13.8903   21.5022 C   0  0  0  0  0  0  0  0  0  0  0  0
   11.7377   15.0233   22.2672 C   0  0  0  0  0  0  0  0  0  0  0  0
   10.7560   16.1265   22.5420 C   0  0  0  0  0  0  0  0  0  0  0  0
    9.2497   15.9741   22.2597 C   0  0  0  0  0  0  0  0  0  0  0  0
    8.8082   14.7938   21.4364 C   0  0  2  0  0  0  0  0  0  0  0  0
    8.3364   13.7476   22.3239 O   0  0  0  0  0  0  0  0  0  0  0  0
    7.0430   13.8283   22.7350 C   0  0  0  0  0  0  0  0  0  0  0  0
    6.1596   14.4223   22.1334 O   0  0  0  0  0  0  0  0  0  0  0  0
    6.7911   13.1396   24.0801 C   0  0  0  0  0  0  0  0  0  0  0  0
    7.7773   11.9895   24.3817 C   0  0  0  0  0  0  0  0  0  0  0  0
    8.1052   11.7716   25.8376 C   0  0  0  0  0  0  0  0  0  0  0  0
    8.3647   13.0501   26.4880 N   0  0  0  0  0  0  0  0  0  0  0  0
    9.7112   13.9614   26.0542 S   0  0  0  0  0  0  0  0  0  0  0  0
    9.6825   14.2545   24.6491 O   0  0  0  0  0  0  0  0  0  0  0  0
    9.7708   15.0341   27.0169 O   0  0  0  0  0  0  0  0  0  0  0  0
   11.0345   12.9094   26.3191 N   0  0  0  0  0  0  0  0  0  0  0  0
   11.4980   12.1955   25.1053 C   0  0  0  0  0  0  0  0  0  0  0  0
   12.6706   11.2546   25.4123 C   0  0  0  0  0  0  0  0  0  0  0  0
   13.5236   11.6281   26.6014 C   0  0  0  0  0  0  0  0  0  0  0  0
   13.5330   13.1017   26.6690 C   0  0  0  0  0  0  0  0  0  0  0  0
   12.1374   13.6388   27.0015 C   0  0  0  0  0  0  0  0  0  0  0  0
    7.0991   13.8332   26.5438 C   0  0  0  0  0  0  0  0  0  0  0  0
    6.6807   14.2520   25.1440 C   0  0  0  0  0  0  0  0  0  0  0  0
  1  2  1  0
  3  2  1  1
  3  4  1  0
  4  5  1  0
  5  6  1  0
  6  7  1  0
  7  8  1  0
  8  9  1  1
  9 10  1  0
 10 11  2  0
 10 12  1  0
 12 13  1  0
 13 14  1  0
 14 15  1  0
 15 16  1  0
 16 17  2  0
 16 18  2  0
 16 19  1  0
 19 20  1  0
 20 21  1  0
 21 22  1  0
 22 23  1  0
 23 24  1  0
 15 25  1  0
 25 26  1  0
  8  3  1  0
 26 12  1  0
 24 19  1  0
M  END
>  <energy_score>  (988) 
-55.795213

>  <inchikey>  (988) 
None

>  <smiles>  (988) 
None

>  <ref_pdb>  (988) 
A4706a

>  <alias>  (988) 
None

>  <HIPPO Pose ID>  (988) 
499937

>  <name>  (988) 
P499937

>  <HIPPO Compound ID>  (988) 
314452

>  <ref_mols>  (988) 
A0875a,A4706a

>  <distance_score>  (988) 
1.467861

>  <inspiration_score>  (988) 
None

$$$$
P499939
     RDKit          3D

 26 28  0  0  0  0  0  0  0  0999 V2000
   11.2971   13.4384   22.0229 C   0  0  0  0  0  0  0  0  0  0  0  0
   10.7884   14.7438   21.4904 C   0  0  0  0  0  0  0  0  0  0  0  0
   11.6352   15.8839   22.0135 C   0  0  0  0  0  0  0  0  0  0  0  0
   10.7700   14.7714   20.0655 O   0  0  0  0  0  0  0  0  0  0  0  0
    9.6784   15.6327   19.7639 C   0  0  0  0  0  0  0  0  0  0  0  0
    8.6990   15.4278   20.9089 C   0  0  2  0  0  0  0  0  0  0  0  0
    8.0685   16.7182   21.4402 C   0  0  0  0  0  0  0  0  0  0  0  0
    7.0575   16.5678   22.4753 O   0  0  0  0  0  0  0  0  0  0  0  0
    6.4227   15.3884   22.6491 C   0  0  0  0  0  0  0  0  0  0  0  0
    5.5941   14.9178   21.8830 O   0  0  0  0  0  0  0  0  0  0  0  0
    6.9598   14.7012   23.8808 C   0  0  0  0  0  0  0  0  0  0  0  0
    6.9002   13.1895   23.7490 C   0  0  0  0  0  0  0  0  0  0  0  0
    7.6062   12.4445   24.8728 C   0  0  0  0  0  0  0  0  0  0  0  0
    8.0138   13.3365   25.9747 N   0  0  0  0  0  0  0  0  0  0  0  0
    9.5327   14.0848   25.9683 S   0  0  0  0  0  0  0  0  0  0  0  0
    9.8949   14.5702   24.6659 O   0  0  0  0  0  0  0  0  0  0  0  0
    9.5554   14.9737   27.1044 O   0  0  0  0  0  0  0  0  0  0  0  0
   10.6360   12.8600   26.3029 N   0  0  0  0  0  0  0  0  0  0  0  0
   10.6999   11.7198   25.3672 C   0  0  0  0  0  0  0  0  0  0  0  0
   12.0550   11.0559   25.4944 C   0  0  0  0  0  0  0  0  0  0  0  0
   13.1022   11.9340   24.9223 C   0  0  0  0  0  0  0  0  0  0  0  0
   13.0588   13.2435   25.6452 C   0  0  0  0  0  0  0  0  0  0  0  0
   11.9712   13.4036   26.7105 C   0  0  0  0  0  0  0  0  0  0  0  0
    6.8647   14.2210   26.3661 C   0  0  0  0  0  0  0  0  0  0  0  0
    6.4332   15.1600   25.2290 C   0  0  0  0  0  0  0  0  0  0  0  0
    9.4634   14.8711   21.9685 O   0  0  0  0  0  0  0  0  0  0  0  0
  1  2  1  0
  2  3  1  0
  2  4  1  0
  4  5  1  0
  5  6  1  0
  6  7  1  1
  7  8  1  0
  8  9  1  0
  9 10  2  0
  9 11  1  0
 11 12  1  0
 12 13  1  0
 13 14  1  0
 14 15  1  0
 15 16  2  0
 15 17  2  0
 15 18  1  0
 18 19  1  0
 19 20  1  0
 20 21  1  0
 21 22  1  0
 22 23  1  0
 14 24  1  0
 24 25  1  0
  6 26  1  0
 26  2  1  0
 25 11  1  0
 23 18  1  0
M  END
>  <energy_score>  (989) 
-11.599855

>  <inchikey>  (989) 
None

>  <smiles>  (989) 
None

>  <ref_pdb>  (989) 
A4706a

>  <alias>  (989) 
None

>  <HIPPO Pose ID>  (989) 
499939

>  <name>  (989) 
P499939

>  <HIPPO Compound ID>  (989) 
314453

>  <ref_mols>  (989) 
A4706a,A0875a

>  <distance_score>  (989) 
1.729513

>  <inspiration_score>  (989) 
None

$$$$
P499942
     RDKit          3D

 26 27  0  0  0  0  0  0  0  0999 V2000
   11.9790   15.1292   20.4413 C   0  0  0  0  0  0  0  0  0  0  0  0
   10.7837   14.5832   21.1615 C   0  0  0  0  0  0  0  0  0  0  0  0
    9.7423   14.3644   20.1240 C   0  0  0  0  0  0  0  0  0  0  0  0
   10.3457   15.5097   22.1303 O   0  0  0  0  0  0  0  0  0  0  0  0
    9.2125   15.0823   22.8701 C   0  0  0  0  0  0  0  0  0  0  0  0
    7.7947   15.3410   22.3331 C   0  0  2  0  0  0  0  0  0  0  0  0
    7.3998   16.7586   21.9795 C   0  0  0  0  0  0  0  0  0  0  0  0
    8.7064   17.9097   20.7642 I   0  0  0  0  0  0  0  0  0  0  0  0
    6.8530   14.9940   23.4011 O   0  0  0  0  0  0  0  0  0  0  0  0
    6.4459   13.7166   23.5156 C   0  0  0  0  0  0  0  0  0  0  0  0
    6.7676   12.8292   22.7346 O   0  0  0  0  0  0  0  0  0  0  0  0
    5.5441   13.4883   24.7324 C   0  0  0  0  0  0  0  0  0  0  0  0
    5.9838   12.2115   25.4657 C   0  0  0  0  0  0  0  0  0  0  0  0
    7.4279   12.3006   25.9382 C   0  0  0  0  0  0  0  0  0  0  0  0
    7.7987   13.7064   26.0820 N   0  0  0  0  0  0  0  0  0  0  0  0
    9.3480   14.2023   26.3693 S   0  0  0  0  0  0  0  0  0  0  0  0
    9.3718   15.6168   26.0902 O   0  0  0  0  0  0  0  0  0  0  0  0
    9.8144   13.7301   27.6403 O   0  0  0  0  0  0  0  0  0  0  0  0
   10.3006   13.4589   25.2201 N   0  0  0  0  0  0  0  0  0  0  0  0
   10.5522   12.0103   25.2498 C   0  0  0  0  0  0  0  0  0  0  0  0
   11.9464   11.6683   25.7583 C   0  0  0  0  0  0  0  0  0  0  0  0
   13.0930   12.3743   25.1052 C   0  0  0  0  0  0  0  0  0  0  0  0
   12.5565   13.5204   24.2877 C   0  0  0  0  0  0  0  0  0  0  0  0
   11.5140   14.2657   25.0494 C   0  0  0  0  0  0  0  0  0  0  0  0
    6.7400   14.5156   26.7282 C   0  0  0  0  0  0  0  0  0  0  0  0
    5.5672   14.6388   25.7539 C   0  0  0  0  0  0  0  0  0  0  0  0
  1  2  1  0
  2  3  1  0
  2  4  1  0
  4  5  1  0
  6  5  1  1
  6  7  1  0
  7  8  1  0
  6  9  1  0
  9 10  1  0
 10 11  2  0
 10 12  1  0
 12 13  1  0
 13 14  1  0
 14 15  1  0
 15 16  1  0
 16 17  2  0
 16 18  2  0
 16 19  1  0
 19 20  1  0
 20 21  1  0
 21 22  1  0
 22 23  1  0
 23 24  1  0
 15 25  1  0
 25 26  1  0
 26 12  1  0
 24 19  1  0
M  END
>  <energy_score>  (990) 
-44.470608

>  <inchikey>  (990) 
None

>  <smiles>  (990) 
None

>  <ref_pdb>  (990) 
A4706a

>  <alias>  (990) 
None

>  <HIPPO Pose ID>  (990) 
499942

>  <name>  (990) 
P499942

>  <HIPPO Compound ID>  (990) 
314456

>  <ref_mols>  (990) 
A4706a,A0875a

>  <distance_score>  (990) 
1.774244

>  <inspiration_score>  (990) 
None

$$$$
P499943
     RDKit          3D

 26 28  0  0  0  0  0  0  0  0999 V2000
    6.9094   16.0878   22.2199 C   0  0  0  0  0  0  0  0  0  0  0  0
    7.9920   15.1886   21.6242 C   0  0  2  0  0  0  0  0  0  0  0  0
    8.1497   14.1033   22.5624 O   0  0  0  0  0  0  0  0  0  0  0  0
    7.0262   13.3909   22.8016 C   0  0  0  0  0  0  0  0  0  0  0  0
    6.1660   13.1542   21.9609 O   0  0  0  0  0  0  0  0  0  0  0  0
    6.9141   12.8523   24.2081 C   0  0  0  0  0  0  0  0  0  0  0  0
    8.0396   11.8391   24.4403 C   0  0  0  0  0  0  0  0  0  0  0  0
    8.4366   11.6962   25.8843 C   0  0  0  0  0  0  0  0  0  0  0  0
    8.5618   13.0136   26.5174 N   0  0  0  0  0  0  0  0  0  0  0  0
    9.8074   14.0403   26.0187 S   0  0  0  0  0  0  0  0  0  0  0  0
    9.8322   15.1346   26.9562 O   0  0  0  0  0  0  0  0  0  0  0  0
    9.7030   14.2831   24.6112 O   0  0  0  0  0  0  0  0  0  0  0  0
   11.1634   13.0312   26.2688 N   0  0  0  0  0  0  0  0  0  0  0  0
   11.8791   12.7164   25.0030 C   0  0  0  0  0  0  0  0  0  0  0  0
   12.9886   11.7226   25.2914 C   0  0  0  0  0  0  0  0  0  0  0  0
   13.9956   12.2877   26.2612 C   0  0  0  0  0  0  0  0  0  0  0  0
   13.3072   12.7553   27.5276 C   0  0  0  0  0  0  0  0  0  0  0  0
   12.0518   13.5957   27.3060 C   0  0  0  0  0  0  0  0  0  0  0  0
    7.2339   13.6708   26.5991 C   0  0  0  0  0  0  0  0  0  0  0  0
    6.7543   14.0136   25.2028 C   0  0  0  0  0  0  0  0  0  0  0  0
    9.3524   15.9252   21.2954 C   0  0  2  0  0  0  0  0  0  0  0  0
    9.1737   17.4002   20.8996 C   0  0  0  0  0  0  0  0  0  0  0  0
   10.1388   15.2303   20.1716 C   0  0  0  0  0  0  0  0  0  0  0  0
   11.1889   14.4499   20.9004 C   0  0  0  0  0  0  0  0  0  0  0  0
   11.5073   15.3840   22.0290 C   0  0  0  0  0  0  0  0  0  0  0  0
   10.2421   15.9022   22.4409 O   0  0  0  0  0  0  0  0  0  0  0  0
  2  1  1  1
  2  3  1  0
  3  4  1  0
  4  5  2  0
  4  6  1  0
  6  7  1  0
  7  8  1  0
  8  9  1  0
  9 10  1  0
 10 11  2  0
 10 12  2  0
 10 13  1  0
 13 14  1  0
 14 15  1  0
 15 16  1  0
 16 17  1  0
 17 18  1  0
  9 19  1  0
 19 20  1  0
  2 21  1  0
 21 22  1  6
 21 23  1  0
 23 24  1  0
 24 25  1  0
 25 26  1  0
 20  6  1  0
 26 21  1  0
 18 13  1  0
M  END
>  <energy_score>  (991) 
-37.775501

>  <inchikey>  (991) 
None

>  <smiles>  (991) 
None

>  <ref_pdb>  (991) 
A4706a

>  <alias>  (991) 
None

>  <HIPPO Pose ID>  (991) 
499943

>  <name>  (991) 
P499943

>  <HIPPO Compound ID>  (991) 
314457

>  <ref_mols>  (991) 
A0875a,A4706a

>  <distance_score>  (991) 
1.512681

>  <inspiration_score>  (991) 
None

$$$$
P499946
     RDKit          3D

 26 27  0  0  0  0  0  0  0  0999 V2000
   11.3641   14.5961   18.7914 C   0  0  0  0  0  0  0  0  0  0  0  0
   10.8252   15.8901   18.7889 O   0  0  0  0  0  0  0  0  0  0  0  0
    9.6979   16.0222   19.6227 C   0  0  0  0  0  0  0  0  0  0  0  0
    9.9638   16.3690   21.0695 C   0  0  0  0  0  0  0  0  0  0  0  0
   10.9695   15.5473   21.6228 O   0  0  0  0  0  0  0  0  0  0  0  0
   10.7077   15.2450   22.9785 C   0  0  0  0  0  0  0  0  0  0  0  0
    9.6431   14.1544   23.1112 C   0  0  2  0  0  0  0  0  0  0  0  0
    9.9245   13.0858   22.1024 C   0  0  0  0  0  0  0  0  0  0  0  0
    8.2834   14.6455   23.1623 O   0  0  0  0  0  0  0  0  0  0  0  0
    7.3024   13.7148   23.0813 C   0  0  0  0  0  0  0  0  0  0  0  0
    7.0204   13.1311   22.0384 O   0  0  0  0  0  0  0  0  0  0  0  0
    6.5789   13.3595   24.3724 C   0  0  0  0  0  0  0  0  0  0  0  0
    7.2004   12.1034   25.0230 C   0  0  0  0  0  0  0  0  0  0  0  0
    8.0556   12.4283   26.2501 C   0  0  0  0  0  0  0  0  0  0  0  0
    8.6975   13.7128   25.9755 N   0  0  0  0  0  0  0  0  0  0  0  0
   10.1936   14.1436   26.5732 S   0  0  0  0  0  0  0  0  0  0  0  0
   10.6585   15.2518   25.7752 O   0  0  0  0  0  0  0  0  0  0  0  0
   10.0298   14.2856   27.9951 O   0  0  0  0  0  0  0  0  0  0  0  0
   11.2681   12.8833   26.3254 N   0  0  0  0  0  0  0  0  0  0  0  0
   11.3957   12.1335   25.0545 C   0  0  0  0  0  0  0  0  0  0  0  0
   12.3900   11.0180   25.3621 C   0  0  0  0  0  0  0  0  0  0  0  0
   13.8232   11.4559   25.5018 C   0  0  0  0  0  0  0  0  0  0  0  0
   13.7971   12.8681   26.0465 C   0  0  0  0  0  0  0  0  0  0  0  0
   12.6052   13.1059   27.0000 C   0  0  0  0  0  0  0  0  0  0  0  0
    7.7141   14.8359   26.0966 C   0  0  0  0  0  0  0  0  0  0  0  0
    6.4279   14.5162   25.3493 C   0  0  0  0  0  0  0  0  0  0  0  0
  1  2  1  0
  2  3  1  0
  3  4  1  0
  4  5  1  0
  5  6  1  0
  6  7  1  0
  7  8  1  6
  7  9  1  0
  9 10  1  0
 10 11  2  0
 10 12  1  0
 12 13  1  0
 13 14  1  0
 14 15  1  0
 15 16  1  0
 16 17  2  0
 16 18  2  0
 16 19  1  0
 19 20  1  0
 20 21  1  0
 21 22  1  0
 22 23  1  0
 23 24  1  0
 15 25  1  0
 25 26  1  0
 26 12  1  0
 24 19  1  0
M  END
>  <energy_score>  (992) 
-23.57606

>  <inchikey>  (992) 
None

>  <smiles>  (992) 
None

>  <ref_pdb>  (992) 
A4706a

>  <alias>  (992) 
None

>  <HIPPO Pose ID>  (992) 
499946

>  <name>  (992) 
P499946

>  <HIPPO Compound ID>  (992) 
314458

>  <ref_mols>  (992) 
A4706a,A0875a

>  <distance_score>  (992) 
1.3736

>  <inspiration_score>  (992) 
None

$$$$
P499949
     RDKit          3D

 26 28  0  0  0  0  0  0  0  0999 V2000
   11.3191   14.6172   19.1334 C   0  0  0  0  0  0  0  0  0  0  0  0
   10.0460   14.5226   19.7323 O   0  0  0  0  0  0  0  0  0  0  0  0
   10.0134   14.3287   21.1560 C   0  0  1  0  0  0  0  0  0  0  0  0
   10.9140   15.3106   21.8860 C   0  0  0  0  0  0  0  0  0  0  0  0
   10.5926   16.6640   21.6219 O   0  0  0  0  0  0  0  0  0  0  0  0
    9.2645   16.9047   21.1375 C   0  0  0  0  0  0  0  0  0  0  0  0
    8.2506   15.9987   21.8108 C   0  0  0  0  0  0  0  0  0  0  0  0
    8.5404   14.5267   21.5621 C   0  0  2  0  0  0  0  0  0  0  0  0
    8.1892   13.8140   22.7831 O   0  0  0  0  0  0  0  0  0  0  0  0
    6.8811   13.4609   22.8804 C   0  0  0  0  0  0  0  0  0  0  0  0
    6.1185   13.4034   21.9225 O   0  0  0  0  0  0  0  0  0  0  0  0
    6.4041   13.0565   24.2666 C   0  0  0  0  0  0  0  0  0  0  0  0
    7.2227   11.9216   24.9078 C   0  0  0  0  0  0  0  0  0  0  0  0
    8.0812   12.4243   26.0631 C   0  0  0  0  0  0  0  0  0  0  0  0
    8.6376   13.6967   25.6009 N   0  0  0  0  0  0  0  0  0  0  0  0
   10.1077   14.2396   26.1358 S   0  0  0  0  0  0  0  0  0  0  0  0
    9.9286   14.5579   27.5308 O   0  0  0  0  0  0  0  0  0  0  0  0
   10.5723   15.2425   25.2112 O   0  0  0  0  0  0  0  0  0  0  0  0
   11.1636   12.9553   26.0764 N   0  0  0  0  0  0  0  0  0  0  0  0
   12.4468   13.1870   26.8230 C   0  0  0  0  0  0  0  0  0  0  0  0
   13.6878   12.9040   25.9548 C   0  0  0  0  0  0  0  0  0  0  0  0
   13.7261   11.4735   25.4607 C   0  0  0  0  0  0  0  0  0  0  0  0
   12.2964   11.0261   25.3009 C   0  0  0  0  0  0  0  0  0  0  0  0
   11.3265   12.1364   24.8611 C   0  0  0  0  0  0  0  0  0  0  0  0
    7.6045   14.7796   25.6598 C   0  0  0  0  0  0  0  0  0  0  0  0
    6.2600   14.2770   25.1647 C   0  0  0  0  0  0  0  0  0  0  0  0
  1  2  1  0
  3  2  1  6
  3  4  1  0
  4  5  1  0
  5  6  1  0
  6  7  1  0
  7  8  1  0
  8  9  1  1
  9 10  1  0
 10 11  2  0
 10 12  1  0
 12 13  1  0
 13 14  1  0
 14 15  1  0
 15 16  1  0
 16 17  2  0
 16 18  2  0
 16 19  1  0
 19 20  1  0
 20 21  1  0
 21 22  1  0
 22 23  1  0
 23 24  1  0
 15 25  1  0
 25 26  1  0
  8  3  1  0
 26 12  1  0
 24 19  1  0
M  END
>  <energy_score>  (993) 
-48.102514

>  <inchikey>  (993) 
None

>  <smiles>  (993) 
None

>  <ref_pdb>  (993) 
A4706a

>  <alias>  (993) 
None

>  <HIPPO Pose ID>  (993) 
499949

>  <name>  (993) 
P499949

>  <HIPPO Compound ID>  (993) 
314459

>  <ref_mols>  (993) 
A0875a,A4706a

>  <distance_score>  (993) 
1.42614

>  <inspiration_score>  (993) 
None

$$$$
P499951
     RDKit          3D

 26 28  0  0  0  0  0  0  0  0999 V2000
   10.4483   15.1642   19.2255 C   0  0  0  0  0  0  0  0  0  0  0  0
    9.9715   15.6435   20.6181 C   0  0  0  0  0  0  0  0  0  0  0  0
    9.4134   17.0596   20.5256 C   0  0  0  0  0  0  0  0  0  0  0  0
   11.1365   15.5829   21.5970 C   0  0  0  0  0  0  0  0  0  0  0  0
   11.2253   14.2367   22.0335 O   0  0  0  0  0  0  0  0  0  0  0  0
    9.9861   13.6890   21.9340 C   0  0  0  0  0  0  0  0  0  0  0  0
    9.6803   12.6211   22.4476 O   0  0  0  0  0  0  0  0  0  0  0  0
    9.0123   14.6138   21.2276 C   0  0  1  0  0  0  0  0  0  0  0  0
    8.0855   15.0924   22.2130 O   0  0  0  0  0  0  0  0  0  0  0  0
    7.1652   14.1391   22.5904 C   0  0  0  0  0  0  0  0  0  0  0  0
    6.5257   13.4253   21.8342 O   0  0  0  0  0  0  0  0  0  0  0  0
    7.1387   14.0293   24.0857 C   0  0  0  0  0  0  0  0  0  0  0  0
    6.7450   12.6779   24.6838 C   0  0  0  0  0  0  0  0  0  0  0  0
    7.2154   12.5844   26.1464 C   0  0  0  0  0  0  0  0  0  0  0  0
    7.6704   13.8994   26.6541 N   0  0  0  0  0  0  0  0  0  0  0  0
    9.2607   14.4754   26.6251 S   0  0  0  0  0  0  0  0  0  0  0  0
    9.4885   15.0390   27.9294 O   0  0  0  0  0  0  0  0  0  0  0  0
    9.4733   15.2974   25.4522 O   0  0  0  0  0  0  0  0  0  0  0  0
   10.3059   13.1457   26.4624 N   0  0  0  0  0  0  0  0  0  0  0  0
   10.2578   12.5917   25.1043 C   0  0  0  0  0  0  0  0  0  0  0  0
   11.0120   11.3089   25.0657 C   0  0  0  0  0  0  0  0  0  0  0  0
   12.4921   11.6345   25.2842 C   0  0  0  0  0  0  0  0  0  0  0  0
   12.7326   12.4655   26.5368 C   0  0  0  0  0  0  0  0  0  0  0  0
   11.7193   13.5937   26.7192 C   0  0  0  0  0  0  0  0  0  0  0  0
    6.6457   14.9510   26.3810 C   0  0  0  0  0  0  0  0  0  0  0  0
    6.4884   15.1631   24.8640 C   0  0  0  0  0  0  0  0  0  0  0  0
  1  2  1  0
  2  3  1  0
  2  4  1  0
  4  5  1  0
  5  6  1  0
  6  7  2  0
  6  8  1  0
  8  9  1  1
  9 10  1  0
 10 11  2  0
 10 12  1  0
 12 13  1  0
 13 14  1  0
 14 15  1  0
 15 16  1  0
 16 17  2  0
 16 18  2  0
 16 19  1  0
 19 20  1  0
 20 21  1  0
 21 22  1  0
 22 23  1  0
 23 24  1  0
 15 25  1  0
 25 26  1  0
  8  2  1  0
 26 12  1  0
 24 19  1  0
M  END
>  <energy_score>  (994) 
-28.42201

>  <inchikey>  (994) 
None

>  <smiles>  (994) 
None

>  <ref_pdb>  (994) 
A4706a

>  <alias>  (994) 
None

>  <HIPPO Pose ID>  (994) 
499951

>  <name>  (994) 
P499951

>  <HIPPO Compound ID>  (994) 
314460

>  <ref_mols>  (994) 
A0875a,A4706a

>  <distance_score>  (994) 
1.58721

>  <inspiration_score>  (994) 
None

$$$$
P499952
     RDKit          3D

 26 28  0  0  0  0  0  0  0  0999 V2000
   10.7693   14.2601   19.7558 C   0  0  0  0  0  0  0  0  0  0  0  0
    9.6911   15.1666   20.3016 C   0  0  2  0  0  0  0  0  0  0  0  0
   10.4670   16.3676   20.3374 O   0  0  0  0  0  0  0  0  0  0  0  0
   11.2117   16.3326   21.5544 C   0  0  0  0  0  0  0  0  0  0  0  0
   10.3890   15.5293   22.5022 C   0  0  0  0  0  0  0  0  0  0  0  0
    9.1014   15.1939   21.7520 C   0  0  1  0  0  0  0  0  0  0  0  0
    8.0104   16.3240   21.7762 C   0  0  0  0  0  0  0  0  0  0  0  0
    8.3023   17.6318   21.2223 N   0  0  0  0  0  0  0  0  0  0  0  0
    8.5642   14.0173   22.4504 O   0  0  0  0  0  0  0  0  0  0  0  0
    7.2308   13.8305   22.5766 C   0  0  0  0  0  0  0  0  0  0  0  0
    6.5763   13.3845   21.6388 O   0  0  0  0  0  0  0  0  0  0  0  0
    6.5120   14.0561   23.9267 C   0  0  0  0  0  0  0  0  0  0  0  0
    6.2998   12.7144   24.6354 C   0  0  0  0  0  0  0  0  0  0  0  0
    7.5741   12.2766   25.3263 C   0  0  0  0  0  0  0  0  0  0  0  0
    8.0846   13.3020   26.2616 N   0  0  0  0  0  0  0  0  0  0  0  0
    9.6808   13.8067   26.1310 S   0  0  0  0  0  0  0  0  0  0  0  0
    9.9290   14.6447   27.2790 O   0  0  0  0  0  0  0  0  0  0  0  0
    9.8899   14.3349   24.8167 O   0  0  0  0  0  0  0  0  0  0  0  0
   10.6897   12.4714   26.2551 N   0  0  0  0  0  0  0  0  0  0  0  0
   12.0835   12.9220   26.5826 C   0  0  0  0  0  0  0  0  0  0  0  0
   13.0486   12.6064   25.4717 C   0  0  0  0  0  0  0  0  0  0  0  0
   13.1425   11.1015   25.3512 C   0  0  0  0  0  0  0  0  0  0  0  0
   11.7407   10.4367   25.2779 C   0  0  0  0  0  0  0  0  0  0  0  0
   10.6153   11.4552   25.1610 C   0  0  0  0  0  0  0  0  0  0  0  0
    7.1729   14.4917   26.3460 C   0  0  0  0  0  0  0  0  0  0  0  0
    6.9889   15.0932   24.9453 C   0  0  0  0  0  0  0  0  0  0  0  0
  2  1  1  1
  2  3  1  0
  3  4  1  0
  4  5  1  0
  5  6  1  0
  6  7  1  6
  7  8  1  0
  6  9  1  0
  9 10  1  0
 10 11  2  0
 10 12  1  0
 12 13  1  0
 13 14  1  0
 14 15  1  0
 15 16  1  0
 16 17  2  0
 16 18  2  0
 16 19  1  0
 19 20  1  0
 20 21  1  0
 21 22  1  0
 22 23  1  0
 23 24  1  0
 15 25  1  0
 25 26  1  0
  6  2  1  0
 26 12  1  0
 24 19  1  0
M  END
>  <energy_score>  (995) 
-1.910815

>  <inchikey>  (995) 
None

>  <smiles>  (995) 
None

>  <ref_pdb>  (995) 
A4706a

>  <alias>  (995) 
None

>  <HIPPO Pose ID>  (995) 
499952

>  <name>  (995) 
P499952

>  <HIPPO Compound ID>  (995) 
314461

>  <ref_mols>  (995) 
A4706a,A0875a

>  <distance_score>  (995) 
1.273009

>  <inspiration_score>  (995) 
None

$$$$
P499954
     RDKit          3D

 26 27  0  0  0  0  0  0  0  0999 V2000
   19.2519    8.7823   28.7185 C   0  0  0  0  0  0  0  0  0  0  0  0
   18.1940    9.1798   27.7063 C   0  0  0  0  0  0  0  0  0  0  0  0
   17.8097   10.5261   27.9982 O   0  0  0  0  0  0  0  0  0  0  0  0
   16.6231   10.9257   27.4713 C   0  0  0  0  0  0  0  0  0  0  0  0
   15.9405   10.2792   26.6862 O   0  0  0  0  0  0  0  0  0  0  0  0
   16.2590   12.3215   27.9731 C   0  0  2  0  0  0  0  0  0  0  0  0
   16.6152   12.5276   29.4431 C   0  0  0  0  0  0  0  0  0  0  0  0
   15.5743   11.3386   30.6021 Br  0  0  0  0  0  0  0  0  0  0  0  0
   14.8564   12.6369   27.8241 O   0  0  0  0  0  0  0  0  0  0  0  0
   14.3683   12.6684   26.5573 C   0  0  0  0  0  0  0  0  0  0  0  0
   15.0363   12.8081   25.5484 O   0  0  0  0  0  0  0  0  0  0  0  0
   12.8844   12.4030   26.5629 C   0  0  0  0  0  0  0  0  0  0  0  0
   12.0087   13.5620   26.9902 C   0  0  0  0  0  0  0  0  0  0  0  0
   10.5590   13.2431   26.7118 C   0  0  0  0  0  0  0  0  0  0  0  0
   10.3153   13.0200   25.2711 N   0  0  0  0  0  0  0  0  0  0  0  0
    9.1695   14.0732   24.6421 S   0  0  0  0  0  0  0  0  0  0  0  0
    8.9954   13.8366   23.2350 O   0  0  0  0  0  0  0  0  0  0  0  0
    9.5021   15.3653   25.1840 O   0  0  0  0  0  0  0  0  0  0  0  0
    7.8400   13.4738   25.4694 N   0  0  0  0  0  0  0  0  0  0  0  0
    7.3449   12.1416   25.0681 C   0  0  0  0  0  0  0  0  0  0  0  0
    6.5934   11.5532   26.2572 C   0  0  0  0  0  0  0  0  0  0  0  0
    5.4693   12.4805   26.7189 C   0  0  0  0  0  0  0  0  0  0  0  0
    5.9683   13.9087   26.9411 C   0  0  0  0  0  0  0  0  0  0  0  0
    6.7366   14.4226   25.7242 C   0  0  0  0  0  0  0  0  0  0  0  0
   11.5199   12.8089   24.4542 C   0  0  0  0  0  0  0  0  0  0  0  0
   12.4266   11.8358   25.2170 C   0  0  0  0  0  0  0  0  0  0  0  0
  1  2  1  0
  2  3  1  0
  3  4  1  0
  4  5  2  0
  4  6  1  0
  6  7  1  1
  7  8  1  0
  6  9  1  0
  9 10  1  0
 10 11  2  0
 10 12  1  0
 12 13  1  0
 13 14  1  0
 14 15  1  0
 15 16  1  0
 16 17  2  0
 16 18  2  0
 16 19  1  0
 19 20  1  0
 20 21  1  0
 21 22  1  0
 22 23  1  0
 23 24  1  0
 15 25  1  0
 25 26  1  0
 26 12  1  0
 24 19  1  0
M  END
>  <energy_score>  (996) 
-79.346868

>  <inchikey>  (996) 
None

>  <smiles>  (996) 
None

>  <ref_pdb>  (996) 
A4706a

>  <alias>  (996) 
None

>  <HIPPO Pose ID>  (996) 
499954

>  <name>  (996) 
P499954

>  <HIPPO Compound ID>  (996) 
314462

>  <ref_mols>  (996) 
A4706a,A0875a

>  <distance_score>  (996) 
1.7986

>  <inspiration_score>  (996) 
None

$$$$
P499956
     RDKit          3D

 26 27  0  0  0  0  0  0  0  0999 V2000
    9.4505   16.9504   19.8323 C   0  0  0  0  0  0  0  0  0  0  0  0
    9.6885   15.7656   19.2476 C   0  0  0  0  0  0  0  0  0  0  0  0
   10.3766   14.5504   19.7627 C   0  0  0  0  0  0  0  0  0  0  0  0
   11.4631   14.8102   20.6166 O   0  0  0  0  0  0  0  0  0  0  0  0
   11.1449   15.5402   21.6925 C   0  0  0  0  0  0  0  0  0  0  0  0
   11.7550   16.5788   21.9024 O   0  0  0  0  0  0  0  0  0  0  0  0
   10.0960   14.9596   22.6623 C   0  0  1  0  0  0  0  0  0  0  0  0
   10.8605   15.2109   23.9505 C   0  0  0  0  0  0  0  0  0  0  0  0
    8.7982   15.4946   22.9751 O   0  0  0  0  0  0  0  0  0  0  0  0
    7.6842   14.8134   22.5978 C   0  0  0  0  0  0  0  0  0  0  0  0
    7.6159   14.1085   21.5955 O   0  0  0  0  0  0  0  0  0  0  0  0
    6.4864   14.9819   23.5766 C   0  0  0  0  0  0  0  0  0  0  0  0
    5.8065   13.6311   23.9246 C   0  0  0  0  0  0  0  0  0  0  0  0
    6.1051   13.0963   25.3389 C   0  0  0  0  0  0  0  0  0  0  0  0
    7.4922   13.4479   25.7525 N   0  0  0  0  0  0  0  0  0  0  0  0
    8.6142   12.4037   25.0998 S   0  0  0  0  0  0  0  0  0  0  0  0
    8.3892   11.1357   25.7492 O   0  0  0  0  0  0  0  0  0  0  0  0
    8.5315   12.4914   23.6662 O   0  0  0  0  0  0  0  0  0  0  0  0
   10.1717   12.8770   25.4784 N   0  0  0  0  0  0  0  0  0  0  0  0
   11.1296   11.9032   24.8981 C   0  0  0  0  0  0  0  0  0  0  0  0
   12.5908   12.2439   25.1451 C   0  0  0  0  0  0  0  0  0  0  0  0
   12.8873   12.6492   26.5646 C   0  0  0  0  0  0  0  0  0  0  0  0
   11.8920   13.7024   27.0178 C   0  0  0  0  0  0  0  0  0  0  0  0
   10.4621   13.2353   26.8546 C   0  0  0  0  0  0  0  0  0  0  0  0
    7.6618   14.9063   25.8377 C   0  0  0  0  0  0  0  0  0  0  0  0
    6.7416   15.6832   24.9057 C   0  0  0  0  0  0  0  0  0  0  0  0
  1  2  2  0
  2  3  1  0
  3  4  1  0
  4  5  1  0
  5  6  2  0
  5  7  1  0
  7  8  1  1
  7  9  1  0
  9 10  1  0
 10 11  2  0
 10 12  1  0
 12 13  1  0
 13 14  1  0
 14 15  1  0
 15 16  1  0
 16 17  2  0
 16 18  2  0
 16 19  1  0
 19 20  1  0
 20 21  1  0
 21 22  1  0
 22 23  1  0
 23 24  1  0
 15 25  1  0
 25 26  1  0
 26 12  1  0
 24 19  1  0
M  END
>  <energy_score>  (997) 
-9.962301

>  <inchikey>  (997) 
None

>  <smiles>  (997) 
None

>  <ref_pdb>  (997) 
A4706a

>  <alias>  (997) 
None

>  <HIPPO Pose ID>  (997) 
499956

>  <name>  (997) 
P499956

>  <HIPPO Compound ID>  (997) 
314463

>  <ref_mols>  (997) 
A0875a,A4706a

>  <distance_score>  (997) 
1.970034

>  <inspiration_score>  (997) 
None

$$$$
P499960
     RDKit          3D

 26 29  0  0  0  0  0  0  0  0999 V2000
    6.7240   13.0237   22.3010 O   0  0  0  0  0  0  0  0  0  0  0  0
    6.7562   13.8997   23.1640 C   0  0  0  0  0  0  0  0  0  0  0  0
    7.5655   15.0002   23.1184 O   0  0  0  0  0  0  0  0  0  0  0  0
    8.1365   15.4127   21.8463 C   0  0  2  0  0  0  0  0  0  0  0  0
    8.4494   14.3241   20.8685 C   0  0  0  0  0  0  0  0  0  0  0  0
    9.2887   14.8538   19.8495 O   0  0  0  0  0  0  0  0  0  0  0  0
   10.0117   15.9188   20.4134 C   0  0  2  0  0  0  0  0  0  0  0  0
   11.3890   15.5886   20.4768 O   0  0  0  0  0  0  0  0  0  0  0  0
   11.6363   14.9687   21.7253 C   0  0  0  0  0  0  0  0  0  0  0  0
   10.5817   15.4681   22.6720 C   0  0  0  0  0  0  0  0  0  0  0  0
    9.4982   16.0873   21.8275 C   0  0  2  0  0  0  0  0  0  0  0  0
    5.8332   13.7553   24.3751 C   0  0  0  0  0  0  0  0  0  0  0  0
    6.2069   12.4949   25.2055 C   0  0  0  0  0  0  0  0  0  0  0  0
    7.2240   12.7886   26.3129 C   0  0  0  0  0  0  0  0  0  0  0  0
    7.8821   14.0238   25.9027 N   0  0  0  0  0  0  0  0  0  0  0  0
    9.4459   14.3740   26.2623 S   0  0  0  0  0  0  0  0  0  0  0  0
    9.7981   15.5171   25.4656 O   0  0  0  0  0  0  0  0  0  0  0  0
    9.5778   14.4078   27.6946 O   0  0  0  0  0  0  0  0  0  0  0  0
   10.4062   13.1454   25.7236 N   0  0  0  0  0  0  0  0  0  0  0  0
   10.0689   12.2566   24.6151 C   0  0  0  0  0  0  0  0  0  0  0  0
   10.7466   10.9451   25.0021 C   0  0  0  0  0  0  0  0  0  0  0  0
   12.2334   11.1953   25.4187 C   0  0  0  0  0  0  0  0  0  0  0  0
   12.7112   12.5663   25.0147 C   0  0  0  0  0  0  0  0  0  0  0  0
   11.8341   13.5707   25.7295 C   0  0  0  0  0  0  0  0  0  0  0  0
    6.9761   15.1897   26.1014 C   0  0  0  0  0  0  0  0  0  0  0  0
    5.7320   14.9937   25.2531 C   0  0  0  0  0  0  0  0  0  0  0  0
  1  2  2  0
  2  3  1  0
  4  3  1  1
  4  5  1  0
  5  6  1  0
  7  6  1  1
  7  8  1  0
  8  9  1  0
  9 10  1  0
 11 10  1  1
  2 12  1  0
 12 13  1  0
 13 14  1  0
 14 15  1  0
 15 16  1  0
 16 17  2  0
 16 18  2  0
 16 19  1  0
 19 20  1  0
 20 21  1  0
 21 22  1  0
 22 23  1  0
 23 24  1  0
 15 25  1  0
 25 26  1  0
 11  4  1  0
 26 12  1  0
 11  7  1  0
 24 19  1  0
M  END
>  <energy_score>  (998) 
-47.141722

>  <inchikey>  (998) 
None

>  <smiles>  (998) 
None

>  <ref_pdb>  (998) 
A4706a

>  <alias>  (998) 
None

>  <HIPPO Pose ID>  (998) 
499960

>  <name>  (998) 
P499960

>  <HIPPO Compound ID>  (998) 
314466

>  <ref_mols>  (998) 
A4706a,A0875a

>  <distance_score>  (998) 
1.538752

>  <inspiration_score>  (998) 
None

$$$$
P499966
     RDKit          3D

 26 28  0  0  0  0  0  0  0  0999 V2000
    7.1020   16.1227   22.4151 C   0  0  0  0  0  0  0  0  0  0  0  0
    7.8338   15.0858   21.5728 C   0  0  2  0  0  0  0  0  0  0  0  0
    7.8298   13.7701   22.1446 O   0  0  0  0  0  0  0  0  0  0  0  0
    6.6858   13.4805   22.8142 C   0  0  0  0  0  0  0  0  0  0  0  0
    5.6149   13.2750   22.2760 O   0  0  0  0  0  0  0  0  0  0  0  0
    7.0069   13.3641   24.2613 C   0  0  0  0  0  0  0  0  0  0  0  0
    7.3880   11.9591   24.6868 C   0  0  0  0  0  0  0  0  0  0  0  0
    7.7981   11.9368   26.1451 C   0  0  0  0  0  0  0  0  0  0  0  0
    7.9470   13.2986   26.6704 N   0  0  0  0  0  0  0  0  0  0  0  0
    9.3657   14.1948   26.5582 S   0  0  0  0  0  0  0  0  0  0  0  0
    9.3753   15.0487   25.3964 O   0  0  0  0  0  0  0  0  0  0  0  0
    9.5198   14.7883   27.8628 O   0  0  0  0  0  0  0  0  0  0  0  0
   10.5972   13.0292   26.3628 N   0  0  0  0  0  0  0  0  0  0  0  0
   10.7902   12.5790   24.9446 C   0  0  0  0  0  0  0  0  0  0  0  0
   12.2219   12.7988   24.4944 C   0  0  0  0  0  0  0  0  0  0  0  0
   13.1599   12.0409   25.4216 C   0  0  0  0  0  0  0  0  0  0  0  0
   13.0240   12.5848   26.8315 C   0  0  0  0  0  0  0  0  0  0  0  0
   11.8462   13.5381   26.9989 C   0  0  0  0  0  0  0  0  0  0  0  0
    6.6838   14.0916   26.6235 C   0  0  0  0  0  0  0  0  0  0  0  0
    6.0246   13.9816   25.2410 C   0  0  0  0  0  0  0  0  0  0  0  0
    9.2743   15.5472   21.2649 C   0  0  2  0  0  0  0  0  0  0  0  0
    9.7839   14.8329   20.0065 C   0  0  0  0  0  0  0  0  0  0  0  0
   11.1785   15.0500   19.6508 N   0  0  0  0  0  0  0  0  0  0  0  0
   11.9807   14.8896   20.8610 C   0  0  0  0  0  0  0  0  0  0  0  0
   11.4522   15.6289   22.0871 C   0  0  0  0  0  0  0  0  0  0  0  0
   10.1177   15.2448   22.3867 O   0  0  0  0  0  0  0  0  0  0  0  0
  2  1  1  1
  2  3  1  0
  3  4  1  0
  4  5  2  0
  4  6  1  0
  6  7  1  0
  7  8  1  0
  8  9  1  0
  9 10  1  0
 10 11  2  0
 10 12  2  0
 10 13  1  0
 13 14  1  0
 14 15  1  0
 15 16  1  0
 16 17  1  0
 17 18  1  0
  9 19  1  0
 19 20  1  0
  2 21  1  0
 21 22  1  6
 22 23  1  0
 23 24  1  0
 24 25  1  0
 25 26  1  0
 20  6  1  0
 26 21  1  0
 18 13  1  0
M  END
>  <energy_score>  (999) 
-28.239974

>  <inchikey>  (999) 
None

>  <smiles>  (999) 
None

>  <ref_pdb>  (999) 
A4706a

>  <alias>  (999) 
None

>  <HIPPO Pose ID>  (999) 
499966

>  <name>  (999) 
P499966

>  <HIPPO Compound ID>  (999) 
314467

>  <ref_mols>  (999) 
A0875a,A4706a

>  <distance_score>  (999) 
1.41602

>  <inspiration_score>  (999) 
None

$$$$
P499971
     RDKit          3D

 26 28  0  0  0  0  0  0  0  0999 V2000
   10.4411   14.9622   18.7223 C   0  0  0  0  0  0  0  0  0  0  0  0
   10.3216   15.7487   19.8796 O   0  0  0  0  0  0  0  0  0  0  0  0
    9.9697   15.1182   21.1162 C   0  0  1  0  0  0  0  0  0  0  0  0
    8.5260   14.5901   21.1794 C   0  0  0  0  0  0  0  0  0  0  0  0
    8.1678   14.1124   22.4910 O   0  0  0  0  0  0  0  0  0  0  0  0
    6.9075   13.6681   22.6921 C   0  0  0  0  0  0  0  0  0  0  0  0
    6.0658   13.5427   21.8144 O   0  0  0  0  0  0  0  0  0  0  0  0
    6.6729   13.2291   24.1329 C   0  0  0  0  0  0  0  0  0  0  0  0
    7.6378   12.0719   24.4677 C   0  0  0  0  0  0  0  0  0  0  0  0
    8.0436   11.9498   25.9156 C   0  0  0  0  0  0  0  0  0  0  0  0
    8.3457   13.2627   26.4774 N   0  0  0  0  0  0  0  0  0  0  0  0
    9.7215   14.1004   25.9815 S   0  0  0  0  0  0  0  0  0  0  0  0
    9.6791   14.3076   24.5626 O   0  0  0  0  0  0  0  0  0  0  0  0
    9.8219   15.2194   26.8859 O   0  0  0  0  0  0  0  0  0  0  0  0
   10.9991   13.0053   26.2936 N   0  0  0  0  0  0  0  0  0  0  0  0
   12.0983   13.6861   27.0313 C   0  0  0  0  0  0  0  0  0  0  0  0
   13.4885   13.1201   26.7220 C   0  0  0  0  0  0  0  0  0  0  0  0
   13.4427   11.6485   26.6405 C   0  0  0  0  0  0  0  0  0  0  0  0
   12.6015   11.2996   25.4321 C   0  0  0  0  0  0  0  0  0  0  0  0
   11.4831   12.2913   25.0867 C   0  0  0  0  0  0  0  0  0  0  0  0
    7.1114   14.0985   26.4937 C   0  0  0  0  0  0  0  0  0  0  0  0
    6.6914   14.4442   25.0718 C   0  0  0  0  0  0  0  0  0  0  0  0
   11.0666   14.1898   21.5919 C   0  0  0  0  0  0  0  0  0  0  0  0
   12.0571   15.1282   22.2205 C   0  0  0  0  0  0  0  0  0  0  0  0
   11.3136   16.1674   22.8158 O   0  0  0  0  0  0  0  0  0  0  0  0
   10.0582   16.2358   22.1315 C   0  0  0  0  0  0  0  0  0  0  0  0
  1  2  1  0
  3  2  1  0
  3  4  1  6
  4  5  1  0
  5  6  1  0
  6  7  2  0
  6  8  1  0
  8  9  1  0
  9 10  1  0
 10 11  1  0
 11 12  1  0
 12 13  2  0
 12 14  2  0
 12 15  1  0
 15 16  1  0
 16 17  1  0
 17 18  1  0
 18 19  1  0
 19 20  1  0
 11 21  1  0
 21 22  1  0
  3 23  1  0
 23 24  1  0
 24 25  1  0
 25 26  1  0
 26  3  1  0
 22  8  1  0
 20 15  1  0
M  END
>  <energy_score>  (1000) 
-55.83319

>  <inchikey>  (1000) 
None

>  <smiles>  (1000) 
None

>  <ref_pdb>  (1000) 
A4706a

>  <alias>  (1000) 
None

>  <HIPPO Pose ID>  (1000) 
499971

>  <name>  (1000) 
P499971

>  <HIPPO Compound ID>  (1000) 
314468

>  <ref_mols>  (1000) 
A4706a,A0875a

>  <distance_score>  (1000) 
1.305943

>  <inspiration_score>  (1000) 
None

$$$$
P499980
     RDKit          3D

 26 28  0  0  0  0  0  0  0  0999 V2000
    7.3787   14.6626   22.3320 O   0  0  0  0  0  0  0  0  0  0  0  0
    7.6335   13.8224   23.1821 C   0  0  0  0  0  0  0  0  0  0  0  0
    8.8642   13.3373   23.4615 O   0  0  0  0  0  0  0  0  0  0  0  0
   10.1478   13.8987   23.0190 C   0  0  0  0  0  0  0  0  0  0  0  0
   10.2780   15.4079   22.9625 C   0  0  0  0  0  0  0  0  0  0  0  0
   10.6491   15.9037   21.6903 O   0  0  0  0  0  0  0  0  0  0  0  0
    9.5301   15.9289   20.8162 C   0  0  1  0  0  0  0  0  0  0  0  0
    9.9167   16.4957   19.4892 C   0  0  0  0  0  0  0  0  0  0  0  0
   10.9287   15.4844   19.0258 C   0  0  0  0  0  0  0  0  0  0  0  0
   10.2630   14.2598   19.3216 O   0  0  0  0  0  0  0  0  0  0  0  0
    9.2283   14.5669   20.2916 C   0  0  0  0  0  0  0  0  0  0  0  0
    6.5183   13.2505   24.0719 C   0  0  0  0  0  0  0  0  0  0  0  0
    6.9024   12.0335   24.9516 C   0  0  0  0  0  0  0  0  0  0  0  0
    7.4569   12.4706   26.3103 C   0  0  0  0  0  0  0  0  0  0  0  0
    8.1104   13.7378   26.0389 N   0  0  0  0  0  0  0  0  0  0  0  0
    9.5865   14.1980   26.5827 S   0  0  0  0  0  0  0  0  0  0  0  0
    9.4485   14.4806   27.9870 O   0  0  0  0  0  0  0  0  0  0  0  0
   10.0614   15.2304   25.6948 O   0  0  0  0  0  0  0  0  0  0  0  0
   10.6584   12.9318   26.4551 N   0  0  0  0  0  0  0  0  0  0  0  0
   10.5269   11.7749   25.5590 C   0  0  0  0  0  0  0  0  0  0  0  0
   11.8747   11.0969   25.4340 C   0  0  0  0  0  0  0  0  0  0  0  0
   12.8751   12.0068   24.8036 C   0  0  0  0  0  0  0  0  0  0  0  0
   12.9967   13.2494   25.6313 C   0  0  0  0  0  0  0  0  0  0  0  0
   12.0471   13.3294   26.8225 C   0  0  0  0  0  0  0  0  0  0  0  0
    7.1141   14.8402   25.9263 C   0  0  0  0  0  0  0  0  0  0  0  0
    6.0106   14.3913   24.9668 C   0  0  0  0  0  0  0  0  0  0  0  0
  1  2  2  0
  2  3  1  0
  3  4  1  0
  4  5  1  0
  5  6  1  0
  7  6  1  1
  7  8  1  0
  8  9  1  0
  9 10  1  0
 10 11  1  0
  2 12  1  0
 12 13  1  0
 13 14  1  0
 14 15  1  0
 15 16  1  0
 16 17  2  0
 16 18  2  0
 16 19  1  0
 19 20  1  0
 20 21  1  0
 21 22  1  0
 22 23  1  0
 23 24  1  0
 15 25  1  0
 25 26  1  0
 11  7  1  0
 26 12  1  0
 24 19  1  0
M  END
>  <energy_score>  (1001) 
-15.314403

>  <inchikey>  (1001) 
None

>  <smiles>  (1001) 
None

>  <ref_pdb>  (1001) 
A4706a

>  <alias>  (1001) 
None

>  <HIPPO Pose ID>  (1001) 
499980

>  <name>  (1001) 
P499980

>  <HIPPO Compound ID>  (1001) 
314472

>  <ref_mols>  (1001) 
A0875a,A4706a

>  <distance_score>  (1001) 
1.538518

>  <inspiration_score>  (1001) 
None

$$$$
P499981
     RDKit          3D

 26 28  0  0  0  0  0  0  0  0999 V2000
   10.6613   14.4385   18.3300 C   0  0  0  0  0  0  0  0  0  0  0  0
   11.0311   15.5491   19.2211 C   0  0  0  0  0  0  0  0  0  0  0  0
    9.9288   15.8841   20.0302 O   0  0  0  0  0  0  0  0  0  0  0  0
    9.7545   15.2704   21.3427 C   0  0  0  0  0  0  0  0  0  0  0  0
    8.2265   15.2884   21.5496 C   0  0  0  0  0  0  0  0  0  0  0  0
    7.7528   14.9511   22.8644 O   0  0  0  0  0  0  0  0  0  0  0  0
    6.9223   13.8900   22.9909 C   0  0  0  0  0  0  0  0  0  0  0  0
    6.5766   13.1570   22.0663 O   0  0  0  0  0  0  0  0  0  0  0  0
    6.5061   13.5750   24.4315 C   0  0  0  0  0  0  0  0  0  0  0  0
    7.1636   12.2179   24.7892 C   0  0  0  0  0  0  0  0  0  0  0  0
    7.8022   12.0926   26.1557 C   0  0  0  0  0  0  0  0  0  0  0  0
    8.3867   13.3650   26.6008 N   0  0  0  0  0  0  0  0  0  0  0  0
    9.7411   13.9929   25.8012 S   0  0  0  0  0  0  0  0  0  0  0  0
   10.0860   15.2109   26.4882 O   0  0  0  0  0  0  0  0  0  0  0  0
    9.4410   13.9823   24.4012 O   0  0  0  0  0  0  0  0  0  0  0  0
   10.9320   12.8397   26.0484 N   0  0  0  0  0  0  0  0  0  0  0  0
   11.1025   11.8541   24.9516 C   0  0  0  0  0  0  0  0  0  0  0  0
   12.2411   10.9447   25.3774 C   0  0  0  0  0  0  0  0  0  0  0  0
   13.6015   11.5642   25.3447 C   0  0  0  0  0  0  0  0  0  0  0  0
   13.4299   13.0245   25.7040 C   0  0  0  0  0  0  0  0  0  0  0  0
   12.2242   13.3067   26.6326 C   0  0  0  0  0  0  0  0  0  0  0  0
    7.2828   14.3481   26.7744 C   0  0  0  0  0  0  0  0  0  0  0  0
    6.6923   14.7388   25.4267 C   0  0  0  0  0  0  0  0  0  0  0  0
   10.6440   15.8757   22.4397 C   0  0  0  0  0  0  0  0  0  0  0  0
   11.3897   14.6593   22.6422 O   0  0  0  0  0  0  0  0  0  0  0  0
   10.5478   13.9856   21.6792 C   0  0  0  0  0  0  0  0  0  0  0  0
  1  2  1  0
  2  3  1  0
  3  4  1  0
  4  5  1  0
  5  6  1  0
  6  7  1  0
  7  8  2  0
  7  9  1  0
  9 10  1  0
 10 11  1  0
 11 12  1  0
 12 13  1  0
 13 14  2  0
 13 15  2  0
 13 16  1  0
 16 17  1  0
 17 18  1  0
 18 19  1  0
 19 20  1  0
 20 21  1  0
 12 22  1  0
 22 23  1  0
  4 24  1  0
 24 25  1  0
 25 26  1  0
 26  4  1  0
 23  9  1  0
 21 16  1  0
M  END
>  <energy_score>  (1002) 
-61.750122

>  <inchikey>  (1002) 
None

>  <smiles>  (1002) 
None

>  <ref_pdb>  (1002) 
A4706a

>  <alias>  (1002) 
None

>  <HIPPO Pose ID>  (1002) 
499981

>  <name>  (1002) 
P499981

>  <HIPPO Compound ID>  (1002) 
314474

>  <ref_mols>  (1002) 
A4706a,A0875a

>  <distance_score>  (1002) 
1.115781

>  <inspiration_score>  (1002) 
None

$$$$
P499983
     RDKit          3D

 26 28  0  0  0  0  0  0  0  0999 V2000
    8.1626   17.1429   21.4865 C   0  0  0  0  0  0  0  0  0  0  0  0
    8.0369   15.6303   21.5845 C   0  0  2  0  0  0  0  0  0  0  0  0
    7.4991   15.3620   22.8968 O   0  0  0  0  0  0  0  0  0  0  0  0
    6.8232   14.2074   23.0845 C   0  0  0  0  0  0  0  0  0  0  0  0
    6.8046   13.2632   22.2954 O   0  0  0  0  0  0  0  0  0  0  0  0
    5.9695   14.2341   24.3650 C   0  0  0  0  0  0  0  0  0  0  0  0
    5.8473   12.8133   24.9195 C   0  0  0  0  0  0  0  0  0  0  0  0
    7.1667   12.3135   25.4868 C   0  0  0  0  0  0  0  0  0  0  0  0
    7.8331   13.3234   26.3489 N   0  0  0  0  0  0  0  0  0  0  0  0
    9.3197   13.9428   25.8390 S   0  0  0  0  0  0  0  0  0  0  0  0
    9.6977   14.9680   26.7842 O   0  0  0  0  0  0  0  0  0  0  0  0
    9.2599   14.2219   24.4346 O   0  0  0  0  0  0  0  0  0  0  0  0
   10.4461   12.6938   26.0175 N   0  0  0  0  0  0  0  0  0  0  0  0
   10.2515   11.5299   25.1144 C   0  0  0  0  0  0  0  0  0  0  0  0
   11.3598   10.5023   25.2425 C   0  0  0  0  0  0  0  0  0  0  0  0
   12.7512   11.1422   25.4328 C   0  0  0  0  0  0  0  0  0  0  0  0
   12.7532   12.5945   25.0379 C   0  0  0  0  0  0  0  0  0  0  0  0
   11.8052   13.3213   25.9565 C   0  0  0  0  0  0  0  0  0  0  0  0
    6.8919   14.4168   26.7405 C   0  0  0  0  0  0  0  0  0  0  0  0
    6.4135   15.1765   25.4972 C   0  0  0  0  0  0  0  0  0  0  0  0
    9.3739   14.9619   21.1884 C   0  0  1  0  0  0  0  0  0  0  0  0
    9.7683   15.4483   19.7784 C   0  0  0  0  0  0  0  0  0  0  0  0
   11.0437   14.8301   19.2888 C   0  0  0  0  0  0  0  0  0  0  0  0
   11.9833   14.5776   20.4427 C   0  0  0  0  0  0  0  0  0  0  0  0
   11.6980   15.4052   21.6793 C   0  0  0  0  0  0  0  0  0  0  0  0
   10.3786   15.2620   22.1633 O   0  0  0  0  0  0  0  0  0  0  0  0
  2  1  1  1
  2  3  1  0
  3  4  1  0
  4  5  2  0
  4  6  1  0
  6  7  1  0
  7  8  1  0
  8  9  1  0
  9 10  1  0
 10 11  2  0
 10 12  2  0
 10 13  1  0
 13 14  1  0
 14 15  1  0
 15 16  1  0
 16 17  1  0
 17 18  1  0
  9 19  1  0
 19 20  1  0
  2 21  1  0
 21 22  1  6
 22 23  1  0
 23 24  1  0
 24 25  1  0
 25 26  1  0
 20  6  1  0
 26 21  1  0
 18 13  1  0
M  END
>  <energy_score>  (1003) 
-51.460476

>  <inchikey>  (1003) 
None

>  <smiles>  (1003) 
None

>  <ref_pdb>  (1003) 
A4706a

>  <alias>  (1003) 
None

>  <HIPPO Pose ID>  (1003) 
499983

>  <name>  (1003) 
P499983

>  <HIPPO Compound ID>  (1003) 
314475

>  <ref_mols>  (1003) 
A4706a,A0875a

>  <distance_score>  (1003) 
1.278831

>  <inspiration_score>  (1003) 
None

$$$$
P499984
     RDKit          3D

 26 28  0  0  0  0  0  0  0  0999 V2000
    6.3278   14.2455   21.5809 O   0  0  0  0  0  0  0  0  0  0  0  0
    7.2652   14.6201   22.2715 C   0  0  0  0  0  0  0  0  0  0  0  0
    8.3794   15.2559   21.7737 O   0  0  0  0  0  0  0  0  0  0  0  0
    9.2894   14.3325   21.1531 C   0  0  2  0  0  0  0  0  0  0  0  0
   10.2245   13.7212   22.1726 C   0  0  0  0  0  0  0  0  0  0  0  0
   11.2967   14.6586   22.3511 O   0  0  0  0  0  0  0  0  0  0  0  0
   11.3030   15.5488   21.2444 C   0  0  0  0  0  0  0  0  0  0  0  0
   10.3491   14.9270   20.2653 C   0  0  2  0  0  0  0  0  0  0  0  0
    9.9563   15.8522   19.1860 C   0  0  0  0  0  0  0  0  0  0  0  0
   11.0369   15.9781   18.3777 F   0  0  0  0  0  0  0  0  0  0  0  0
    9.0030   15.2989   18.4108 F   0  0  0  0  0  0  0  0  0  0  0  0
    7.3766   14.3382   23.7524 C   0  0  0  0  0  0  0  0  0  0  0  0
    7.2485   12.8315   24.0247 C   0  0  0  0  0  0  0  0  0  0  0  0
    7.4952   12.4459   25.4768 C   0  0  0  0  0  0  0  0  0  0  0  0
    7.6924   13.6407   26.3011 N   0  0  0  0  0  0  0  0  0  0  0  0
    9.1960   14.3784   26.4810 S   0  0  0  0  0  0  0  0  0  0  0  0
    9.0905   15.6944   25.9026 O   0  0  0  0  0  0  0  0  0  0  0  0
    9.6374   14.2183   27.8396 O   0  0  0  0  0  0  0  0  0  0  0  0
   10.2837   13.5257   25.5060 N   0  0  0  0  0  0  0  0  0  0  0  0
   10.7761   12.2383   26.0198 C   0  0  0  0  0  0  0  0  0  0  0  0
   12.2080   12.3685   26.5821 C   0  0  0  0  0  0  0  0  0  0  0  0
   13.1892   12.6417   25.4751 C   0  0  0  0  0  0  0  0  0  0  0  0
   12.5277   13.5915   24.5100 C   0  0  0  0  0  0  0  0  0  0  0  0
   11.4165   14.4096   25.1482 C   0  0  0  0  0  0  0  0  0  0  0  0
    6.5446   14.5934   26.1383 C   0  0  0  0  0  0  0  0  0  0  0  0
    6.4248   15.0878   24.6791 C   0  0  0  0  0  0  0  0  0  0  0  0
  1  2  2  0
  2  3  1  0
  4  3  1  1
  4  5  1  0
  5  6  1  0
  6  7  1  0
  7  8  1  0
  8  9  1  6
  9 10  1  0
  9 11  1  0
  2 12  1  0
 12 13  1  0
 13 14  1  0
 14 15  1  0
 15 16  1  0
 16 17  2  0
 16 18  2  0
 16 19  1  0
 19 20  1  0
 20 21  1  0
 21 22  1  0
 22 23  1  0
 23 24  1  0
 15 25  1  0
 25 26  1  0
  8  4  1  0
 26 12  1  0
 24 19  1  0
M  END
>  <energy_score>  (1004) 
-21.757334

>  <inchikey>  (1004) 
None

>  <smiles>  (1004) 
None

>  <ref_pdb>  (1004) 
A4706a

>  <alias>  (1004) 
None

>  <HIPPO Pose ID>  (1004) 
499984

>  <name>  (1004) 
P499984

>  <HIPPO Compound ID>  (1004) 
314477

>  <ref_mols>  (1004) 
A4706a,A0875a

>  <distance_score>  (1004) 
1.650054

>  <inspiration_score>  (1004) 
None

$$$$
P499987
     RDKit          3D

 26 29  0  0  0  0  0  0  0  0999 V2000
    7.3500   13.5182   21.6394 O   0  0  0  0  0  0  0  0  0  0  0  0
    7.2324   14.4486   22.4301 C   0  0  0  0  0  0  0  0  0  0  0  0
    7.6686   15.7027   22.1928 O   0  0  0  0  0  0  0  0  0  0  0  0
    8.9739   16.0015   21.5961 C   0  0  2  0  0  0  0  0  0  0  0  0
    8.9346   17.2806   20.7694 C   0  0  0  0  0  0  0  0  0  0  0  0
    9.5558   17.0312   19.5018 O   0  0  0  0  0  0  0  0  0  0  0  0
    9.7399   15.6368   19.3289 C   0  0  0  0  0  0  0  0  0  0  0  0
    9.7376   15.0131   20.7134 C   0  0  1  0  0  0  0  0  0  0  0  0
   11.1812   14.8103   21.1166 C   0  0  0  0  0  0  0  0  0  0  0  0
   11.4018   13.7496   22.1409 C   0  0  0  0  0  0  0  0  0  0  0  0
   11.8249   15.1524   22.4316 C   0  0  0  0  0  0  0  0  0  0  0  0
    6.4931   14.2320   23.7738 C   0  0  0  0  0  0  0  0  0  0  0  0
    6.8855   12.8125   24.2927 C   0  0  0  0  0  0  0  0  0  0  0  0
    7.2067   12.6400   25.7633 C   0  0  0  0  0  0  0  0  0  0  0  0
    7.8692   13.8289   26.3072 N   0  0  0  0  0  0  0  0  0  0  0  0
    9.4116   14.2878   25.7830 S   0  0  0  0  0  0  0  0  0  0  0  0
    9.4078   14.3812   24.3491 O   0  0  0  0  0  0  0  0  0  0  0  0
    9.7605   15.4480   26.5678 O   0  0  0  0  0  0  0  0  0  0  0  0
   10.4376   13.0349   26.2239 N   0  0  0  0  0  0  0  0  0  0  0  0
   11.7869   13.4699   26.6808 C   0  0  0  0  0  0  0  0  0  0  0  0
   12.8604   13.3130   25.6111 C   0  0  0  0  0  0  0  0  0  0  0  0
   12.8204   12.0379   24.8316 C   0  0  0  0  0  0  0  0  0  0  0  0
   11.7947   11.1404   25.4268 C   0  0  0  0  0  0  0  0  0  0  0  0
   10.4279   11.8024   25.3993 C   0  0  0  0  0  0  0  0  0  0  0  0
    6.8774   14.9428   26.2494 C   0  0  0  0  0  0  0  0  0  0  0  0
    6.6378   15.3692   24.8027 C   0  0  0  0  0  0  0  0  0  0  0  0
  1  2  2  0
  2  3  1  0
  4  3  1  6
  4  5  1  0
  5  6  1  0
  6  7  1  0
  7  8  1  0
  8  9  1  1
  9 10  1  0
 10 11  1  0
  2 12  1  0
 12 13  1  0
 13 14  1  0
 14 15  1  0
 15 16  1  0
 16 17  2  0
 16 18  2  0
 16 19  1  0
 19 20  1  0
 20 21  1  0
 21 22  1  0
 22 23  1  0
 23 24  1  0
 15 25  1  0
 25 26  1  0
  8  4  1  0
 11  9  1  0
 26 12  1  0
 24 19  1  0
M  END
>  <energy_score>  (1005) 
-1.534095

>  <inchikey>  (1005) 
None

>  <smiles>  (1005) 
None

>  <ref_pdb>  (1005) 
A4706a

>  <alias>  (1005) 
None

>  <HIPPO Pose ID>  (1005) 
499987

>  <name>  (1005) 
P499987

>  <HIPPO Compound ID>  (1005) 
314478

>  <ref_mols>  (1005) 
A4706a,A0875a

>  <distance_score>  (1005) 
1.487273

>  <inspiration_score>  (1005) 
None

$$$$
P499991
     RDKit          3D

 26 28  0  0  0  0  0  0  0  0999 V2000
   12.0186   14.6144   19.7196 C   0  0  0  0  0  0  0  0  0  0  0  0
   10.8940   14.8387   19.0439 C   0  0  0  0  0  0  0  0  0  0  0  0
    9.8556   15.8501   19.3824 C   0  0  0  0  0  0  0  0  0  0  0  0
    9.2138   15.9815   20.7803 C   0  0  2  0  0  0  0  0  0  0  0  0
   10.1980   16.0169   21.9241 C   0  0  0  0  0  0  0  0  0  0  0  0
   10.4850   14.6726   22.2681 O   0  0  0  0  0  0  0  0  0  0  0  0
    9.4554   13.8620   21.7157 C   0  0  0  0  0  0  0  0  0  0  0  0
    8.3769   14.7762   21.1629 C   0  0  1  0  0  0  0  0  0  0  0  0
    7.4108   15.1353   22.1643 O   0  0  0  0  0  0  0  0  0  0  0  0
    6.8033   14.0348   22.6854 C   0  0  0  0  0  0  0  0  0  0  0  0
    6.1422   13.2263   22.0523 O   0  0  0  0  0  0  0  0  0  0  0  0
    7.1607   13.9166   24.1302 C   0  0  0  0  0  0  0  0  0  0  0  0
    7.1003   12.4754   24.6699 C   0  0  0  0  0  0  0  0  0  0  0  0
    7.5508   12.4372   26.1294 C   0  0  0  0  0  0  0  0  0  0  0  0
    8.2312   13.6989   26.4175 N   0  0  0  0  0  0  0  0  0  0  0  0
    9.8635   14.0046   26.2005 S   0  0  0  0  0  0  0  0  0  0  0  0
   10.5315   13.4888   27.3655 O   0  0  0  0  0  0  0  0  0  0  0  0
    9.9897   15.3991   25.8432 O   0  0  0  0  0  0  0  0  0  0  0  0
   10.4716   13.1541   24.8802 N   0  0  0  0  0  0  0  0  0  0  0  0
   11.7841   13.6995   24.3795 C   0  0  0  0  0  0  0  0  0  0  0  0
   12.9535   13.2713   25.2497 C   0  0  0  0  0  0  0  0  0  0  0  0
   13.1545   11.7847   25.2192 C   0  0  0  0  0  0  0  0  0  0  0  0
   11.8085   11.1872   25.5038 C   0  0  0  0  0  0  0  0  0  0  0  0
   10.5441   11.6951   24.8252 C   0  0  0  0  0  0  0  0  0  0  0  0
    7.2768   14.8485   26.4224 C   0  0  0  0  0  0  0  0  0  0  0  0
    6.5127   14.8933   25.0919 C   0  0  0  0  0  0  0  0  0  0  0  0
  1  2  2  0
  2  3  1  0
  4  3  1  6
  4  5  1  0
  5  6  1  0
  6  7  1  0
  7  8  1  0
  8  9  1  1
  9 10  1  0
 10 11  2  0
 10 12  1  0
 12 13  1  0
 13 14  1  0
 14 15  1  0
 15 16  1  0
 16 17  2  0
 16 18  2  0
 16 19  1  0
 19 20  1  0
 20 21  1  0
 21 22  1  0
 22 23  1  0
 23 24  1  0
 15 25  1  0
 25 26  1  0
  8  4  1  0
 26 12  1  0
 24 19  1  0
M  END
>  <energy_score>  (1006) 
-23.787015

>  <inchikey>  (1006) 
None

>  <smiles>  (1006) 
None

>  <ref_pdb>  (1006) 
A4706a

>  <alias>  (1006) 
None

>  <HIPPO Pose ID>  (1006) 
499991

>  <name>  (1006) 
P499991

>  <HIPPO Compound ID>  (1006) 
314479

>  <ref_mols>  (1006) 
A4706a,A0875a

>  <distance_score>  (1006) 
1.296445

>  <inspiration_score>  (1006) 
None

$$$$
P499995
     RDKit          3D

 26 28  0  0  0  0  0  0  0  0999 V2000
   11.6434   15.0813   18.2693 C   0  0  0  0  0  0  0  0  0  0  0  0
   10.2824   14.7808   18.7731 C   0  0  0  0  0  0  0  0  0  0  0  0
   10.0460   15.4838   19.9664 O   0  0  0  0  0  0  0  0  0  0  0  0
    9.6482   14.6213   21.0418 C   0  0  1  0  0  0  0  0  0  0  0  0
   10.8828   13.9103   21.5962 C   0  0  0  0  0  0  0  0  0  0  0  0
   11.5714   14.8986   22.4900 C   0  0  0  0  0  0  0  0  0  0  0  0
   10.5735   16.0179   22.6474 C   0  0  0  0  0  0  0  0  0  0  0  0
    9.1913   15.5530   22.1490 C   0  0  2  0  0  0  0  0  0  0  0  0
    8.4074   15.0376   23.2529 O   0  0  0  0  0  0  0  0  0  0  0  0
    7.3281   14.2282   23.1154 C   0  0  0  0  0  0  0  0  0  0  0  0
    6.9771   13.6786   22.0758 O   0  0  0  0  0  0  0  0  0  0  0  0
    6.5535   14.0220   24.4493 C   0  0  0  0  0  0  0  0  0  0  0  0
    6.5586   12.5477   24.9193 C   0  0  0  0  0  0  0  0  0  0  0  0
    7.4605   12.1700   26.1033 C   0  0  0  0  0  0  0  0  0  0  0  0
    8.4073   13.2570   26.4438 N   0  0  0  0  0  0  0  0  0  0  0  0
    9.6881   13.4540   25.3760 S   0  0  0  0  0  0  0  0  0  0  0  0
    9.3380   12.6816   24.2080 O   0  0  0  0  0  0  0  0  0  0  0  0
   10.0192   14.8541   25.3309 O   0  0  0  0  0  0  0  0  0  0  0  0
   11.0044   12.6506   26.1067 N   0  0  0  0  0  0  0  0  0  0  0  0
   11.9010   13.5348   26.8877 C   0  0  0  0  0  0  0  0  0  0  0  0
   13.3738   13.1427   26.7991 C   0  0  0  0  0  0  0  0  0  0  0  0
   13.6048   11.6824   26.7919 C   0  0  0  0  0  0  0  0  0  0  0  0
   13.0192   11.1898   25.4874 C   0  0  0  0  0  0  0  0  0  0  0  0
   11.6625   11.7810   25.1137 C   0  0  0  0  0  0  0  0  0  0  0  0
    7.6429   14.4850   26.7689 C   0  0  0  0  0  0  0  0  0  0  0  0
    6.8593   15.0259   25.5726 C   0  0  0  0  0  0  0  0  0  0  0  0
  1  2  1  0
  2  3  1  0
  4  3  1  6
  4  5  1  0
  5  6  1  0
  6  7  1  0
  7  8  1  0
  8  9  1  1
  9 10  1  0
 10 11  2  0
 10 12  1  0
 12 13  1  0
 13 14  1  0
 14 15  1  0
 15 16  1  0
 16 17  2  0
 16 18  2  0
 16 19  1  0
 19 20  1  0
 20 21  1  0
 21 22  1  0
 22 23  1  0
 23 24  1  0
 15 25  1  0
 25 26  1  0
  8  4  1  0
 26 12  1  0
 24 19  1  0
M  END
>  <energy_score>  (1007) 
-21.753226

>  <inchikey>  (1007) 
None

>  <smiles>  (1007) 
None

>  <ref_pdb>  (1007) 
A4706a

>  <alias>  (1007) 
None

>  <HIPPO Pose ID>  (1007) 
499995

>  <name>  (1007) 
P499995

>  <HIPPO Compound ID>  (1007) 
314480

>  <ref_mols>  (1007) 
A4706a,A0875a

>  <distance_score>  (1007) 
1.423582

>  <inspiration_score>  (1007) 
None

$$$$
P499999
     RDKit          3D

 26 27  0  0  0  0  0  0  0  0999 V2000
   13.6766   11.5860   31.4830 C   0  0  0  0  0  0  0  0  0  0  0  0
   14.0547   11.6919   30.1133 O   0  0  0  0  0  0  0  0  0  0  0  0
   15.1448   10.8217   29.8055 C   0  0  0  0  0  0  0  0  0  0  0  0
   15.7263   11.1241   28.4151 C   0  0  1  0  0  0  0  0  0  0  0  0
   14.6884   11.3552   27.3918 O   0  0  0  0  0  0  0  0  0  0  0  0
   14.2490   12.6248   27.2965 C   0  0  0  0  0  0  0  0  0  0  0  0
   14.7127   13.5386   27.9710 O   0  0  0  0  0  0  0  0  0  0  0  0
   13.1277   12.9033   26.3030 C   0  0  0  0  0  0  0  0  0  0  0  0
   12.0721   13.6935   27.0931 C   0  0  0  0  0  0  0  0  0  0  0  0
   10.6717   13.3059   26.7599 C   0  0  0  0  0  0  0  0  0  0  0  0
   10.5303   13.3495   25.3237 N   0  0  0  0  0  0  0  0  0  0  0  0
    9.2287   14.1555   24.6906 S   0  0  0  0  0  0  0  0  0  0  0  0
    9.4898   14.4562   23.3078 O   0  0  0  0  0  0  0  0  0  0  0  0
    8.9008   15.1972   25.6368 O   0  0  0  0  0  0  0  0  0  0  0  0
    7.9660   13.0143   24.7514 N   0  0  0  0  0  0  0  0  0  0  0  0
    7.9187   12.1218   25.9327 C   0  0  0  0  0  0  0  0  0  0  0  0
    6.5338   11.5535   26.1745 C   0  0  0  0  0  0  0  0  0  0  0  0
    5.5691   12.6776   26.5337 C   0  0  0  0  0  0  0  0  0  0  0  0
    5.8634   13.9516   25.7411 C   0  0  0  0  0  0  0  0  0  0  0  0
    6.6365   13.6585   24.4543 C   0  0  0  0  0  0  0  0  0  0  0  0
   11.3455   12.4289   24.5415 C   0  0  0  0  0  0  0  0  0  0  0  0
   12.5110   11.8437   25.3988 C   0  0  0  0  0  0  0  0  0  0  0  0
   16.8945   12.1168   28.5475 C   0  0  0  0  0  0  0  0  0  0  0  0
   17.9786   11.4580   29.0385 F   0  0  0  0  0  0  0  0  0  0  0  0
   17.2510   12.6057   27.3441 F   0  0  0  0  0  0  0  0  0  0  0  0
   16.6631   13.1453   29.3842 F   0  0  0  0  0  0  0  0  0  0  0  0
  1  2  1  0
  2  3  1  0
  4  3  1  1
  4  5  1  0
  5  6  1  0
  6  7  2  0
  6  8  1  0
  8  9  1  0
  9 10  1  0
 10 11  1  0
 11 12  1  0
 12 13  2  0
 12 14  2  0
 12 15  1  0
 15 16  1  0
 16 17  1  0
 17 18  1  0
 18 19  1  0
 19 20  1  0
 11 21  1  0
 21 22  1  0
  4 23  1  0
 23 24  1  0
 23 25  1  0
 23 26  1  0
 22  8  1  0
 20 15  1  0
M  END
>  <energy_score>  (1008) 
-46.786091

>  <inchikey>  (1008) 
None

>  <smiles>  (1008) 
None

>  <ref_pdb>  (1008) 
A4706a

>  <alias>  (1008) 
None

>  <HIPPO Pose ID>  (1008) 
499999

>  <name>  (1008) 
P499999

>  <HIPPO Compound ID>  (1008) 
314482

>  <ref_mols>  (1008) 
A4706a,A0875a

>  <distance_score>  (1008) 
1.969439

>  <inspiration_score>  (1008) 
None

$$$$
P500002
     RDKit          3D

 26 29  0  0  0  0  0  0  0  0999 V2000
    6.8500   13.3250   22.1536 O   0  0  0  0  0  0  0  0  0  0  0  0
    6.9346   14.3228   22.8710 C   0  0  0  0  0  0  0  0  0  0  0  0
    7.8189   15.3298   22.6737 O   0  0  0  0  0  0  0  0  0  0  0  0
    8.5981   15.3003   21.4569 C   0  0  1  0  0  0  0  0  0  0  0  0
    9.3361   16.6252   21.2639 C   0  0  0  0  0  0  0  0  0  0  0  0
   10.7620   16.5285   21.8283 C   0  0  0  0  0  0  0  0  0  0  0  0
   11.5642   15.3265   21.3410 C   0  0  2  0  0  0  0  0  0  0  0  0
   11.3211   14.9511   19.8836 C   0  0  0  0  0  0  0  0  0  0  0  0
   10.0461   14.2963   19.8773 O   0  0  0  0  0  0  0  0  0  0  0  0
    9.6065   14.1555   21.2511 C   0  0  1  0  0  0  0  0  0  0  0  0
   10.9104   14.1637   22.0178 C   0  0  0  0  0  0  0  0  0  0  0  0
    5.9897   14.5102   24.0740 C   0  0  0  0  0  0  0  0  0  0  0  0
    5.7566   13.1334   24.7132 C   0  0  0  0  0  0  0  0  0  0  0  0
    7.0402   12.6337   25.3624 C   0  0  0  0  0  0  0  0  0  0  0  0
    7.6648   13.6364   26.2649 N   0  0  0  0  0  0  0  0  0  0  0  0
    9.2305   14.1835   25.9738 S   0  0  0  0  0  0  0  0  0  0  0  0
    9.6022   15.0236   27.0876 O   0  0  0  0  0  0  0  0  0  0  0  0
    9.2903   14.7264   24.6454 O   0  0  0  0  0  0  0  0  0  0  0  0
   10.2986   12.8828   26.0027 N   0  0  0  0  0  0  0  0  0  0  0  0
   11.6937   13.4463   25.9557 C   0  0  0  0  0  0  0  0  0  0  0  0
   12.6334   12.6596   25.0679 C   0  0  0  0  0  0  0  0  0  0  0  0
   12.4976   11.2108   25.4427 C   0  0  0  0  0  0  0  0  0  0  0  0
   11.0747   10.6846   25.1630 C   0  0  0  0  0  0  0  0  0  0  0  0
   10.0482   11.7864   25.0512 C   0  0  0  0  0  0  0  0  0  0  0  0
    6.7419   14.7905   26.5112 C   0  0  0  0  0  0  0  0  0  0  0  0
    6.3898   15.4905   25.1870 C   0  0  0  0  0  0  0  0  0  0  0  0
  1  2  2  0
  2  3  1  0
  4  3  1  1
  4  5  1  0
  5  6  1  0
  7  6  1  1
  7  8  1  0
  8  9  1  0
 10  9  1  6
 10 11  1  0
  2 12  1  0
 12 13  1  0
 13 14  1  0
 14 15  1  0
 15 16  1  0
 16 17  2  0
 16 18  2  0
 16 19  1  0
 19 20  1  0
 20 21  1  0
 21 22  1  0
 22 23  1  0
 23 24  1  0
 15 25  1  0
 25 26  1  0
 10  4  1  0
 26 12  1  0
 11  7  1  0
 24 19  1  0
M  END
>  <energy_score>  (1009) 
-36.976433

>  <inchikey>  (1009) 
None

>  <smiles>  (1009) 
None

>  <ref_pdb>  (1009) 
A4706a

>  <alias>  (1009) 
None

>  <HIPPO Pose ID>  (1009) 
500002

>  <name>  (1009) 
P500002

>  <HIPPO Compound ID>  (1009) 
314483

>  <ref_mols>  (1009) 
A4706a,A0875a

>  <distance_score>  (1009) 
1.684524

>  <inspiration_score>  (1009) 
None

$$$$
P500004
     RDKit          3D

 26 28  0  0  0  0  0  0  0  0999 V2000
   11.1104   14.8899   18.3529 C   0  0  0  0  0  0  0  0  0  0  0  0
    9.9713   14.8147   19.1938 O   0  0  0  0  0  0  0  0  0  0  0  0
   10.2194   15.3674   20.4503 C   0  0  2  0  0  0  0  0  0  0  0  0
   11.4268   14.7031   21.1319 C   0  0  0  0  0  0  0  0  0  0  0  0
   10.9465   14.4341   22.5271 C   0  0  1  0  0  0  0  0  0  0  0  0
   12.0352   14.4374   23.4716 N   0  0  0  0  0  0  0  0  0  0  0  0
    9.9152   15.5338   22.6972 C   0  0  0  0  0  0  0  0  0  0  0  0
    9.0531   15.3376   21.4745 C   0  0  2  0  0  0  0  0  0  0  0  0
    8.3268   14.0745   21.4647 O   0  0  0  0  0  0  0  0  0  0  0  0
    7.3531   13.6956   22.3311 C   0  0  0  0  0  0  0  0  0  0  0  0
    6.2557   13.3221   21.9267 O   0  0  0  0  0  0  0  0  0  0  0  0
    7.6719   13.6301   23.8054 C   0  0  0  0  0  0  0  0  0  0  0  0
    7.3321   12.2581   24.4239 C   0  0  0  0  0  0  0  0  0  0  0  0
    7.6600   12.1898   25.9164 C   0  0  0  0  0  0  0  0  0  0  0  0
    8.2036   13.4665   26.3699 N   0  0  0  0  0  0  0  0  0  0  0  0
    9.8036   13.8982   26.5023 S   0  0  0  0  0  0  0  0  0  0  0  0
    9.9506   14.3611   27.8602 O   0  0  0  0  0  0  0  0  0  0  0  0
   10.1503   14.8186   25.4497 O   0  0  0  0  0  0  0  0  0  0  0  0
   10.8113   12.5583   26.3346 N   0  0  0  0  0  0  0  0  0  0  0  0
   12.2023   12.8640   26.8355 C   0  0  0  0  0  0  0  0  0  0  0  0
   13.3242   12.4949   25.8971 C   0  0  0  0  0  0  0  0  0  0  0  0
   13.2184   11.0841   25.3549 C   0  0  0  0  0  0  0  0  0  0  0  0
   11.7617   10.5740   25.2649 C   0  0  0  0  0  0  0  0  0  0  0  0
   10.7960   11.7402   25.1007 C   0  0  0  0  0  0  0  0  0  0  0  0
    7.2538   14.5839   26.1283 C   0  0  0  0  0  0  0  0  0  0  0  0
    6.9713   14.7177   24.6252 C   0  0  0  0  0  0  0  0  0  0  0  0
  1  2  1  0
  3  2  1  6
  3  4  1  0
  4  5  1  0
  5  6  1  1
  5  7  1  0
  7  8  1  0
  8  9  1  1
  9 10  1  0
 10 11  2  0
 10 12  1  0
 12 13  1  0
 13 14  1  0
 14 15  1  0
 15 16  1  0
 16 17  2  0
 16 18  2  0
 16 19  1  0
 19 20  1  0
 20 21  1  0
 21 22  1  0
 22 23  1  0
 23 24  1  0
 15 25  1  0
 25 26  1  0
  8  3  1  0
 26 12  1  0
 24 19  1  0
M  END
>  <energy_score>  (1010) 
-6.656126

>  <inchikey>  (1010) 
None

>  <smiles>  (1010) 
None

>  <ref_pdb>  (1010) 
A4706a

>  <alias>  (1010) 
None

>  <HIPPO Pose ID>  (1010) 
500004

>  <name>  (1010) 
P500004

>  <HIPPO Compound ID>  (1010) 
314485

>  <ref_mols>  (1010) 
A4706a,A0875a

>  <distance_score>  (1010) 
1.232655

>  <inspiration_score>  (1010) 
None

$$$$
P500013
     RDKit          3D

 26 27  0  0  0  0  0  0  0  0999 V2000
   11.1093   14.8531   18.5776 C   0  0  0  0  0  0  0  0  0  0  0  0
   10.4417   14.7017   19.8184 O   0  0  0  0  0  0  0  0  0  0  0  0
    9.7674   15.7764   20.2971 C   0  0  0  0  0  0  0  0  0  0  0  0
    9.5543   16.8117   19.6845 O   0  0  0  0  0  0  0  0  0  0  0  0
    9.3620   15.5203   21.7391 C   0  0  1  0  0  0  0  0  0  0  0  0
    7.9873   14.8531   21.7571 C   0  0  0  0  0  0  0  0  0  0  0  0
    7.3238   15.0216   23.0313 O   0  0  0  0  0  0  0  0  0  0  0  0
    6.4230   14.0515   23.3486 C   0  0  0  0  0  0  0  0  0  0  0  0
    6.0802   13.1528   22.5835 O   0  0  0  0  0  0  0  0  0  0  0  0
    5.8684   14.1899   24.7740 C   0  0  0  0  0  0  0  0  0  0  0  0
    5.7596   12.8172   25.4665 C   0  0  0  0  0  0  0  0  0  0  0  0
    7.0634   12.2375   26.0261 C   0  0  0  0  0  0  0  0  0  0  0  0
    8.0622   13.2997   26.3072 N   0  0  0  0  0  0  0  0  0  0  0  0
    9.2592   13.5126   25.1307 S   0  0  0  0  0  0  0  0  0  0  0  0
    9.7427   14.8693   25.2073 O   0  0  0  0  0  0  0  0  0  0  0  0
    8.7422   12.9080   23.9303 O   0  0  0  0  0  0  0  0  0  0  0  0
   10.4733   12.4569   25.7322 N   0  0  0  0  0  0  0  0  0  0  0  0
   10.5406   11.2475   24.8615 C   0  0  0  0  0  0  0  0  0  0  0  0
   11.6785   10.3213   25.2428 C   0  0  0  0  0  0  0  0  0  0  0  0
   13.0132   11.0850   25.4085 C   0  0  0  0  0  0  0  0  0  0  0  0
   12.8823   12.2566   26.3590 C   0  0  0  0  0  0  0  0  0  0  0  0
   11.7632   13.1765   25.9068 C   0  0  0  0  0  0  0  0  0  0  0  0
    7.4176   14.5390   26.7936 C   0  0  0  0  0  0  0  0  0  0  0  0
    6.5793   15.1953   25.6971 C   0  0  0  0  0  0  0  0  0  0  0  0
   10.3319   14.6841   22.3940 O   0  0  0  0  0  0  0  0  0  0  0  0
   11.5808   15.3272   22.5424 C   0  0  0  0  0  0  0  0  0  0  0  0
  1  2  1  0
  2  3  1  0
  3  4  2  0
  3  5  1  0
  5  6  1  6
  6  7  1  0
  7  8  1  0
  8  9  2  0
  8 10  1  0
 10 11  1  0
 11 12  1  0
 12 13  1  0
 13 14  1  0
 14 15  2  0
 14 16  2  0
 14 17  1  0
 17 18  1  0
 18 19  1  0
 19 20  1  0
 20 21  1  0
 21 22  1  0
 13 23  1  0
 23 24  1  0
  5 25  1  0
 25 26  1  0
 24 10  1  0
 22 17  1  0
M  END
>  <energy_score>  (1011) 
-40.372024

>  <inchikey>  (1011) 
None

>  <smiles>  (1011) 
None

>  <ref_pdb>  (1011) 
A4706a

>  <alias>  (1011) 
None

>  <HIPPO Pose ID>  (1011) 
500013

>  <name>  (1011) 
P500013

>  <HIPPO Compound ID>  (1011) 
314486

>  <ref_mols>  (1011) 
A0875a,A4706a

>  <distance_score>  (1011) 
1.32336

>  <inspiration_score>  (1011) 
None

$$$$
P500014
     RDKit          3D

 26 28  0  0  0  0  0  0  0  0999 V2000
    6.0919   13.0944   22.2620 O   0  0  0  0  0  0  0  0  0  0  0  0
    6.5888   13.9171   23.0158 C   0  0  0  0  0  0  0  0  0  0  0  0
    6.8342   15.2148   22.6939 O   0  0  0  0  0  0  0  0  0  0  0  0
    7.9567   15.3508   21.7972 C   0  0  0  0  0  0  0  0  0  0  0  0
    9.2818   15.2210   22.5537 C   0  0  0  0  0  0  0  0  0  0  0  0
   10.5242   15.6234   21.8083 C   0  0  0  0  0  0  0  0  0  0  0  0
   10.9111   14.4709   21.0865 O   0  0  0  0  0  0  0  0  0  0  0  0
   11.8844   14.7599   20.0944 C   0  0  0  0  0  0  0  0  0  0  0  0
   11.2492   15.1096   18.7987 C   0  0  2  0  0  0  0  0  0  0  0  0
    9.7655   15.1498   18.6636 C   0  0  0  0  0  0  0  0  0  0  0  0
   10.5360   14.0067   18.2564 O   0  0  0  0  0  0  0  0  0  0  0  0
    7.1124   13.6172   24.3885 C   0  0  0  0  0  0  0  0  0  0  0  0
    7.5721   12.1717   24.5518 C   0  0  0  0  0  0  0  0  0  0  0  0
    8.1119   11.9304   25.9484 C   0  0  0  0  0  0  0  0  0  0  0  0
    8.4991   13.1934   26.5821 N   0  0  0  0  0  0  0  0  0  0  0  0
    9.9754   13.9772   26.3744 S   0  0  0  0  0  0  0  0  0  0  0  0
   10.1707   14.6765   27.6194 O   0  0  0  0  0  0  0  0  0  0  0  0
   10.0206   14.7151   25.1439 O   0  0  0  0  0  0  0  0  0  0  0  0
   11.1573   12.8020   26.2519 N   0  0  0  0  0  0  0  0  0  0  0  0
   12.4756   13.1508   26.8942 C   0  0  0  0  0  0  0  0  0  0  0  0
   13.6866   12.9082   25.9671 C   0  0  0  0  0  0  0  0  0  0  0  0
   13.7703   11.4815   25.4734 C   0  0  0  0  0  0  0  0  0  0  0  0
   12.3588   10.9894   25.3221 C   0  0  0  0  0  0  0  0  0  0  0  0
   11.3355   12.0698   24.9681 C   0  0  0  0  0  0  0  0  0  0  0  0
    7.3116   14.1029   26.8039 C   0  0  0  0  0  0  0  0  0  0  0  0
    6.3404   14.0766   25.6047 C   0  0  0  0  0  0  0  0  0  0  0  0
  1  2  2  0
  2  3  1  0
  3  4  1  0
  4  5  1  0
  5  6  1  0
  6  7  1  0
  7  8  1  0
  9  8  1  1
  9 10  1  0
 10 11  1  0
  2 12  1  0
 12 13  1  0
 13 14  1  0
 14 15  1  0
 15 16  1  0
 16 17  2  0
 16 18  2  0
 16 19  1  0
 19 20  1  0
 20 21  1  0
 21 22  1  0
 22 23  1  0
 23 24  1  0
 15 25  1  0
 25 26  1  0
 11  9  1  0
 26 12  1  0
 24 19  1  0
M  END
>  <energy_score>  (1012) 
-12.952014

>  <inchikey>  (1012) 
None

>  <smiles>  (1012) 
None

>  <ref_pdb>  (1012) 
A4706a

>  <alias>  (1012) 
None

>  <HIPPO Pose ID>  (1012) 
500014

>  <name>  (1012) 
P500014

>  <HIPPO Compound ID>  (1012) 
314487

>  <ref_mols>  (1012) 
A4706a,A0875a

>  <distance_score>  (1012) 
1.550466

>  <inspiration_score>  (1012) 
None

$$$$
P500016
     RDKit          3D

 26 28  0  0  0  0  0  0  0  0999 V2000
    9.8097   16.6471   18.9619 O   0  0  0  0  0  0  0  0  0  0  0  0
   10.2262   15.9690   19.8836 C   0  0  0  0  0  0  0  0  0  0  0  0
   10.4550   14.5030   19.7976 C   0  0  0  0  0  0  0  0  0  0  0  0
    9.5063   13.8752   20.6618 O   0  0  0  0  0  0  0  0  0  0  0  0
    9.3618   14.5004   21.9454 C   0  0  2  0  0  0  0  0  0  0  0  0
    7.9684   15.1836   21.9980 C   0  0  0  0  0  0  0  0  0  0  0  0
    7.3001   14.9890   23.2610 O   0  0  0  0  0  0  0  0  0  0  0  0
    6.7228   13.7779   23.4114 C   0  0  0  0  0  0  0  0  0  0  0  0
    6.7216   12.9129   22.5406 O   0  0  0  0  0  0  0  0  0  0  0  0
    6.0713   13.5472   24.7698 C   0  0  0  0  0  0  0  0  0  0  0  0
    6.4472   12.1359   25.2560 C   0  0  0  0  0  0  0  0  0  0  0  0
    7.9159   12.0448   25.6443 C   0  0  0  0  0  0  0  0  0  0  0  0
    8.3118   13.1605   26.5198 N   0  0  0  0  0  0  0  0  0  0  0  0
    9.6577   14.0759   26.1206 S   0  0  0  0  0  0  0  0  0  0  0  0
    9.7733   15.0806   27.1479 O   0  0  0  0  0  0  0  0  0  0  0  0
    9.5928   14.4643   24.7408 O   0  0  0  0  0  0  0  0  0  0  0  0
   10.9683   12.9973   26.3012 N   0  0  0  0  0  0  0  0  0  0  0  0
   12.0949   13.6867   26.9931 C   0  0  0  0  0  0  0  0  0  0  0  0
   13.4753   13.1225   26.6496 C   0  0  0  0  0  0  0  0  0  0  0  0
   13.4231   11.6532   26.5759 C   0  0  0  0  0  0  0  0  0  0  0  0
   12.5518   11.3141   25.3904 C   0  0  0  0  0  0  0  0  0  0  0  0
   11.4011   12.2886   25.0777 C   0  0  0  0  0  0  0  0  0  0  0  0
    7.1604   13.9640   27.0241 C   0  0  0  0  0  0  0  0  0  0  0  0
    6.3887   14.5796   25.8612 C   0  0  0  0  0  0  0  0  0  0  0  0
   10.4948   15.4991   22.1782 C   0  0  0  0  0  0  0  0  0  0  0  0
   10.4705   16.4713   21.1262 O   0  0  0  0  0  0  0  0  0  0  0  0
  1  2  2  0
  2  3  1  0
  3  4  1  0
  4  5  1  0
  5  6  1  6
  6  7  1  0
  7  8  1  0
  8  9  2  0
  8 10  1  0
 10 11  1  0
 11 12  1  0
 12 13  1  0
 13 14  1  0
 14 15  2  0
 14 16  2  0
 14 17  1  0
 17 18  1  0
 18 19  1  0
 19 20  1  0
 20 21  1  0
 21 22  1  0
 13 23  1  0
 23 24  1  0
  5 25  1  0
 25 26  1  0
 26  2  1  0
 24 10  1  0
 22 17  1  0
M  END
>  <energy_score>  (1013) 
-54.138309

>  <inchikey>  (1013) 
None

>  <smiles>  (1013) 
None

>  <ref_pdb>  (1013) 
A4706a

>  <alias>  (1013) 
None

>  <HIPPO Pose ID>  (1013) 
500016

>  <name>  (1013) 
P500016

>  <HIPPO Compound ID>  (1013) 
314488

>  <ref_mols>  (1013) 
A4706a,A0875a

>  <distance_score>  (1013) 
1.688132

>  <inspiration_score>  (1013) 
None

$$$$
P500019
     RDKit          3D

 26 29  0  0  0  0  0  0  0  0999 V2000
    7.0388   14.3522   21.2781 C   0  0  0  0  0  0  0  0  0  0  0  0
    7.8289   15.5540   21.7609 C   0  0  1  0  0  0  0  0  0  0  0  0
    7.6800   15.7410   23.1713 O   0  0  0  0  0  0  0  0  0  0  0  0
    6.7296   15.0387   23.8465 C   0  0  0  0  0  0  0  0  0  0  0  0
    5.5336   14.9888   23.6251 O   0  0  0  0  0  0  0  0  0  0  0  0
    7.4693   14.2488   24.8657 C   0  0  0  0  0  0  0  0  0  0  0  0
    7.3277   12.7342   24.8345 C   0  0  0  0  0  0  0  0  0  0  0  0
    8.5659   12.1406   25.5285 C   0  0  0  0  0  0  0  0  0  0  0  0
    9.0738   13.0434   26.5970 N   0  0  0  0  0  0  0  0  0  0  0  0
   10.5188   13.9228   26.4215 S   0  0  0  0  0  0  0  0  0  0  0  0
   10.5530   14.6080   25.1548 O   0  0  0  0  0  0  0  0  0  0  0  0
   10.6369   14.6677   27.6470 O   0  0  0  0  0  0  0  0  0  0  0  0
   11.7563   12.7363   26.4103 N   0  0  0  0  0  0  0  0  0  0  0  0
   12.2365   12.3720   25.0707 C   0  0  0  0  0  0  0  0  0  0  0  0
   13.2716   11.2452   25.1694 C   0  0  0  0  0  0  0  0  0  0  0  0
   14.4169   11.4283   26.1301 C   0  0  0  0  0  0  0  0  0  0  0  0
   14.2853   12.7538   26.8004 C   0  0  0  0  0  0  0  0  0  0  0  0
   12.8858   12.9714   27.3743 C   0  0  0  0  0  0  0  0  0  0  0  0
    7.9439   13.8314   27.2378 C   0  0  0  0  0  0  0  0  0  0  0  0
    7.3270   14.8101   26.2583 C   0  0  0  0  0  0  0  0  0  0  0  0
    9.2938   15.3032   21.3938 C   0  0  2  0  0  0  0  0  0  0  0  0
   10.5499   16.0354   21.9999 C   0  0  0  0  0  0  0  0  0  0  0  0
   11.2402   14.8132   21.3198 C   0  0  2  0  0  0  0  0  0  0  0  0
   10.8808   14.9419   19.8328 C   0  0  0  0  0  0  0  0  0  0  0  0
    9.4992   15.2985   19.9444 O   0  0  0  0  0  0  0  0  0  0  0  0
   10.0478   14.0309   21.9503 C   0  0  0  0  0  0  0  0  0  0  0  0
  2  1  1  1
  2  3  1  0
  3  4  1  0
  4  5  2  0
  4  6  1  0
  6  7  1  0
  7  8  1  0
  8  9  1  0
  9 10  1  0
 10 11  2  0
 10 12  2  0
 10 13  1  0
 13 14  1  0
 14 15  1  0
 15 16  1  0
 16 17  1  0
 17 18  1  0
  9 19  1  0
 19 20  1  0
  2 21  1  0
 21 22  1  1
 23 22  1  1
 23 24  1  0
 24 25  1  0
 23 26  1  0
 20  6  1  0
 21 25  1  0
 18 13  1  0
 26 21  1  0
M  END
>  <energy_score>  (1014) 
-31.373831

>  <inchikey>  (1014) 
None

>  <smiles>  (1014) 
None

>  <ref_pdb>  (1014) 
A4706a

>  <alias>  (1014) 
None

>  <HIPPO Pose ID>  (1014) 
500019

>  <name>  (1014) 
P500019

>  <HIPPO Compound ID>  (1014) 
314489

>  <ref_mols>  (1014) 
A4706a,A0875a

>  <distance_score>  (1014) 
1.805227

>  <inspiration_score>  (1014) 
None

$$$$
P500021
     RDKit          3D

 26 28  0  0  0  0  0  0  0  0999 V2000
   11.1222   15.9604   23.3443 O   0  0  0  0  0  0  0  0  0  0  0  0
   10.3275   15.5031   22.5433 C   0  0  0  0  0  0  0  0  0  0  0  0
    8.8835   15.8964   22.3526 C   0  0  0  0  0  0  0  0  0  0  0  0
    8.3393   14.8378   21.4408 C   0  0  2  0  0  0  0  0  0  0  0  0
    7.8435   13.6960   22.1756 O   0  0  0  0  0  0  0  0  0  0  0  0
    6.6638   13.8578   22.8641 C   0  0  0  0  0  0  0  0  0  0  0  0
    5.6390   14.3211   22.4038 O   0  0  0  0  0  0  0  0  0  0  0  0
    6.9383   13.4504   24.2872 C   0  0  0  0  0  0  0  0  0  0  0  0
    7.5838   12.0670   24.4298 C   0  0  0  0  0  0  0  0  0  0  0  0
    8.0124   11.7551   25.8494 C   0  0  0  0  0  0  0  0  0  0  0  0
    8.2411   12.9999   26.5750 N   0  0  0  0  0  0  0  0  0  0  0  0
    9.6159   13.9335   26.2304 S   0  0  0  0  0  0  0  0  0  0  0  0
    9.6598   14.9277   27.2735 O   0  0  0  0  0  0  0  0  0  0  0  0
    9.6179   14.3242   24.8479 O   0  0  0  0  0  0  0  0  0  0  0  0
   10.9607   12.8912   26.4103 N   0  0  0  0  0  0  0  0  0  0  0  0
   12.0877   13.6703   27.0200 C   0  0  0  0  0  0  0  0  0  0  0  0
   13.4771   13.1186   26.6786 C   0  0  0  0  0  0  0  0  0  0  0  0
   13.4555   11.6473   26.5923 C   0  0  0  0  0  0  0  0  0  0  0  0
   12.5829   11.2996   25.4077 C   0  0  0  0  0  0  0  0  0  0  0  0
   11.4089   12.2547   25.1378 C   0  0  0  0  0  0  0  0  0  0  0  0
    6.9412   13.7859   26.7321 C   0  0  0  0  0  0  0  0  0  0  0  0
    6.0343   13.7080   25.4692 C   0  0  0  0  0  0  0  0  0  0  0  0
    9.6024   14.4609   20.7010 C   0  0  1  0  0  0  0  0  0  0  0  0
    9.9196   15.3696   19.5291 C   0  0  0  0  0  0  0  0  0  0  0  0
   11.4886   14.6899   18.6501 Br  0  0  0  0  0  0  0  0  0  0  0  0
   10.6573   14.5360   21.6588 O   0  0  0  0  0  0  0  0  0  0  0  0
  1  2  2  0
  2  3  1  0
  3  4  1  0
  4  5  1  1
  5  6  1  0
  6  7  2  0
  6  8  1  0
  8  9  1  0
  9 10  1  0
 10 11  1  0
 11 12  1  0
 12 13  2  0
 12 14  2  0
 12 15  1  0
 15 16  1  0
 16 17  1  0
 17 18  1  0
 18 19  1  0
 19 20  1  0
 11 21  1  0
 21 22  1  0
  4 23  1  0
 23 24  1  6
 24 25  1  0
 23 26  1  0
 26  2  1  0
 22  8  1  0
 20 15  1  0
M  END
>  <energy_score>  (1015) 
-29.401376

>  <inchikey>  (1015) 
None

>  <smiles>  (1015) 
None

>  <ref_pdb>  (1015) 
A4706a

>  <alias>  (1015) 
None

>  <HIPPO Pose ID>  (1015) 
500021

>  <name>  (1015) 
P500021

>  <HIPPO Compound ID>  (1015) 
314490

>  <ref_mols>  (1015) 
A4706a,A0875a

>  <distance_score>  (1015) 
1.508251

>  <inspiration_score>  (1015) 
None

$$$$
P500022
     RDKit          3D

 26 27  0  0  0  0  0  0  0  0999 V2000
    7.3964   14.3304   21.2075 C   0  0  0  0  0  0  0  0  0  0  0  0
    7.6931   15.1041   22.4638 C   0  0  0  0  0  0  0  0  0  0  0  0
    7.0780   16.4791   22.2829 C   0  0  0  0  0  0  0  0  0  0  0  0
    9.2239   15.1175   22.7412 C   0  0  0  0  0  0  0  0  0  0  0  0
    9.9985   15.7146   21.6990 O   0  0  0  0  0  0  0  0  0  0  0  0
   10.6322   14.7758   20.8341 C   0  0  0  0  0  0  0  0  0  0  0  0
   10.4598   15.2200   19.3820 C   0  0  0  0  0  0  0  0  0  0  0  0
   11.2688   14.4407   18.4574 N   0  0  0  0  0  0  0  0  0  0  0  0
    6.9058   14.5620   23.5473 O   0  0  0  0  0  0  0  0  0  0  0  0
    6.9152   13.2457   23.8213 C   0  0  0  0  0  0  0  0  0  0  0  0
    7.6301   12.4164   23.2753 O   0  0  0  0  0  0  0  0  0  0  0  0
    5.8815   12.8913   24.8755 C   0  0  0  0  0  0  0  0  0  0  0  0
    6.4691   11.7711   25.7375 C   0  0  0  0  0  0  0  0  0  0  0  0
    7.5483   12.3129   26.6747 C   0  0  0  0  0  0  0  0  0  0  0  0
    7.9059   13.6875   26.2751 N   0  0  0  0  0  0  0  0  0  0  0  0
    9.3248   14.3900   26.7872 S   0  0  0  0  0  0  0  0  0  0  0  0
    9.5898   15.5171   25.9285 O   0  0  0  0  0  0  0  0  0  0  0  0
    9.2060   14.5665   28.2102 O   0  0  0  0  0  0  0  0  0  0  0  0
   10.5616   13.2575   26.5138 N   0  0  0  0  0  0  0  0  0  0  0  0
   10.8226   13.0893   25.0723 C   0  0  0  0  0  0  0  0  0  0  0  0
   11.9838   12.1607   24.8531 C   0  0  0  0  0  0  0  0  0  0  0  0
   13.2538   12.5131   25.5916 C   0  0  0  0  0  0  0  0  0  0  0  0
   12.9661   12.7914   27.0449 C   0  0  0  0  0  0  0  0  0  0  0  0
   11.7930   13.7488   27.2110 C   0  0  0  0  0  0  0  0  0  0  0  0
    6.7481   14.6187   26.4831 C   0  0  0  0  0  0  0  0  0  0  0  0
    5.5178   14.0726   25.7727 C   0  0  0  0  0  0  0  0  0  0  0  0
  1  2  1  0
  2  3  1  0
  2  4  1  0
  4  5  1  0
  5  6  1  0
  6  7  1  0
  7  8  1  0
  2  9  1  0
  9 10  1  0
 10 11  2  0
 10 12  1  0
 12 13  1  0
 13 14  1  0
 14 15  1  0
 15 16  1  0
 16 17  2  0
 16 18  2  0
 16 19  1  0
 19 20  1  0
 20 21  1  0
 21 22  1  0
 22 23  1  0
 23 24  1  0
 15 25  1  0
 25 26  1  0
 26 12  1  0
 24 19  1  0
M  END
>  <energy_score>  (1016) 
-44.128614

>  <inchikey>  (1016) 
None

>  <smiles>  (1016) 
None

>  <ref_pdb>  (1016) 
A4706a

>  <alias>  (1016) 
None

>  <HIPPO Pose ID>  (1016) 
500022

>  <name>  (1016) 
P500022

>  <HIPPO Compound ID>  (1016) 
314491

>  <ref_mols>  (1016) 
A4706a,A0875a

>  <distance_score>  (1016) 
1.686219

>  <inspiration_score>  (1016) 
None

$$$$
P500023
     RDKit          3D

 26 28  0  0  0  0  0  0  0  0999 V2000
    9.0861   18.8646   20.8324 C   0  0  0  0  0  0  0  0  0  0  0  0
    8.5727   17.6507   20.8637 C   0  0  0  0  0  0  0  0  0  0  0  0
    9.1603   16.3974   21.3153 C   0  0  1  0  0  0  0  0  0  0  0  0
    9.1589   15.5447   20.2075 O   0  0  0  0  0  0  0  0  0  0  0  0
    9.2196   14.2180   20.6680 C   0  0  0  0  0  0  0  0  0  0  0  0
    9.7025   14.0476   22.0966 C   0  0  2  0  0  0  0  0  0  0  0  0
    8.6491   14.3445   23.0959 O   0  0  0  0  0  0  0  0  0  0  0  0
    7.4765   13.6697   23.1683 C   0  0  0  0  0  0  0  0  0  0  0  0
    7.0660   12.9046   22.3035 O   0  0  0  0  0  0  0  0  0  0  0  0
    6.6944   13.8703   24.4841 C   0  0  0  0  0  0  0  0  0  0  0  0
    6.5200   12.5269   25.2319 C   0  0  0  0  0  0  0  0  0  0  0  0
    7.5096   12.2008   26.3630 C   0  0  0  0  0  0  0  0  0  0  0  0
    8.5313   13.2711   26.5664 N   0  0  0  0  0  0  0  0  0  0  0  0
    9.7961   13.2456   25.4676 S   0  0  0  0  0  0  0  0  0  0  0  0
   10.1677   14.6056   25.1680 O   0  0  0  0  0  0  0  0  0  0  0  0
    9.3848   12.2933   24.4607 O   0  0  0  0  0  0  0  0  0  0  0  0
   11.1529   12.5257   26.2037 N   0  0  0  0  0  0  0  0  0  0  0  0
   12.0388   13.4612   26.9296 C   0  0  0  0  0  0  0  0  0  0  0  0
   13.5237   13.1089   26.8041 C   0  0  0  0  0  0  0  0  0  0  0  0
   13.8212   11.6563   26.7639 C   0  0  0  0  0  0  0  0  0  0  0  0
   13.2154   11.1503   25.4833 C   0  0  0  0  0  0  0  0  0  0  0  0
   11.8353   11.7113   25.1680 C   0  0  0  0  0  0  0  0  0  0  0  0
    7.8306   14.5748   26.7039 C   0  0  0  0  0  0  0  0  0  0  0  0
    7.1486   15.0100   25.4039 C   0  0  0  0  0  0  0  0  0  0  0  0
   10.8514   15.0680   22.2367 C   0  0  0  0  0  0  0  0  0  0  0  0
   10.4560   16.3990   21.8750 O   0  0  0  0  0  0  0  0  0  0  0  0
  1  2  2  0
  3  2  1  6
  3  4  1  0
  4  5  1  0
  5  6  1  0
  6  7  1  1
  7  8  1  0
  8  9  2  0
  8 10  1  0
 10 11  1  0
 11 12  1  0
 12 13  1  0
 13 14  1  0
 14 15  2  0
 14 16  2  0
 14 17  1  0
 17 18  1  0
 18 19  1  0
 19 20  1  0
 20 21  1  0
 21 22  1  0
 13 23  1  0
 23 24  1  0
  6 25  1  0
 25 26  1  0
 26  3  1  0
 24 10  1  0
 22 17  1  0
M  END
>  <energy_score>  (1017) 
-29.816988

>  <inchikey>  (1017) 
None

>  <smiles>  (1017) 
None

>  <ref_pdb>  (1017) 
A4706a

>  <alias>  (1017) 
None

>  <HIPPO Pose ID>  (1017) 
500023

>  <name>  (1017) 
P500023

>  <HIPPO Compound ID>  (1017) 
314492

>  <ref_mols>  (1017) 
A4706a,A0875a

>  <distance_score>  (1017) 
1.709029

>  <inspiration_score>  (1017) 
None

$$$$
P500026
     RDKit          3D

 26 28  0  0  0  0  0  0  0  0999 V2000
    7.0060   15.5651   23.1898 O   0  0  0  0  0  0  0  0  0  0  0  0
    7.1441   14.3547   23.2989 C   0  0  0  0  0  0  0  0  0  0  0  0
    8.1097   13.6368   22.6750 O   0  0  0  0  0  0  0  0  0  0  0  0
    9.1711   14.3301   21.9408 C   0  0  1  0  0  0  0  0  0  0  0  0
    8.6473   15.0477   20.7020 C   0  0  0  0  0  0  0  0  0  0  0  0
    9.6088   15.7052   19.8108 N   0  0  0  0  0  0  0  0  0  0  0  0
   10.7339   14.9477   19.3079 C   0  0  0  0  0  0  0  0  0  0  0  0
   11.8166   14.6434   20.3248 C   0  0  0  0  0  0  0  0  0  0  0  0
   11.9455   15.6222   21.4778 C   0  0  0  0  0  0  0  0  0  0  0  0
   11.3559   15.1286   22.6697 O   0  0  0  0  0  0  0  0  0  0  0  0
    9.9534   15.3505   22.7520 C   0  0  0  0  0  0  0  0  0  0  0  0
    6.1842   13.4754   24.1151 C   0  0  0  0  0  0  0  0  0  0  0  0
    6.8089   12.1841   24.7238 C   0  0  0  0  0  0  0  0  0  0  0  0
    7.3274   12.4029   26.1400 C   0  0  0  0  0  0  0  0  0  0  0  0
    7.8274   13.7550   26.1239 N   0  0  0  0  0  0  0  0  0  0  0  0
    9.3749   14.2127   26.4025 S   0  0  0  0  0  0  0  0  0  0  0  0
    9.4405   15.6250   26.1184 O   0  0  0  0  0  0  0  0  0  0  0  0
    9.8155   13.7317   27.6795 O   0  0  0  0  0  0  0  0  0  0  0  0
   10.3556   13.4665   25.2688 N   0  0  0  0  0  0  0  0  0  0  0  0
   10.5012   12.0146   25.0898 C   0  0  0  0  0  0  0  0  0  0  0  0
   11.8270   11.5077   25.6626 C   0  0  0  0  0  0  0  0  0  0  0  0
   13.0920   12.1399   25.1618 C   0  0  0  0  0  0  0  0  0  0  0  0
   12.7020   13.4385   24.5230 C   0  0  0  0  0  0  0  0  0  0  0  0
   11.6709   14.1418   25.3562 C   0  0  0  0  0  0  0  0  0  0  0  0
    6.7432   14.7608   26.2189 C   0  0  0  0  0  0  0  0  0  0  0  0
    5.6168   14.3367   25.2622 C   0  0  0  0  0  0  0  0  0  0  0  0
  1  2  2  0
  2  3  1  0
  4  3  1  1
  4  5  1  0
  5  6  1  0
  6  7  1  0
  7  8  1  0
  8  9  1  0
  9 10  1  0
 10 11  1  0
  2 12  1  0
 12 13  1  0
 13 14  1  0
 14 15  1  0
 15 16  1  0
 16 17  2  0
 16 18  2  0
 16 19  1  0
 19 20  1  0
 20 21  1  0
 21 22  1  0
 22 23  1  0
 23 24  1  0
 15 25  1  0
 25 26  1  0
 11  4  1  0
 26 12  1  0
 24 19  1  0
M  END
>  <energy_score>  (1018) 
-40.302438

>  <inchikey>  (1018) 
None

>  <smiles>  (1018) 
None

>  <ref_pdb>  (1018) 
A4706a

>  <alias>  (1018) 
None

>  <HIPPO Pose ID>  (1018) 
500026

>  <name>  (1018) 
P500026

>  <HIPPO Compound ID>  (1018) 
314493

>  <ref_mols>  (1018) 
A4706a,A0875a

>  <distance_score>  (1018) 
1.83367

>  <inspiration_score>  (1018) 
None

$$$$
P500029
     RDKit          3D

 26 29  0  0  0  0  0  0  0  0999 V2000
    5.0637   13.7863   22.6267 O   0  0  0  0  0  0  0  0  0  0  0  0
    6.2698   13.7580   22.8313 C   0  0  0  0  0  0  0  0  0  0  0  0
    7.1646   13.8336   21.8017 O   0  0  0  0  0  0  0  0  0  0  0  0
    8.1568   14.8961   21.6973 C   0  0  0  0  0  0  0  0  0  0  0  0
    9.3832   14.5293   20.9034 C   0  0  1  0  0  0  0  0  0  0  0  0
    9.7564   15.4174   19.7315 C   0  0  0  0  0  0  0  0  0  0  0  0
   11.1518   14.9446   19.4706 C   0  0  0  0  0  0  0  0  0  0  0  0
   11.6780   14.7700   20.8815 C   0  0  0  0  0  0  0  0  0  0  0  0
   10.5621   14.4963   21.7356 O   0  0  0  0  0  0  0  0  0  0  0  0
    8.3839   15.8033   22.8460 C   0  0  0  0  0  0  0  0  0  0  0  0
    7.6239   16.3137   21.6851 C   0  0  0  0  0  0  0  0  0  0  0  0
    6.8799   13.5298   24.1985 C   0  0  0  0  0  0  0  0  0  0  0  0
    7.1264   12.0797   24.5789 C   0  0  0  0  0  0  0  0  0  0  0  0
    7.9250   11.9682   25.8724 C   0  0  0  0  0  0  0  0  0  0  0  0
    7.9150   13.2309   26.6225 N   0  0  0  0  0  0  0  0  0  0  0  0
    9.2055   14.3062   26.6542 S   0  0  0  0  0  0  0  0  0  0  0  0
    9.4111   14.6144   28.0449 O   0  0  0  0  0  0  0  0  0  0  0  0
    8.9847   15.3616   25.7002 O   0  0  0  0  0  0  0  0  0  0  0  0
   10.5095   13.3896   26.1088 N   0  0  0  0  0  0  0  0  0  0  0  0
   10.7897   13.6197   24.6754 C   0  0  0  0  0  0  0  0  0  0  0  0
   11.6292   12.4856   24.1862 C   0  0  0  0  0  0  0  0  0  0  0  0
   12.5024   11.8107   25.2435 C   0  0  0  0  0  0  0  0  0  0  0  0
   12.8702   12.6974   26.4112 C   0  0  0  0  0  0  0  0  0  0  0  0
   11.7515   13.6322   26.8721 C   0  0  0  0  0  0  0  0  0  0  0  0
    6.5742   13.8498   26.7034 C   0  0  0  0  0  0  0  0  0  0  0  0
    6.0925   14.2443   25.3071 C   0  0  0  0  0  0  0  0  0  0  0  0
  1  2  2  0
  2  3  1  0
  3  4  1  0
  5  4  1  1
  5  6  1  0
  6  7  1  0
  7  8  1  0
  8  9  1  0
  4 10  1  0
 10 11  1  0
  2 12  1  0
 12 13  1  0
 13 14  1  0
 14 15  1  0
 15 16  1  0
 16 17  2  0
 16 18  2  0
 16 19  1  0
 19 20  1  0
 20 21  1  0
 21 22  1  0
 22 23  1  0
 23 24  1  0
 15 25  1  0
 25 26  1  0
 11  4  1  0
 26 12  1  0
  9  5  1  0
 24 19  1  0
M  END
>  <energy_score>  (1019) 
-33.189769

>  <inchikey>  (1019) 
None

>  <smiles>  (1019) 
None

>  <ref_pdb>  (1019) 
A4706a

>  <alias>  (1019) 
None

>  <HIPPO Pose ID>  (1019) 
500029

>  <name>  (1019) 
P500029

>  <HIPPO Compound ID>  (1019) 
314495

>  <ref_mols>  (1019) 
A4706a,A0875a

>  <distance_score>  (1019) 
1.632291

>  <inspiration_score>  (1019) 
None

$$$$
P500032
     RDKit          3D

 26 29  0  0  0  0  0  0  0  0999 V2000
    6.6182   12.9116   22.7255 O   0  0  0  0  0  0  0  0  0  0  0  0
    6.4643   13.8729   23.4756 C   0  0  0  0  0  0  0  0  0  0  0  0
    6.7476   15.1482   23.1403 O   0  0  0  0  0  0  0  0  0  0  0  0
    7.2657   15.3680   21.8131 C   0  0  0  0  0  0  0  0  0  0  0  0
    8.6837   14.9229   21.5999 C   0  0  1  0  0  0  0  0  0  0  0  0
    9.4231   15.3741   20.3651 C   0  0  2  0  0  0  0  0  0  0  0  0
   10.2695   14.3977   19.7529 O   0  0  0  0  0  0  0  0  0  0  0  0
   11.6181   14.7892   19.9016 C   0  0  0  0  0  0  0  0  0  0  0  0
   11.9885   14.8188   21.3768 C   0  0  0  0  0  0  0  0  0  0  0  0
   11.0444   15.3641   22.2935 O   0  0  0  0  0  0  0  0  0  0  0  0
    9.8406   15.8811   21.7091 C   0  0  2  0  0  0  0  0  0  0  0  0
    5.8711   13.7244   24.8797 C   0  0  0  0  0  0  0  0  0  0  0  0
    6.3412   12.3959   25.4864 C   0  0  0  0  0  0  0  0  0  0  0  0
    7.8349   12.4339   25.7873 C   0  0  0  0  0  0  0  0  0  0  0  0
    8.2694   13.6752   26.4811 N   0  0  0  0  0  0  0  0  0  0  0  0
    9.4395   14.6969   25.7861 S   0  0  0  0  0  0  0  0  0  0  0  0
    8.9524   15.1110   24.5049 O   0  0  0  0  0  0  0  0  0  0  0  0
    9.7719   15.6710   26.7971 O   0  0  0  0  0  0  0  0  0  0  0  0
   10.7881   13.7714   25.5428 N   0  0  0  0  0  0  0  0  0  0  0  0
   10.7957   12.8653   24.3974 C   0  0  0  0  0  0  0  0  0  0  0  0
   11.0241   11.4845   24.9563 C   0  0  0  0  0  0  0  0  0  0  0  0
   12.5023   11.4879   25.3488 C   0  0  0  0  0  0  0  0  0  0  0  0
   12.7891   12.5358   26.4116 C   0  0  0  0  0  0  0  0  0  0  0  0
   11.5878   13.4296   26.7247 C   0  0  0  0  0  0  0  0  0  0  0  0
    7.1042   14.4491   27.0068 C   0  0  0  0  0  0  0  0  0  0  0  0
    6.1615   14.8638   25.8725 C   0  0  0  0  0  0  0  0  0  0  0  0
  1  2  2  0
  2  3  1  0
  3  4  1  0
  5  4  1  6
  5  6  1  0
  6  7  1  1
  7  8  1  0
  8  9  1  0
  9 10  1  0
 11 10  1  1
  2 12  1  0
 12 13  1  0
 13 14  1  0
 14 15  1  0
 15 16  1  0
 16 17  2  0
 16 18  2  0
 16 19  1  0
 19 20  1  0
 20 21  1  0
 21 22  1  0
 22 23  1  0
 23 24  1  0
 15 25  1  0
 25 26  1  0
 11  5  1  0
 26 12  1  0
 11  6  1  0
 24 19  1  0
M  END
>  <energy_score>  (1020) 
-92.547115

>  <inchikey>  (1020) 
None

>  <smiles>  (1020) 
None

>  <ref_pdb>  (1020) 
A4706a

>  <alias>  (1020) 
None

>  <HIPPO Pose ID>  (1020) 
500032

>  <name>  (1020) 
P500032

>  <HIPPO Compound ID>  (1020) 
314496

>  <ref_mols>  (1020) 
A4706a,A0875a

>  <distance_score>  (1020) 
1.576621

>  <inspiration_score>  (1020) 
None

$$$$
P500034
     RDKit          3D

 26 28  0  0  0  0  0  0  0  0999 V2000
   11.5876   15.0051   18.0763 N   0  0  0  0  0  0  0  0  0  0  0  0
   11.1862   14.9352   19.4607 C   0  0  0  0  0  0  0  0  0  0  0  0
    9.9397   15.7684   19.7374 C   0  0  0  0  0  0  0  0  0  0  0  0
    9.4780   15.8908   21.2133 C   0  0  2  0  0  0  0  0  0  0  0  0
   10.6339   15.8040   22.1962 C   0  0  0  0  0  0  0  0  0  0  0  0
   10.8860   14.4161   22.4184 O   0  0  0  0  0  0  0  0  0  0  0  0
    9.6717   13.7206   22.1020 C   0  0  0  0  0  0  0  0  0  0  0  0
    8.6147   14.7127   21.6324 C   0  0  1  0  0  0  0  0  0  0  0  0
    7.6890   15.0254   22.7118 O   0  0  0  0  0  0  0  0  0  0  0  0
    6.8604   13.9906   23.0070 C   0  0  0  0  0  0  0  0  0  0  0  0
    6.7584   13.0003   22.2798 O   0  0  0  0  0  0  0  0  0  0  0  0
    6.0677   14.0602   24.3146 C   0  0  0  0  0  0  0  0  0  0  0  0
    6.1146   12.6611   24.9660 C   0  0  0  0  0  0  0  0  0  0  0  0
    7.4893   12.3473   25.5465 C   0  0  0  0  0  0  0  0  0  0  0  0
    7.9880   13.4308   26.4190 N   0  0  0  0  0  0  0  0  0  0  0  0
    9.4527   14.1637   26.0553 S   0  0  0  0  0  0  0  0  0  0  0  0
    9.3708   14.6792   24.7213 O   0  0  0  0  0  0  0  0  0  0  0  0
    9.7172   15.0834   27.1376 O   0  0  0  0  0  0  0  0  0  0  0  0
   10.6911   13.0434   26.1001 N   0  0  0  0  0  0  0  0  0  0  0  0
   10.7294   11.8275   25.2682 C   0  0  0  0  0  0  0  0  0  0  0  0
   12.0717   11.1354   25.5703 C   0  0  0  0  0  0  0  0  0  0  0  0
   13.3104   11.8606   25.1541 C   0  0  0  0  0  0  0  0  0  0  0  0
   12.9161   13.2944   24.9545 C   0  0  0  0  0  0  0  0  0  0  0  0
   11.9975   13.7678   26.0748 C   0  0  0  0  0  0  0  0  0  0  0  0
    6.9330   14.4701   26.6823 C   0  0  0  0  0  0  0  0  0  0  0  0
    6.4492   15.1062   25.3667 C   0  0  0  0  0  0  0  0  0  0  0  0
  1  2  1  0
  2  3  1  0
  4  3  1  6
  4  5  1  0
  5  6  1  0
  6  7  1  0
  7  8  1  0
  8  9  1  1
  9 10  1  0
 10 11  2  0
 10 12  1  0
 12 13  1  0
 13 14  1  0
 14 15  1  0
 15 16  1  0
 16 17  2  0
 16 18  2  0
 16 19  1  0
 19 20  1  0
 20 21  1  0
 21 22  1  0
 22 23  1  0
 23 24  1  0
 15 25  1  0
 25 26  1  0
  8  4  1  0
 26 12  1  0
 24 19  1  0
M  END
>  <energy_score>  (1021) 
-40.372183

>  <inchikey>  (1021) 
None

>  <smiles>  (1021) 
None

>  <ref_pdb>  (1021) 
A4706a

>  <alias>  (1021) 
None

>  <HIPPO Pose ID>  (1021) 
500034

>  <name>  (1021) 
P500034

>  <HIPPO Compound ID>  (1021) 
314498

>  <ref_mols>  (1021) 
A0875a,A4706a

>  <distance_score>  (1021) 
1.26857

>  <inspiration_score>  (1021) 
None

$$$$
P500043
     RDKit          3D

 26 28  0  0  0  0  0  0  0  0999 V2000
    8.0269   16.8440   21.6615 C   0  0  0  0  0  0  0  0  0  0  0  0
    7.9692   15.3328   21.6741 C   0  0  2  0  0  0  0  0  0  0  0  0
    7.6084   14.9490   23.0280 O   0  0  0  0  0  0  0  0  0  0  0  0
    6.8174   13.8614   23.1828 C   0  0  0  0  0  0  0  0  0  0  0  0
    6.5258   13.0854   22.2761 O   0  0  0  0  0  0  0  0  0  0  0  0
    6.2657   13.7004   24.6107 C   0  0  0  0  0  0  0  0  0  0  0  0
    6.5387   12.2883   25.1660 C   0  0  0  0  0  0  0  0  0  0  0  0
    7.6661   12.1357   26.1853 C   0  0  0  0  0  0  0  0  0  0  0  0
    8.4826   13.3608   26.3062 N   0  0  0  0  0  0  0  0  0  0  0  0
    9.6312   13.6012   25.0997 S   0  0  0  0  0  0  0  0  0  0  0  0
    9.2279   12.7790   23.9849 O   0  0  0  0  0  0  0  0  0  0  0  0
    9.9306   15.0068   24.9961 O   0  0  0  0  0  0  0  0  0  0  0  0
   11.0173   12.8519   25.7633 N   0  0  0  0  0  0  0  0  0  0  0  0
   12.0160   12.6454   24.6898 C   0  0  0  0  0  0  0  0  0  0  0  0
   13.0693   11.6849   25.2130 C   0  0  0  0  0  0  0  0  0  0  0  0
   13.8677   12.3654   26.2938 C   0  0  0  0  0  0  0  0  0  0  0  0
   12.9375   12.9040   27.3676 C   0  0  0  0  0  0  0  0  0  0  0  0
   11.6457   13.5970   26.8835 C   0  0  0  0  0  0  0  0  0  0  0  0
    7.6367   14.5166   26.6598 C   0  0  0  0  0  0  0  0  0  0  0  0
    6.5959   14.8339   25.5931 C   0  0  0  0  0  0  0  0  0  0  0  0
    9.2979   14.7305   21.1955 C   0  0  1  0  0  0  0  0  0  0  0  0
    9.7328   15.2977   19.8291 C   0  0  0  0  0  0  0  0  0  0  0  0
   10.8927   14.6165   19.3612 O   0  0  0  0  0  0  0  0  0  0  0  0
   11.9355   14.7740   20.3149 C   0  0  0  0  0  0  0  0  0  0  0  0
   11.5415   14.3474   21.7211 C   0  0  0  0  0  0  0  0  0  0  0  0
   10.3512   15.0069   22.1409 O   0  0  0  0  0  0  0  0  0  0  0  0
  2  1  1  1
  2  3  1  0
  3  4  1  0
  4  5  2  0
  4  6  1  0
  6  7  1  0
  7  8  1  0
  8  9  1  0
  9 10  1  0
 10 11  2  0
 10 12  2  0
 10 13  1  0
 13 14  1  0
 14 15  1  0
 15 16  1  0
 16 17  1  0
 17 18  1  0
  9 19  1  0
 19 20  1  0
  2 21  1  0
 21 22  1  6
 22 23  1  0
 23 24  1  0
 24 25  1  0
 25 26  1  0
 20  6  1  0
 26 21  1  0
 18 13  1  0
M  END
>  <energy_score>  (1022) 
-85.745195

>  <inchikey>  (1022) 
None

>  <smiles>  (1022) 
None

>  <ref_pdb>  (1022) 
A4706a

>  <alias>  (1022) 
None

>  <HIPPO Pose ID>  (1022) 
500043

>  <name>  (1022) 
P500043

>  <HIPPO Compound ID>  (1022) 
314502

>  <ref_mols>  (1022) 
A4706a,A0875a

>  <distance_score>  (1022) 
1.447138

>  <inspiration_score>  (1022) 
None

$$$$
P500047
     RDKit          3D

 26 28  0  0  0  0  0  0  0  0999 V2000
    8.8435   17.3228   21.0428 C   0  0  0  0  0  0  0  0  0  0  0  0
    9.3700   15.8867   21.0529 C   0  0  1  0  0  0  0  0  0  0  0  0
    8.2914   14.8253   21.3740 C   0  0  0  0  0  0  0  0  0  0  0  0
    7.4658   15.1079   22.5326 O   0  0  0  0  0  0  0  0  0  0  0  0
    6.7444   14.0246   22.9196 C   0  0  0  0  0  0  0  0  0  0  0  0
    6.6436   13.0029   22.2394 O   0  0  0  0  0  0  0  0  0  0  0  0
    6.0205   14.1360   24.2623 C   0  0  0  0  0  0  0  0  0  0  0  0
    6.0257   12.7481   24.9419 C   0  0  0  0  0  0  0  0  0  0  0  0
    7.3938   12.3444   25.4917 C   0  0  0  0  0  0  0  0  0  0  0  0
    8.0565   13.4774   26.1798 N   0  0  0  0  0  0  0  0  0  0  0  0
    9.4659   14.0928   25.4817 S   0  0  0  0  0  0  0  0  0  0  0  0
    9.7266   15.3443   26.1546 O   0  0  0  0  0  0  0  0  0  0  0  0
    9.3821   13.9953   24.0538 O   0  0  0  0  0  0  0  0  0  0  0  0
   10.6720   13.0231   25.9610 N   0  0  0  0  0  0  0  0  0  0  0  0
   10.7585   11.7346   25.2239 C   0  0  0  0  0  0  0  0  0  0  0  0
   12.1117   11.0974   25.5665 C   0  0  0  0  0  0  0  0  0  0  0  0
   13.3335   11.8484   25.1432 C   0  0  0  0  0  0  0  0  0  0  0  0
   12.9105   13.2752   24.9244 C   0  0  0  0  0  0  0  0  0  0  0  0
   11.9835   13.7168   26.0456 C   0  0  0  0  0  0  0  0  0  0  0  0
    7.0857   14.5575   26.5353 C   0  0  0  0  0  0  0  0  0  0  0  0
    6.5167   15.1899   25.2595 C   0  0  0  0  0  0  0  0  0  0  0  0
    9.9671   15.5888   19.6545 C   0  0  0  0  0  0  0  0  0  0  0  0
   10.7485   14.4149   19.6401 O   0  0  0  0  0  0  0  0  0  0  0  0
   11.7399   14.4137   20.6590 C   0  0  0  0  0  0  0  0  0  0  0  0
   11.6624   15.5301   21.6872 C   0  0  0  0  0  0  0  0  0  0  0  0
   10.3436   15.7965   22.1214 O   0  0  0  0  0  0  0  0  0  0  0  0
  2  1  1  6
  2  3  1  0
  3  4  1  0
  4  5  1  0
  5  6  2  0
  5  7  1  0
  7  8  1  0
  8  9  1  0
  9 10  1  0
 10 11  1  0
 11 12  2  0
 11 13  2  0
 11 14  1  0
 14 15  1  0
 15 16  1  0
 16 17  1  0
 17 18  1  0
 18 19  1  0
 10 20  1  0
 20 21  1  0
  2 22  1  0
 22 23  1  0
 23 24  1  0
 24 25  1  0
 25 26  1  0
 26  2  1  0
 21  7  1  0
 19 14  1  0
M  END
>  <energy_score>  (1023) 
-59.437073

>  <inchikey>  (1023) 
None

>  <smiles>  (1023) 
None

>  <ref_pdb>  (1023) 
A4706a

>  <alias>  (1023) 
None

>  <HIPPO Pose ID>  (1023) 
500047

>  <name>  (1023) 
P500047

>  <HIPPO Compound ID>  (1023) 
314505

>  <ref_mols>  (1023) 
A4706a,A0875a

>  <distance_score>  (1023) 
1.274189

>  <inspiration_score>  (1023) 
None

$$$$
P500048
     RDKit          3D

 26 27  0  0  0  0  0  0  0  0999 V2000
   14.9080   10.0235   30.7757 C   0  0  0  0  0  0  0  0  0  0  0  0
   15.1844   10.6037   29.7601 C   0  0  0  0  0  0  0  0  0  0  0  0
   15.5115   11.3316   28.5025 C   0  0  2  0  0  0  0  0  0  0  0  0
   16.1636   12.6536   28.9107 C   0  0  0  0  0  0  0  0  0  0  0  0
   14.2326   11.5751   27.8552 O   0  0  0  0  0  0  0  0  0  0  0  0
   14.2072   12.1015   26.6068 C   0  0  0  0  0  0  0  0  0  0  0  0
   15.1937   12.3718   25.9444 O   0  0  0  0  0  0  0  0  0  0  0  0
   12.7829   12.4111   26.1687 C   0  0  0  0  0  0  0  0  0  0  0  0
   12.7999   13.4083   25.0148 C   0  0  0  0  0  0  0  0  0  0  0  0
   11.5202   14.1801   25.0475 C   0  0  0  0  0  0  0  0  0  0  0  0
   10.3938   13.2437   25.3126 N   0  0  0  0  0  0  0  0  0  0  0  0
    8.9572   14.0163   24.8774 S   0  0  0  0  0  0  0  0  0  0  0  0
    8.7423   13.8226   23.4671 O   0  0  0  0  0  0  0  0  0  0  0  0
    9.0693   15.3343   25.4576 O   0  0  0  0  0  0  0  0  0  0  0  0
    7.8003   13.1937   25.7599 N   0  0  0  0  0  0  0  0  0  0  0  0
    7.1730   12.0179   25.1260 C   0  0  0  0  0  0  0  0  0  0  0  0
    6.5810   11.1829   26.2505 C   0  0  0  0  0  0  0  0  0  0  0  0
    5.5305   11.9731   27.0279 C   0  0  0  0  0  0  0  0  0  0  0  0
    6.0746   13.3160   27.4996 C   0  0  0  0  0  0  0  0  0  0  0  0
    6.7582   14.0741   26.3681 C   0  0  0  0  0  0  0  0  0  0  0  0
   10.6565   11.8509   24.8649 C   0  0  0  0  0  0  0  0  0  0  0  0
   11.9952   11.3178   25.4834 C   0  0  0  0  0  0  0  0  0  0  0  0
   16.5385   10.5032   27.6721 C   0  0  0  0  0  0  0  0  0  0  0  0
   16.2921    9.9569   26.6017 O   0  0  0  0  0  0  0  0  0  0  0  0
   17.7353   10.4104   28.3261 O   0  0  0  0  0  0  0  0  0  0  0  0
   18.6906    9.5719   27.6796 C   0  0  0  0  0  0  0  0  0  0  0  0
  1  2  3  0
  3  2  1  0
  3  4  1  1
  3  5  1  0
  5  6  1  0
  6  7  2  0
  6  8  1  0
  8  9  1  0
  9 10  1  0
 10 11  1  0
 11 12  1  0
 12 13  2  0
 12 14  2  0
 12 15  1  0
 15 16  1  0
 16 17  1  0
 17 18  1  0
 18 19  1  0
 19 20  1  0
 11 21  1  0
 21 22  1  0
  3 23  1  0
 23 24  2  0
 23 25  1  0
 25 26  1  0
 22  8  1  0
 20 15  1  0
M  END
>  <energy_score>  (1024) 
-47.228426

>  <inchikey>  (1024) 
None

>  <smiles>  (1024) 
None

>  <ref_pdb>  (1024) 
A4706a

>  <alias>  (1024) 
None

>  <HIPPO Pose ID>  (1024) 
500048

>  <name>  (1024) 
P500048

>  <HIPPO Compound ID>  (1024) 
314506

>  <ref_mols>  (1024) 
A4706a,A0875a

>  <distance_score>  (1024) 
1.558938

>  <inspiration_score>  (1024) 
None

$$$$
P500051
     RDKit          3D

 26 28  0  0  0  0  0  0  0  0999 V2000
   12.3214   15.0328   20.4269 C   0  0  0  0  0  0  0  0  0  0  0  0
   11.2589   14.2151   21.0962 C   0  0  2  0  0  0  0  0  0  0  0  0
   10.0185   14.2958   20.2186 C   0  0  0  0  0  0  0  0  0  0  0  0
    9.4626   15.6089   20.1465 O   0  0  0  0  0  0  0  0  0  0  0  0
    9.2282   16.1555   21.4435 C   0  0  1  0  0  0  0  0  0  0  0  0
    7.8686   15.7616   22.0656 C   0  0  0  0  0  0  0  0  0  0  0  0
    7.3668   14.4580   21.7200 O   0  0  0  0  0  0  0  0  0  0  0  0
    6.5257   13.7792   22.5389 C   0  0  0  0  0  0  0  0  0  0  0  0
    5.6022   13.1265   22.0712 O   0  0  0  0  0  0  0  0  0  0  0  0
    6.8428   13.7754   24.0121 C   0  0  0  0  0  0  0  0  0  0  0  0
    6.6131   12.4197   24.7047 C   0  0  0  0  0  0  0  0  0  0  0  0
    7.2108   12.3879   26.1154 C   0  0  0  0  0  0  0  0  0  0  0  0
    7.6479   13.7271   26.5275 N   0  0  0  0  0  0  0  0  0  0  0  0
    9.1786   14.3727   26.2848 S   0  0  0  0  0  0  0  0  0  0  0  0
    9.1420   15.2528   25.1443 O   0  0  0  0  0  0  0  0  0  0  0  0
    9.5842   14.9074   27.5602 O   0  0  0  0  0  0  0  0  0  0  0  0
   10.2642   13.1642   25.9094 N   0  0  0  0  0  0  0  0  0  0  0  0
   11.6670   13.7086   25.9592 C   0  0  0  0  0  0  0  0  0  0  0  0
   12.6518   12.8266   25.1938 C   0  0  0  0  0  0  0  0  0  0  0  0
   12.2991   11.3798   25.4670 C   0  0  0  0  0  0  0  0  0  0  0  0
   10.8364   11.0549   25.0459 C   0  0  0  0  0  0  0  0  0  0  0  0
   10.0943   12.3336   24.7094 C   0  0  0  0  0  0  0  0  0  0  0  0
    6.5441   14.7171   26.3577 C   0  0  0  0  0  0  0  0  0  0  0  0
    6.1624   14.8463   24.8693 C   0  0  0  0  0  0  0  0  0  0  0  0
   10.4452   15.9721   22.3663 C   0  0  0  0  0  0  0  0  0  0  0  0
   10.9678   14.6584   22.4133 O   0  0  0  0  0  0  0  0  0  0  0  0
  2  1  1  6
  2  3  1  0
  3  4  1  0
  4  5  1  0
  5  6  1  1
  6  7  1  0
  7  8  1  0
  8  9  2  0
  8 10  1  0
 10 11  1  0
 11 12  1  0
 12 13  1  0
 13 14  1  0
 14 15  2  0
 14 16  2  0
 14 17  1  0
 17 18  1  0
 18 19  1  0
 19 20  1  0
 20 21  1  0
 21 22  1  0
 13 23  1  0
 23 24  1  0
  5 25  1  0
 25 26  1  0
 26  2  1  0
 24 10  1  0
 22 17  1  0
M  END
>  <energy_score>  (1025) 
-23.925529

>  <inchikey>  (1025) 
None

>  <smiles>  (1025) 
None

>  <ref_pdb>  (1025) 
A4706a

>  <alias>  (1025) 
None

>  <HIPPO Pose ID>  (1025) 
500051

>  <name>  (1025) 
P500051

>  <HIPPO Compound ID>  (1025) 
314507

>  <ref_mols>  (1025) 
A0875a,A4706a

>  <distance_score>  (1025) 
1.516521

>  <inspiration_score>  (1025) 
None

$$$$
P500055
     RDKit          3D

 26 28  0  0  0  0  0  0  0  0999 V2000
   11.5888   13.9226   21.9562 C   0  0  0  0  0  0  0  0  0  0  0  0
   11.3866   15.2095   21.2050 C   0  0  1  0  0  0  0  0  0  0  0  0
   10.9460   14.9904   19.7688 C   0  0  0  0  0  0  0  0  0  0  0  0
    9.8816   15.9052   19.5781 O   0  0  0  0  0  0  0  0  0  0  0  0
    9.2962   16.0749   20.8803 C   0  0  1  0  0  0  0  0  0  0  0  0
    8.7677   17.4970   20.9577 C   0  0  0  0  0  0  0  0  0  0  0  0
    8.2475   14.9500   21.1229 C   0  0  0  0  0  0  0  0  0  0  0  0
    7.1976   15.2600   22.0511 O   0  0  0  0  0  0  0  0  0  0  0  0
    6.7128   14.1234   22.6222 C   0  0  0  0  0  0  0  0  0  0  0  0
    6.0156   13.2965   22.0524 O   0  0  0  0  0  0  0  0  0  0  0  0
    7.2417   13.9743   24.0162 C   0  0  0  0  0  0  0  0  0  0  0  0
    7.5922   12.5155   24.3406 C   0  0  0  0  0  0  0  0  0  0  0  0
    7.9517   12.3320   25.8043 C   0  0  0  0  0  0  0  0  0  0  0  0
    8.4781   13.5811   26.3632 N   0  0  0  0  0  0  0  0  0  0  0  0
   10.0188   14.1775   25.9804 S   0  0  0  0  0  0  0  0  0  0  0  0
   10.1097   14.5652   24.5992 O   0  0  0  0  0  0  0  0  0  0  0  0
   10.2976   15.1454   27.0118 O   0  0  0  0  0  0  0  0  0  0  0  0
   11.0670   12.8707   26.1725 N   0  0  0  0  0  0  0  0  0  0  0  0
   11.2040   11.9429   25.0126 C   0  0  0  0  0  0  0  0  0  0  0  0
   12.3035   10.9601   25.3764 C   0  0  0  0  0  0  0  0  0  0  0  0
   13.6958   11.5144   25.4078 C   0  0  0  0  0  0  0  0  0  0  0  0
   13.5814   12.9590   25.8446 C   0  0  0  0  0  0  0  0  0  0  0  0
   12.3935   13.2044   26.8005 C   0  0  0  0  0  0  0  0  0  0  0  0
    7.3942   14.6388   26.4114 C   0  0  0  0  0  0  0  0  0  0  0  0
    6.4802   14.5978   25.1669 C   0  0  0  0  0  0  0  0  0  0  0  0
   10.3372   15.9219   21.8535 O   0  0  0  0  0  0  0  0  0  0  0  0
  2  1  1  1
  2  3  1  0
  3  4  1  0
  4  5  1  0
  5  6  1  6
  5  7  1  0
  7  8  1  0
  8  9  1  0
  9 10  2  0
  9 11  1  0
 11 12  1  0
 12 13  1  0
 13 14  1  0
 14 15  1  0
 15 16  2  0
 15 17  2  0
 15 18  1  0
 18 19  1  0
 19 20  1  0
 20 21  1  0
 21 22  1  0
 22 23  1  0
 14 24  1  0
 24 25  1  0
  5 26  1  0
 26  2  1  0
 25 11  1  0
 23 18  1  0
M  END
>  <energy_score>  (1026) 
-25.111052

>  <inchikey>  (1026) 
None

>  <smiles>  (1026) 
None

>  <ref_pdb>  (1026) 
A4706a

>  <alias>  (1026) 
None

>  <HIPPO Pose ID>  (1026) 
500055

>  <name>  (1026) 
P500055

>  <HIPPO Compound ID>  (1026) 
314508

>  <ref_mols>  (1026) 
A4706a,A0875a

>  <distance_score>  (1026) 
1.413127

>  <inspiration_score>  (1026) 
None

$$$$
P500060
     RDKit          3D

 26 27  0  0  0  0  0  0  0  0999 V2000
    9.4362   13.4257   22.2232 C   0  0  0  0  0  0  0  0  0  0  0  0
    9.0591   14.8079   22.7077 C   0  0  1  0  0  0  0  0  0  0  0  0
    9.3717   15.8430   21.6350 C   0  0  0  0  0  0  0  0  0  0  0  0
   10.7662   15.9701   21.3527 O   0  0  0  0  0  0  0  0  0  0  0  0
   11.3077   15.0800   20.3830 C   0  0  0  0  0  0  0  0  0  0  0  0
   10.8357   15.2155   18.9431 C   0  0  0  0  0  0  0  0  0  0  0  0
   11.2828   14.1297   18.2627 F   0  0  0  0  0  0  0  0  0  0  0  0
    9.4889   15.2012   18.8485 F   0  0  0  0  0  0  0  0  0  0  0  0
    7.7110   14.9172   23.2457 O   0  0  0  0  0  0  0  0  0  0  0  0
    6.7892   13.9339   23.1044 C   0  0  0  0  0  0  0  0  0  0  0  0
    6.7270   13.1577   22.1551 O   0  0  0  0  0  0  0  0  0  0  0  0
    5.8585   13.7786   24.3088 C   0  0  0  0  0  0  0  0  0  0  0  0
    6.2865   12.5541   25.1626 C   0  0  0  0  0  0  0  0  0  0  0  0
    7.1580   12.9228   26.3747 C   0  0  0  0  0  0  0  0  0  0  0  0
    7.8944   14.1332   25.9946 N   0  0  0  0  0  0  0  0  0  0  0  0
    9.3882   14.5045   26.6434 S   0  0  0  0  0  0  0  0  0  0  0  0
    9.9879   15.5048   25.7960 O   0  0  0  0  0  0  0  0  0  0  0  0
    9.2241   14.7040   28.0571 O   0  0  0  0  0  0  0  0  0  0  0  0
   10.3252   13.1252   26.4406 N   0  0  0  0  0  0  0  0  0  0  0  0
   10.2284   12.6024   25.0899 C   0  0  0  0  0  0  0  0  0  0  0  0
   11.0369   11.3605   24.9835 C   0  0  0  0  0  0  0  0  0  0  0  0
   12.5245   11.6969   25.1817 C   0  0  0  0  0  0  0  0  0  0  0  0
   12.7602   13.0496   25.8055 C   0  0  0  0  0  0  0  0  0  0  0  0
   11.7422   13.3631   26.8768 C   0  0  0  0  0  0  0  0  0  0  0  0
    6.9829   15.3151   25.9996 C   0  0  0  0  0  0  0  0  0  0  0  0
    5.7336   15.0294   25.1719 C   0  0  0  0  0  0  0  0  0  0  0  0
  2  1  1  6
  2  3  1  0
  3  4  1  0
  4  5  1  0
  5  6  1  0
  6  7  1  0
  6  8  1  0
  2  9  1  0
  9 10  1  0
 10 11  2  0
 10 12  1  0
 12 13  1  0
 13 14  1  0
 14 15  1  0
 15 16  1  0
 16 17  2  0
 16 18  2  0
 16 19  1  0
 19 20  1  0
 20 21  1  0
 21 22  1  0
 22 23  1  0
 23 24  1  0
 15 25  1  0
 25 26  1  0
 26 12  1  0
 24 19  1  0
M  END
>  <energy_score>  (1027) 
-32.424162

>  <inchikey>  (1027) 
None

>  <smiles>  (1027) 
None

>  <ref_pdb>  (1027) 
A4706a

>  <alias>  (1027) 
None

>  <HIPPO Pose ID>  (1027) 
500060

>  <name>  (1027) 
P500060

>  <HIPPO Compound ID>  (1027) 
314510

>  <ref_mols>  (1027) 
A0875a,A4706a

>  <distance_score>  (1027) 
1.652726

>  <inspiration_score>  (1027) 
None

$$$$
P500064
     RDKit          3D

 26 28  0  0  0  0  0  0  0  0999 V2000
    8.8848   17.2866   21.1384 C   0  0  0  0  0  0  0  0  0  0  0  0
    8.9164   15.7976   21.5496 C   0  0  1  0  0  0  0  0  0  0  0  0
    7.6862   15.5598   22.3256 O   0  0  0  0  0  0  0  0  0  0  0  0
    7.2239   14.3023   22.5547 C   0  0  0  0  0  0  0  0  0  0  0  0
    6.7927   13.5212   21.7203 O   0  0  0  0  0  0  0  0  0  0  0  0
    7.4090   13.9334   23.9907 C   0  0  0  0  0  0  0  0  0  0  0  0
    7.2323   12.4610   24.3439 C   0  0  0  0  0  0  0  0  0  0  0  0
    7.7265   12.1593   25.7560 C   0  0  0  0  0  0  0  0  0  0  0  0
    7.9856   13.3958   26.5081 N   0  0  0  0  0  0  0  0  0  0  0  0
    9.4710   14.1796   26.5767 S   0  0  0  0  0  0  0  0  0  0  0  0
    9.6842   15.0419   25.4402 O   0  0  0  0  0  0  0  0  0  0  0  0
    9.5239   14.7531   27.8973 O   0  0  0  0  0  0  0  0  0  0  0  0
   10.6648   12.9712   26.4876 N   0  0  0  0  0  0  0  0  0  0  0  0
   10.9129   12.4120   25.1219 C   0  0  0  0  0  0  0  0  0  0  0  0
   12.2604   12.8513   24.5846 C   0  0  0  0  0  0  0  0  0  0  0  0
   13.3758   12.3052   25.4694 C   0  0  0  0  0  0  0  0  0  0  0  0
   13.1049   12.6048   26.9316 C   0  0  0  0  0  0  0  0  0  0  0  0
   11.9070   13.5170   27.1253 C   0  0  0  0  0  0  0  0  0  0  0  0
    6.8230   14.3254   26.4200 C   0  0  0  0  0  0  0  0  0  0  0  0
    6.6716   14.8314   24.9817 C   0  0  0  0  0  0  0  0  0  0  0  0
    8.9845   14.8787   20.3318 C   0  0  0  0  0  0  0  0  0  0  0  0
    9.8280   15.3669   19.2564 N   0  0  0  0  0  0  0  0  0  0  0  0
   11.2079   14.9652   19.3969 C   0  0  0  0  0  0  0  0  0  0  0  0
   11.8123   14.8667   20.8043 C   0  0  0  0  0  0  0  0  0  0  0  0
   11.3985   15.8265   21.7671 O   0  0  0  0  0  0  0  0  0  0  0  0
   10.1679   15.5015   22.4025 C   0  0  0  0  0  0  0  0  0  0  0  0
  2  1  1  6
  2  3  1  0
  3  4  1  0
  4  5  2  0
  4  6  1  0
  6  7  1  0
  7  8  1  0
  8  9  1  0
  9 10  1  0
 10 11  2  0
 10 12  2  0
 10 13  1  0
 13 14  1  0
 14 15  1  0
 15 16  1  0
 16 17  1  0
 17 18  1  0
  9 19  1  0
 19 20  1  0
  2 21  1  0
 21 22  1  0
 22 23  1  0
 23 24  1  0
 24 25  1  0
 25 26  1  0
 26  2  1  0
 20  6  1  0
 18 13  1  0
M  END
>  <energy_score>  (1028) 
-39.758247

>  <inchikey>  (1028) 
None

>  <smiles>  (1028) 
None

>  <ref_pdb>  (1028) 
A4706a

>  <alias>  (1028) 
None

>  <HIPPO Pose ID>  (1028) 
500064

>  <name>  (1028) 
P500064

>  <HIPPO Compound ID>  (1028) 
314513

>  <ref_mols>  (1028) 
A0875a,A4706a

>  <distance_score>  (1028) 
1.677227

>  <inspiration_score>  (1028) 
None

$$$$
P500070
     RDKit          3D

 26 28  0  0  0  0  0  0  0  0999 V2000
   11.1677   14.7487   18.6071 C   0  0  0  0  0  0  0  0  0  0  0  0
   10.6891   15.2368   19.9507 C   0  0  2  0  0  0  0  0  0  0  0  0
   11.6714   14.8424   21.0652 C   0  0  0  0  0  0  0  0  0  0  0  0
   11.3123   15.3374   22.3587 O   0  0  0  0  0  0  0  0  0  0  0  0
    9.9545   15.7776   22.3673 C   0  0  0  0  0  0  0  0  0  0  0  0
    9.0222   14.8271   21.6122 C   0  0  1  0  0  0  0  0  0  0  0  0
    7.5546   15.2651   21.7714 C   0  0  0  0  0  0  0  0  0  0  0  0
    6.9952   15.1261   23.0930 O   0  0  0  0  0  0  0  0  0  0  0  0
    6.5148   13.8911   23.3847 C   0  0  0  0  0  0  0  0  0  0  0  0
    6.5579   12.9410   22.6076 O   0  0  0  0  0  0  0  0  0  0  0  0
    5.8477   13.7957   24.7606 C   0  0  0  0  0  0  0  0  0  0  0  0
    6.0089   12.3727   25.3217 C   0  0  0  0  0  0  0  0  0  0  0  0
    7.4122   12.0434   25.8150 C   0  0  0  0  0  0  0  0  0  0  0  0
    8.0353   13.1999   26.4961 N   0  0  0  0  0  0  0  0  0  0  0  0
    9.3109   13.9518   25.6964 S   0  0  0  0  0  0  0  0  0  0  0  0
    9.5126   15.2252   26.3447 O   0  0  0  0  0  0  0  0  0  0  0  0
    9.0812   13.8521   24.2853 O   0  0  0  0  0  0  0  0  0  0  0  0
   10.6496   13.0068   26.0184 N   0  0  0  0  0  0  0  0  0  0  0  0
   10.7681   11.7195   25.2919 C   0  0  0  0  0  0  0  0  0  0  0  0
   12.1588   11.1574   25.6119 C   0  0  0  0  0  0  0  0  0  0  0  0
   13.3169   11.9673   25.1233 C   0  0  0  0  0  0  0  0  0  0  0  0
   12.7907   13.3412   24.8007 C   0  0  0  0  0  0  0  0  0  0  0  0
   11.8915   13.8179   25.9274 C   0  0  0  0  0  0  0  0  0  0  0  0
    7.0142   14.1666   26.9961 C   0  0  0  0  0  0  0  0  0  0  0  0
    6.2847   14.8210   25.8186 C   0  0  0  0  0  0  0  0  0  0  0  0
    9.3540   14.7937   20.2095 O   0  0  0  0  0  0  0  0  0  0  0  0
  2  1  1  6
  2  3  1  0
  3  4  1  0
  4  5  1  0
  5  6  1  0
  6  7  1  6
  7  8  1  0
  8  9  1  0
  9 10  2  0
  9 11  1  0
 11 12  1  0
 12 13  1  0
 13 14  1  0
 14 15  1  0
 15 16  2  0
 15 17  2  0
 15 18  1  0
 18 19  1  0
 19 20  1  0
 20 21  1  0
 21 22  1  0
 22 23  1  0
 14 24  1  0
 24 25  1  0
  6 26  1  0
 26  2  1  0
 25 11  1  0
 23 18  1  0
M  END
>  <energy_score>  (1029) 
-51.295903

>  <inchikey>  (1029) 
None

>  <smiles>  (1029) 
None

>  <ref_pdb>  (1029) 
A4706a

>  <alias>  (1029) 
None

>  <HIPPO Pose ID>  (1029) 
500070

>  <name>  (1029) 
P500070

>  <HIPPO Compound ID>  (1029) 
314515

>  <ref_mols>  (1029) 
A0875a,A4706a

>  <distance_score>  (1029) 
1.40294

>  <inspiration_score>  (1029) 
None

$$$$
P500072
     RDKit          3D

 26 29  0  0  0  0  0  0  0  0999 V2000
    6.8559   12.9996   22.1961 O   0  0  0  0  0  0  0  0  0  0  0  0
    7.1712   13.7431   23.1228 C   0  0  0  0  0  0  0  0  0  0  0  0
    8.3054   14.4862   23.1335 O   0  0  0  0  0  0  0  0  0  0  0  0
    8.6843   15.2047   21.9326 C   0  0  2  0  0  0  0  0  0  0  0  0
    8.3588   14.5217   20.6435 C   0  0  0  0  0  0  0  0  0  0  0  0
    9.0747   15.1748   19.5869 O   0  0  0  0  0  0  0  0  0  0  0  0
   10.1089   15.9190   20.2009 C   0  0  0  0  0  0  0  0  0  0  0  0
   10.1689   15.3669   21.6273 C   0  0  0  0  0  0  0  0  0  0  0  0
   11.1794   14.1941   21.6181 C   0  0  0  0  0  0  0  0  0  0  0  0
   12.1965   15.1141   22.2690 C   0  0  0  0  0  0  0  0  0  0  0  0
   11.1047   16.1150   22.5495 C   0  0  0  0  0  0  0  0  0  0  0  0
    6.2851   13.7775   24.3609 C   0  0  0  0  0  0  0  0  0  0  0  0
    6.4090   12.4640   25.1643 C   0  0  0  0  0  0  0  0  0  0  0  0
    7.2870   12.5061   26.4116 C   0  0  0  0  0  0  0  0  0  0  0  0
    7.8082   13.8426   26.6255 N   0  0  0  0  0  0  0  0  0  0  0  0
    9.3467   14.3884   26.3816 S   0  0  0  0  0  0  0  0  0  0  0  0
    9.3575   15.2838   25.2563 O   0  0  0  0  0  0  0  0  0  0  0  0
    9.8014   14.8767   27.6589 O   0  0  0  0  0  0  0  0  0  0  0  0
   10.3460   13.1167   25.9911 N   0  0  0  0  0  0  0  0  0  0  0  0
   10.0546   12.3007   24.8116 C   0  0  0  0  0  0  0  0  0  0  0  0
   10.7892   10.9930   25.0459 C   0  0  0  0  0  0  0  0  0  0  0  0
   12.2690   11.2622   25.4566 C   0  0  0  0  0  0  0  0  0  0  0  0
   12.6787   12.6793   25.1556 C   0  0  0  0  0  0  0  0  0  0  0  0
   11.7699   13.6024   25.9600 C   0  0  0  0  0  0  0  0  0  0  0  0
    6.7576   14.8679   26.6143 C   0  0  0  0  0  0  0  0  0  0  0  0
    6.3035   15.0724   25.1782 C   0  0  0  0  0  0  0  0  0  0  0  0
  1  2  2  0
  2  3  1  0
  4  3  1  1
  4  5  1  0
  5  6  1  0
  6  7  1  0
  7  8  1  0
  8  9  1  0
  9 10  1  0
 10 11  1  0
  2 12  1  0
 12 13  1  0
 13 14  1  0
 14 15  1  0
 15 16  1  0
 16 17  2  0
 16 18  2  0
 16 19  1  0
 19 20  1  0
 20 21  1  0
 21 22  1  0
 22 23  1  0
 23 24  1  0
 15 25  1  0
 25 26  1  0
  8  4  1  0
 26 12  1  0
 11  8  1  0
 24 19  1  0
M  END
>  <energy_score>  (1030) 
-11.596043

>  <inchikey>  (1030) 
None

>  <smiles>  (1030) 
None

>  <ref_pdb>  (1030) 
A4706a

>  <alias>  (1030) 
None

>  <HIPPO Pose ID>  (1030) 
500072

>  <name>  (1030) 
P500072

>  <HIPPO Compound ID>  (1030) 
314518

>  <ref_mols>  (1030) 
A0875a,A4706a

>  <distance_score>  (1030) 
1.562187

>  <inspiration_score>  (1030) 
None

$$$$
P500073
     RDKit          3D

 26 29  0  0  0  0  0  0  0  0999 V2000
    6.4489   13.6768   22.3411 O   0  0  0  0  0  0  0  0  0  0  0  0
    6.7592   14.4394   23.2561 C   0  0  0  0  0  0  0  0  0  0  0  0
    7.6720   15.4446   23.1749 O   0  0  0  0  0  0  0  0  0  0  0  0
    8.1987   15.7694   21.8632 C   0  0  2  0  0  0  0  0  0  0  0  0
    8.5150   14.6435   20.8648 C   0  0  0  0  0  0  0  0  0  0  0  0
    9.5782   15.5786   20.2407 C   0  0  2  0  0  0  0  0  0  0  0  0
   10.6641   14.7573   19.7292 N   0  0  0  0  0  0  0  0  0  0  0  0
   11.8258   14.7700   20.6054 C   0  0  0  0  0  0  0  0  0  0  0  0
   11.4785   14.5241   22.0673 C   0  0  0  0  0  0  0  0  0  0  0  0
   10.7116   15.6082   22.5754 O   0  0  0  0  0  0  0  0  0  0  0  0
    9.7201   16.1589   21.6702 C   0  0  2  0  0  0  0  0  0  0  0  0
    6.0831   14.3275   24.6288 C   0  0  0  0  0  0  0  0  0  0  0  0
    5.9623   12.8443   25.0218 C   0  0  0  0  0  0  0  0  0  0  0  0
    7.2885   12.2232   25.4574 C   0  0  0  0  0  0  0  0  0  0  0  0
    8.0973   13.1581   26.2835 N   0  0  0  0  0  0  0  0  0  0  0  0
    9.5295   13.7522   25.5970 S   0  0  0  0  0  0  0  0  0  0  0  0
    9.3750   13.7833   24.1708 O   0  0  0  0  0  0  0  0  0  0  0  0
    9.9251   14.9075   26.3642 O   0  0  0  0  0  0  0  0  0  0  0  0
   10.6652   12.5175   25.9337 N   0  0  0  0  0  0  0  0  0  0  0  0
   10.5651   11.3733   24.9822 C   0  0  0  0  0  0  0  0  0  0  0  0
   11.6477   10.3331   25.2410 C   0  0  0  0  0  0  0  0  0  0  0  0
   13.0574   10.9676   25.3751 C   0  0  0  0  0  0  0  0  0  0  0  0
   13.0833   12.1188   26.3554 C   0  0  0  0  0  0  0  0  0  0  0  0
   12.0255   13.1317   25.9744 C   0  0  0  0  0  0  0  0  0  0  0  0
    7.2586   14.2323   26.8876 C   0  0  0  0  0  0  0  0  0  0  0  0
    6.6802   15.1314   25.7928 C   0  0  0  0  0  0  0  0  0  0  0  0
  1  2  2  0
  2  3  1  0
  4  3  1  1
  4  5  1  0
  6  5  1  1
  6  7  1  0
  7  8  1  0
  8  9  1  0
  9 10  1  0
 11 10  1  1
  2 12  1  0
 12 13  1  0
 13 14  1  0
 14 15  1  0
 15 16  1  0
 16 17  2  0
 16 18  2  0
 16 19  1  0
 19 20  1  0
 20 21  1  0
 21 22  1  0
 22 23  1  0
 23 24  1  0
 15 25  1  0
 25 26  1  0
 11  4  1  0
 26 12  1  0
 11  6  1  0
 24 19  1  0
M  END
>  <energy_score>  (1031) 
-52.284272

>  <inchikey>  (1031) 
None

>  <smiles>  (1031) 
None

>  <ref_pdb>  (1031) 
A4706a

>  <alias>  (1031) 
None

>  <HIPPO Pose ID>  (1031) 
500073

>  <name>  (1031) 
P500073

>  <HIPPO Compound ID>  (1031) 
314519

>  <ref_mols>  (1031) 
A4706a,A0875a

>  <distance_score>  (1031) 
1.463204

>  <inspiration_score>  (1031) 
None

$$$$
P500083
     RDKit          3D

 26 29  0  0  0  0  0  0  0  0999 V2000
    6.5096   13.1968   22.0835 O   0  0  0  0  0  0  0  0  0  0  0  0
    6.8799   14.0016   22.9410 C   0  0  0  0  0  0  0  0  0  0  0  0
    7.7392   15.0285   22.6901 O   0  0  0  0  0  0  0  0  0  0  0  0
    8.5853   14.7578   21.5522 C   0  0  2  0  0  0  0  0  0  0  0  0
    9.6174   13.7043   21.9266 C   0  0  0  0  0  0  0  0  0  0  0  0
   10.8152   14.3515   22.3757 O   0  0  0  0  0  0  0  0  0  0  0  0
   10.8967   15.5411   21.6027 C   0  0  1  0  0  0  0  0  0  0  0  0
   11.6200   15.1951   20.3593 C   0  0  0  0  0  0  0  0  0  0  0  0
   10.8126   15.3727   19.3242 C   0  0  0  0  0  0  0  0  0  0  0  0
    9.5647   15.8593   19.6251 O   0  0  0  0  0  0  0  0  0  0  0  0
    9.4940   15.8907   21.0869 C   0  0  1  0  0  0  0  0  0  0  0  0
    6.4568   13.7983   24.3918 C   0  0  0  0  0  0  0  0  0  0  0  0
    7.0997   12.4397   24.7902 C   0  0  0  0  0  0  0  0  0  0  0  0
    7.6660   12.3128   26.1832 C   0  0  0  0  0  0  0  0  0  0  0  0
    8.2618   13.5680   26.6388 N   0  0  0  0  0  0  0  0  0  0  0  0
    9.7038   14.1742   26.0022 S   0  0  0  0  0  0  0  0  0  0  0  0
   10.0827   15.2365   26.9004 O   0  0  0  0  0  0  0  0  0  0  0  0
    9.4942   14.4637   24.6157 O   0  0  0  0  0  0  0  0  0  0  0  0
   10.8370   12.9319   26.1229 N   0  0  0  0  0  0  0  0  0  0  0  0
   12.1866   13.3451   26.6331 C   0  0  0  0  0  0  0  0  0  0  0  0
   13.3251   13.0492   25.6302 C   0  0  0  0  0  0  0  0  0  0  0  0
   13.4440   11.5850   25.2726 C   0  0  0  0  0  0  0  0  0  0  0  0
   12.0671   11.0023   25.3603 C   0  0  0  0  0  0  0  0  0  0  0  0
   10.9272   11.9529   25.0057 C   0  0  0  0  0  0  0  0  0  0  0  0
    7.1836   14.5966   26.7290 C   0  0  0  0  0  0  0  0  0  0  0  0
    6.6905   14.9843   25.3379 C   0  0  0  0  0  0  0  0  0  0  0  0
  1  2  2  0
  2  3  1  0
  4  3  1  1
  4  5  1  0
  5  6  1  0
  7  6  1  1
  7  8  1  0
  8  9  2  0
  9 10  1  0
 11 10  1  6
  2 12  1  0
 12 13  1  0
 13 14  1  0
 14 15  1  0
 15 16  1  0
 16 17  2  0
 16 18  2  0
 16 19  1  0
 19 20  1  0
 20 21  1  0
 21 22  1  0
 22 23  1  0
 23 24  1  0
 15 25  1  0
 25 26  1  0
 11  4  1  0
 26 12  1  0
 11  7  1  0
 24 19  1  0
M  END
>  <energy_score>  (1032) 
-24.569683

>  <inchikey>  (1032) 
None

>  <smiles>  (1032) 
None

>  <ref_pdb>  (1032) 
A4706a

>  <alias>  (1032) 
None

>  <HIPPO Pose ID>  (1032) 
500083

>  <name>  (1032) 
P500083

>  <HIPPO Compound ID>  (1032) 
314520

>  <ref_mols>  (1032) 
A4706a,A0875a

>  <distance_score>  (1032) 
1.343817

>  <inspiration_score>  (1032) 
None

$$$$
P500090
     RDKit          3D

 26 29  0  0  0  0  0  0  0  0999 V2000
    6.5698   14.0134   21.5312 O   0  0  0  0  0  0  0  0  0  0  0  0
    7.2644   13.7337   22.5010 C   0  0  0  0  0  0  0  0  0  0  0  0
    8.6311   13.6815   22.5098 O   0  0  0  0  0  0  0  0  0  0  0  0
    9.4023   14.6766   21.7674 C   0  0  2  0  0  0  0  0  0  0  0  0
    8.7220   15.2634   20.5597 C   0  0  0  0  0  0  0  0  0  0  0  0
    9.8089   15.6750   19.5867 C   0  0  0  0  0  0  0  0  0  0  0  0
   10.8694   14.6226   19.7755 C   0  0  0  0  0  0  0  0  0  0  0  0
   10.7907   14.2621   21.2656 C   0  0  1  0  0  0  0  0  0  0  0  0
   11.7772   15.1345   22.0183 C   0  0  0  0  0  0  0  0  0  0  0  0
   11.0885   15.5998   23.1550 O   0  0  0  0  0  0  0  0  0  0  0  0
    9.7422   15.7746   22.7408 C   0  0  0  0  0  0  0  0  0  0  0  0
    6.5748   13.4413   23.8194 C   0  0  0  0  0  0  0  0  0  0  0  0
    7.2366   12.3204   24.6337 C   0  0  0  0  0  0  0  0  0  0  0  0
    7.0273   12.4813   26.1235 C   0  0  0  0  0  0  0  0  0  0  0  0
    7.3685   13.8514   26.4577 N   0  0  0  0  0  0  0  0  0  0  0  0
    8.8970   14.4874   26.6176 S   0  0  0  0  0  0  0  0  0  0  0  0
    8.8825   15.8016   26.0260 O   0  0  0  0  0  0  0  0  0  0  0  0
    9.2873   14.3267   27.9947 O   0  0  0  0  0  0  0  0  0  0  0  0
   10.0211   13.6046   25.7230 N   0  0  0  0  0  0  0  0  0  0  0  0
   11.3505   14.3103   25.8477 C   0  0  0  0  0  0  0  0  0  0  0  0
   12.5418   13.4348   25.4856 C   0  0  0  0  0  0  0  0  0  0  0  0
   12.2341   12.2622   24.6248 C   0  0  0  0  0  0  0  0  0  0  0  0
   10.9880   11.5033   25.0279 C   0  0  0  0  0  0  0  0  0  0  0  0
   10.2424   12.2259   26.1196 C   0  0  0  0  0  0  0  0  0  0  0  0
    6.3065   14.7640   26.0129 C   0  0  0  0  0  0  0  0  0  0  0  0
    6.3315   14.8047   24.5002 C   0  0  0  0  0  0  0  0  0  0  0  0
  1  2  2  0
  2  3  1  0
  4  3  1  1
  4  5  1  0
  5  6  1  0
  6  7  1  0
  8  7  1  6
  8  9  1  0
  9 10  1  0
 10 11  1  0
  2 12  1  0
 12 13  1  0
 13 14  1  0
 14 15  1  0
 15 16  1  0
 16 17  2  0
 16 18  2  0
 16 19  1  0
 19 20  1  0
 20 21  1  0
 21 22  1  0
 22 23  1  0
 23 24  1  0
 15 25  1  0
 25 26  1  0
  8  4  1  0
 26 12  1  0
 11  4  1  0
 24 19  1  0
M  END
>  <energy_score>  (1033) 
-24.774427

>  <inchikey>  (1033) 
None

>  <smiles>  (1033) 
None

>  <ref_pdb>  (1033) 
A4706a

>  <alias>  (1033) 
None

>  <HIPPO Pose ID>  (1033) 
500090

>  <name>  (1033) 
P500090

>  <HIPPO Compound ID>  (1033) 
314525

>  <ref_mols>  (1033) 
A4706a,A0875a

>  <distance_score>  (1033) 
1.694227

>  <inspiration_score>  (1033) 
None

$$$$
P500092
     RDKit          3D

 26 27  0  0  0  0  0  0  0  0999 V2000
   17.8344    9.5122   29.1499 C   0  0  0  0  0  0  0  0  0  0  0  0
   17.3253   10.4717   28.6381 C   0  0  0  0  0  0  0  0  0  0  0  0
   16.7020   11.6405   27.9985 C   0  0  0  0  0  0  0  0  0  0  0  0
   15.3791   12.0239   28.6660 C   0  0  2  0  0  0  0  0  0  0  0  0
   14.5412   12.7866   27.7546 O   0  0  0  0  0  0  0  0  0  0  0  0
   13.8894   12.0714   26.8125 C   0  0  0  0  0  0  0  0  0  0  0  0
   14.0502   10.8772   26.6052 O   0  0  0  0  0  0  0  0  0  0  0  0
   12.9701   12.9254   25.9806 C   0  0  0  0  0  0  0  0  0  0  0  0
   11.9365   13.7187   26.7680 C   0  0  0  0  0  0  0  0  0  0  0  0
   10.5279   13.1952   26.5952 C   0  0  0  0  0  0  0  0  0  0  0  0
   10.1363   13.0787   25.1779 N   0  0  0  0  0  0  0  0  0  0  0  0
    8.9628   14.1768   24.7145 S   0  0  0  0  0  0  0  0  0  0  0  0
    8.7270   14.0676   23.3002 O   0  0  0  0  0  0  0  0  0  0  0  0
    9.3179   15.4141   25.3601 O   0  0  0  0  0  0  0  0  0  0  0  0
    7.6805   13.4992   25.5428 N   0  0  0  0  0  0  0  0  0  0  0  0
    7.1857   12.1873   25.0864 C   0  0  0  0  0  0  0  0  0  0  0  0
    6.5362   11.5115   26.2892 C   0  0  0  0  0  0  0  0  0  0  0  0
    5.4301   12.3826   26.8871 C   0  0  0  0  0  0  0  0  0  0  0  0
    5.9086   13.8105   27.1534 C   0  0  0  0  0  0  0  0  0  0  0  0
    6.5802   14.4083   25.9187 C   0  0  0  0  0  0  0  0  0  0  0  0
   11.2178   12.8622   24.2140 C   0  0  0  0  0  0  0  0  0  0  0  0
   12.3077   12.0792   24.9214 C   0  0  0  0  0  0  0  0  0  0  0  0
   15.6482   12.9666   29.8299 C   0  0  0  0  0  0  0  0  0  0  0  0
   15.4598   14.1781   29.7812 O   0  0  0  0  0  0  0  0  0  0  0  0
   16.1089   12.2888   30.9139 O   0  0  0  0  0  0  0  0  0  0  0  0
   16.4160   13.1136   32.0394 C   0  0  0  0  0  0  0  0  0  0  0  0
  1  2  3  0
  2  3  1  0
  4  3  1  6
  4  5  1  0
  5  6  1  0
  6  7  2  0
  6  8  1  0
  8  9  1  0
  9 10  1  0
 10 11  1  0
 11 12  1  0
 12 13  2  0
 12 14  2  0
 12 15  1  0
 15 16  1  0
 16 17  1  0
 17 18  1  0
 18 19  1  0
 19 20  1  0
 11 21  1  0
 21 22  1  0
  4 23  1  0
 23 24  2  0
 23 25  1  0
 25 26  1  0
 22  8  1  0
 20 15  1  0
M  END
>  <energy_score>  (1034) 
-64.079564

>  <inchikey>  (1034) 
None

>  <smiles>  (1034) 
None

>  <ref_pdb>  (1034) 
A4706a

>  <alias>  (1034) 
None

>  <HIPPO Pose ID>  (1034) 
500092

>  <name>  (1034) 
P500092

>  <HIPPO Compound ID>  (1034) 
314526

>  <ref_mols>  (1034) 
A4706a,A0875a

>  <distance_score>  (1034) 
1.846002

>  <inspiration_score>  (1034) 
None

$$$$
P500103
     RDKit          3D

 26 28  0  0  0  0  0  0  0  0999 V2000
    6.7758   13.0826   22.5429 O   0  0  0  0  0  0  0  0  0  0  0  0
    7.0313   13.9195   23.4081 C   0  0  0  0  0  0  0  0  0  0  0  0
    7.9701   14.9014   23.2706 O   0  0  0  0  0  0  0  0  0  0  0  0
    8.9721   14.6128   22.2918 C   0  0  2  0  0  0  0  0  0  0  0  0
   10.3537   15.2147   22.5729 C   0  0  0  0  0  0  0  0  0  0  0  0
   10.9808   15.4357   21.3020 O   0  0  0  0  0  0  0  0  0  0  0  0
   10.0593   14.9115   20.3288 C   0  0  2  0  0  0  0  0  0  0  0  0
   10.2251   15.4528   18.9418 C   0  0  0  0  0  0  0  0  0  0  0  0
   11.4626   15.1746   18.4764 F   0  0  0  0  0  0  0  0  0  0  0  0
   10.0430   16.7882   18.9546 F   0  0  0  0  0  0  0  0  0  0  0  0
    8.6941   15.1578   20.9334 C   0  0  0  0  0  0  0  0  0  0  0  0
    6.3548   13.8963   24.7862 C   0  0  0  0  0  0  0  0  0  0  0  0
    6.3618   12.4673   25.3727 C   0  0  0  0  0  0  0  0  0  0  0  0
    7.6322   12.0173   26.1110 C   0  0  0  0  0  0  0  0  0  0  0  0
    8.4780   13.1645   26.5554 N   0  0  0  0  0  0  0  0  0  0  0  0
    9.7287   13.5736   25.5153 S   0  0  0  0  0  0  0  0  0  0  0  0
    9.4142   12.9317   24.2680 O   0  0  0  0  0  0  0  0  0  0  0  0
    9.9783   14.9886   25.6223 O   0  0  0  0  0  0  0  0  0  0  0  0
   11.1307   12.7845   26.0431 N   0  0  0  0  0  0  0  0  0  0  0  0
   11.8469   13.5135   27.1198 C   0  0  0  0  0  0  0  0  0  0  0  0
   13.1467   12.7905   27.5145 C   0  0  0  0  0  0  0  0  0  0  0  0
   14.0102   12.2961   26.3620 C   0  0  0  0  0  0  0  0  0  0  0  0
   13.1625   11.6555   25.2925 C   0  0  0  0  0  0  0  0  0  0  0  0
   12.0637   12.6116   24.8805 C   0  0  0  0  0  0  0  0  0  0  0  0
    7.6180   14.2970   26.9938 C   0  0  0  0  0  0  0  0  0  0  0  0
    6.8438   14.9156   25.8263 C   0  0  0  0  0  0  0  0  0  0  0  0
  1  2  2  0
  2  3  1  0
  4  3  1  1
  4  5  1  0
  5  6  1  0
  6  7  1  0
  7  8  1  6
  8  9  1  0
  8 10  1  0
  7 11  1  0
  2 12  1  0
 12 13  1  0
 13 14  1  0
 14 15  1  0
 15 16  1  0
 16 17  2  0
 16 18  2  0
 16 19  1  0
 19 20  1  0
 20 21  1  0
 21 22  1  0
 22 23  1  0
 23 24  1  0
 15 25  1  0
 25 26  1  0
 11  4  1  0
 26 12  1  0
 24 19  1  0
M  END
>  <energy_score>  (1035) 
-36.987941

>  <inchikey>  (1035) 
None

>  <smiles>  (1035) 
None

>  <ref_pdb>  (1035) 
A4706a

>  <alias>  (1035) 
None

>  <HIPPO Pose ID>  (1035) 
500103

>  <name>  (1035) 
P500103

>  <HIPPO Compound ID>  (1035) 
314529

>  <ref_mols>  (1035) 
A0875a,A4706a

>  <distance_score>  (1035) 
1.443051

>  <inspiration_score>  (1035) 
None

$$$$
P500110
     RDKit          3D

 26 28  0  0  0  0  0  0  0  0999 V2000
   10.9769   14.6517   18.8988 N   0  0  0  0  0  0  0  0  0  0  0  0
   10.0077   15.7251   19.1395 C   0  0  0  0  0  0  0  0  0  0  0  0
    9.5720   16.0599   20.5910 C   0  0  2  0  0  0  0  0  0  0  0  0
   10.7875   16.3610   21.2904 O   0  0  0  0  0  0  0  0  0  0  0  0
   11.0328   15.5969   22.4433 C   0  0  0  0  0  0  0  0  0  0  0  0
   10.9077   14.1408   22.1240 C   0  0  0  0  0  0  0  0  0  0  0  0
    9.5425   13.7934   21.5880 C   0  0  0  0  0  0  0  0  0  0  0  0
    8.6724   14.9590   21.1794 C   0  0  1  0  0  0  0  0  0  0  0  0
    7.8685   15.3743   22.2966 O   0  0  0  0  0  0  0  0  0  0  0  0
    6.9770   14.3991   22.6741 C   0  0  0  0  0  0  0  0  0  0  0  0
    6.1506   13.8611   21.9524 O   0  0  0  0  0  0  0  0  0  0  0  0
    7.2482   14.0166   24.1000 C   0  0  0  0  0  0  0  0  0  0  0  0
    7.0777   12.5413   24.4434 C   0  0  0  0  0  0  0  0  0  0  0  0
    7.7382   12.1988   25.7782 C   0  0  0  0  0  0  0  0  0  0  0  0
    8.0660   13.4078   26.5499 N   0  0  0  0  0  0  0  0  0  0  0  0
    9.5684   14.1737   26.5298 S   0  0  0  0  0  0  0  0  0  0  0  0
    9.6138   14.9072   27.7696 O   0  0  0  0  0  0  0  0  0  0  0  0
    9.8167   14.8705   25.2933 O   0  0  0  0  0  0  0  0  0  0  0  0
   10.7472   12.9398   26.6239 N   0  0  0  0  0  0  0  0  0  0  0  0
   11.0596   12.2694   25.3259 C   0  0  0  0  0  0  0  0  0  0  0  0
   12.4289   12.6896   24.8195 C   0  0  0  0  0  0  0  0  0  0  0  0
   13.5276   12.2254   25.7501 C   0  0  0  0  0  0  0  0  0  0  0  0
   13.1939   12.6220   27.1769 C   0  0  0  0  0  0  0  0  0  0  0  0
   11.9691   13.5270   27.2778 C   0  0  0  0  0  0  0  0  0  0  0  0
    6.9072   14.3575   26.5672 C   0  0  0  0  0  0  0  0  0  0  0  0
    6.6507   14.9200   25.1640 C   0  0  0  0  0  0  0  0  0  0  0  0
  1  2  1  0
  3  2  1  6
  3  4  1  0
  4  5  1  0
  5  6  1  0
  6  7  1  0
  7  8  1  0
  8  9  1  1
  9 10  1  0
 10 11  2  0
 10 12  1  0
 12 13  1  0
 13 14  1  0
 14 15  1  0
 15 16  1  0
 16 17  2  0
 16 18  2  0
 16 19  1  0
 19 20  1  0
 20 21  1  0
 21 22  1  0
 22 23  1  0
 23 24  1  0
 15 25  1  0
 25 26  1  0
  8  3  1  0
 26 12  1  0
 24 19  1  0
M  END
>  <energy_score>  (1036) 
-33.994099

>  <inchikey>  (1036) 
None

>  <smiles>  (1036) 
None

>  <ref_pdb>  (1036) 
A4706a

>  <alias>  (1036) 
None

>  <HIPPO Pose ID>  (1036) 
500110

>  <name>  (1036) 
P500110

>  <HIPPO Compound ID>  (1036) 
314531

>  <ref_mols>  (1036) 
A4706a,A0875a

>  <distance_score>  (1036) 
1.488481

>  <inspiration_score>  (1036) 
None

$$$$
P500113
     RDKit          3D

 26 29  0  0  0  0  0  0  0  0999 V2000
    6.9263   16.1180   24.1048 O   0  0  0  0  0  0  0  0  0  0  0  0
    7.0937   14.9125   23.9801 C   0  0  0  0  0  0  0  0  0  0  0  0
    7.9017   14.3438   23.0518 O   0  0  0  0  0  0  0  0  0  0  0  0
    8.6789   15.2140   22.2002 C   0  0  1  0  0  0  0  0  0  0  0  0
   10.0808   15.5980   22.6526 C   0  0  0  0  0  0  0  0  0  0  0  0
   10.6308   16.1516   21.4548 O   0  0  0  0  0  0  0  0  0  0  0  0
   10.3586   15.1583   20.4502 C   0  0  0  0  0  0  0  0  0  0  0  0
   10.3956   15.4249   18.9428 C   0  0  0  0  0  0  0  0  0  0  0  0
   11.2476   14.2508   18.7416 O   0  0  0  0  0  0  0  0  0  0  0  0
   11.6490   14.3777   20.1268 C   0  0  0  0  0  0  0  0  0  0  0  0
    9.0878   14.4542   20.9420 C   0  0  0  0  0  0  0  0  0  0  0  0
    6.3507   13.9241   24.8912 C   0  0  0  0  0  0  0  0  0  0  0  0
    6.7245   12.4339   24.8507 C   0  0  0  0  0  0  0  0  0  0  0  0
    7.6272   11.9728   26.0051 C   0  0  0  0  0  0  0  0  0  0  0  0
    8.5632   13.0563   26.3958 N   0  0  0  0  0  0  0  0  0  0  0  0
    9.7737   13.3757   25.2753 S   0  0  0  0  0  0  0  0  0  0  0  0
    9.9767   14.7995   25.2102 O   0  0  0  0  0  0  0  0  0  0  0  0
    9.4986   12.5740   24.1078 O   0  0  0  0  0  0  0  0  0  0  0  0
   11.2018   12.7373   25.9076 N   0  0  0  0  0  0  0  0  0  0  0  0
   12.2258   12.6494   24.8254 C   0  0  0  0  0  0  0  0  0  0  0  0
   13.2934   11.6868   25.3113 C   0  0  0  0  0  0  0  0  0  0  0  0
   14.0465   12.3290   26.4593 C   0  0  0  0  0  0  0  0  0  0  0  0
   13.0869   12.8332   27.5285 C   0  0  0  0  0  0  0  0  0  0  0  0
   11.7854   13.5006   27.0363 C   0  0  0  0  0  0  0  0  0  0  0  0
    7.8273   14.2379   26.9545 C   0  0  0  0  0  0  0  0  0  0  0  0
    6.4344   14.4120   26.3413 C   0  0  0  0  0  0  0  0  0  0  0  0
  1  2  2  0
  2  3  1  0
  4  3  1  1
  4  5  1  0
  5  6  1  0
  6  7  1  0
  7  8  1  0
  8  9  1  0
  9 10  1  0
  7 11  1  0
  2 12  1  0
 12 13  1  0
 13 14  1  0
 14 15  1  0
 15 16  1  0
 16 17  2  0
 16 18  2  0
 16 19  1  0
 19 20  1  0
 20 21  1  0
 21 22  1  0
 22 23  1  0
 23 24  1  0
 15 25  1  0
 25 26  1  0
 11  4  1  0
 26 12  1  0
 10  7  1  0
 24 19  1  0
M  END
>  <energy_score>  (1037) 
-50.925043

>  <inchikey>  (1037) 
None

>  <smiles>  (1037) 
None

>  <ref_pdb>  (1037) 
A4706a

>  <alias>  (1037) 
None

>  <HIPPO Pose ID>  (1037) 
500113

>  <name>  (1037) 
P500113

>  <HIPPO Compound ID>  (1037) 
314532

>  <ref_mols>  (1037) 
A4706a,A0875a

>  <distance_score>  (1037) 
1.594112

>  <inspiration_score>  (1037) 
None

$$$$
P500119
     RDKit          3D

 26 29  0  0  0  0  0  0  0  0999 V2000
   10.5709   15.2432   18.7855 C   0  0  0  0  0  0  0  0  0  0  0  0
    9.7569   16.1495   19.5236 O   0  0  0  0  0  0  0  0  0  0  0  0
    9.4843   15.9697   20.9427 C   0  0  1  0  0  0  0  0  0  0  0  0
    8.4054   14.9105   21.3904 C   0  0  2  0  0  0  0  0  0  0  0  0
    7.6235   15.0720   22.6226 O   0  0  0  0  0  0  0  0  0  0  0  0
    6.8618   13.9743   22.9084 C   0  0  0  0  0  0  0  0  0  0  0  0
    6.5715   13.1192   22.0694 O   0  0  0  0  0  0  0  0  0  0  0  0
    6.4519   13.7602   24.3749 C   0  0  0  0  0  0  0  0  0  0  0  0
    7.0037   12.3603   24.7982 C   0  0  0  0  0  0  0  0  0  0  0  0
    7.7358   12.2076   26.1278 C   0  0  0  0  0  0  0  0  0  0  0  0
    8.3182   13.4784   26.6027 N   0  0  0  0  0  0  0  0  0  0  0  0
    9.6659   14.0469   25.7678 S   0  0  0  0  0  0  0  0  0  0  0  0
    9.3739   13.8686   24.3763 O   0  0  0  0  0  0  0  0  0  0  0  0
    9.9812   15.3547   26.2899 O   0  0  0  0  0  0  0  0  0  0  0  0
   10.9499   12.9728   26.1631 N   0  0  0  0  0  0  0  0  0  0  0  0
   11.7225   12.5835   24.9406 C   0  0  0  0  0  0  0  0  0  0  0  0
   12.8736   11.6589   25.2926 C   0  0  0  0  0  0  0  0  0  0  0  0
   13.8376   12.2895   26.2613 C   0  0  0  0  0  0  0  0  0  0  0  0
   13.1013   12.7784   27.4848 C   0  0  0  0  0  0  0  0  0  0  0  0
   11.8390   13.5898   27.1900 C   0  0  0  0  0  0  0  0  0  0  0  0
    7.2181   14.4826   26.7144 C   0  0  0  0  0  0  0  0  0  0  0  0
    6.7373   14.9221   25.3345 C   0  0  0  0  0  0  0  0  0  0  0  0
    9.5874   13.9450   21.5257 C   0  0  0  0  0  0  0  0  0  0  0  0
   10.4263   15.1375   21.7210 C   0  0  0  0  0  0  0  0  0  0  0  0
   11.9167   15.0607   21.6961 C   0  0  0  0  0  0  0  0  0  0  0  0
   11.2191   15.6426   22.8654 C   0  0  0  0  0  0  0  0  0  0  0  0
  1  2  1  0
  3  2  1  6
  3  4  1  0
  4  5  1  1
  5  6  1  0
  6  7  2  0
  6  8  1  0
  8  9  1  0
  9 10  1  0
 10 11  1  0
 11 12  1  0
 12 13  2  0
 12 14  2  0
 12 15  1  0
 15 16  1  0
 16 17  1  0
 17 18  1  0
 18 19  1  0
 19 20  1  0
 11 21  1  0
 21 22  1  0
  4 23  1  0
 23 24  1  0
 24 25  1  0
 25 26  1  0
 24  3  1  0
 22  8  1  0
 26 24  1  0
 20 15  1  0
M  END
>  <energy_score>  (1038) 
-26.044791

>  <inchikey>  (1038) 
None

>  <smiles>  (1038) 
None

>  <ref_pdb>  (1038) 
A4706a

>  <alias>  (1038) 
None

>  <HIPPO Pose ID>  (1038) 
500119

>  <name>  (1038) 
P500119

>  <HIPPO Compound ID>  (1038) 
314534

>  <ref_mols>  (1038) 
A4706a,A0875a

>  <distance_score>  (1038) 
1.560608

>  <inspiration_score>  (1038) 
None

$$$$
P500120
     RDKit          3D

 26 29  0  0  0  0  0  0  0  0999 V2000
    6.7087   13.2702   22.0833 O   0  0  0  0  0  0  0  0  0  0  0  0
    7.1998   13.9652   22.9751 C   0  0  0  0  0  0  0  0  0  0  0  0
    8.0718   14.9917   22.7690 O   0  0  0  0  0  0  0  0  0  0  0  0
    8.7116   14.9444   21.4847 C   0  0  2  0  0  0  0  0  0  0  0  0
    9.7499   13.8289   21.4514 C   0  0  0  0  0  0  0  0  0  0  0  0
   11.1423   14.3070   21.0280 C   0  0  1  0  0  0  0  0  0  0  0  0
   11.0322   14.8406   19.5953 C   0  0  0  0  0  0  0  0  0  0  0  0
    9.9432   15.9080   19.5735 C   0  0  0  0  0  0  0  0  0  0  0  0
    9.4442   16.2015   21.0073 C   0  0  2  0  0  0  0  0  0  0  0  0
   10.5866   16.4972   21.8228 O   0  0  0  0  0  0  0  0  0  0  0  0
   11.5417   15.4524   21.9262 C   0  0  0  0  0  0  0  0  0  0  0  0
    6.9251   13.6222   24.4314 C   0  0  0  0  0  0  0  0  0  0  0  0
    7.6567   12.2740   24.6619 C   0  0  0  0  0  0  0  0  0  0  0  0
    8.3106   12.0493   26.0075 C   0  0  0  0  0  0  0  0  0  0  0  0
    8.8397   13.2960   26.5764 N   0  0  0  0  0  0  0  0  0  0  0  0
   10.2368   13.9936   25.9244 S   0  0  0  0  0  0  0  0  0  0  0  0
   10.0515   14.0871   24.5022 O   0  0  0  0  0  0  0  0  0  0  0  0
   10.5056   15.1633   26.7179 O   0  0  0  0  0  0  0  0  0  0  0  0
   11.4454   12.8151   26.2249 N   0  0  0  0  0  0  0  0  0  0  0  0
   12.5442   13.2143   27.1391 C   0  0  0  0  0  0  0  0  0  0  0  0
   13.9397   12.9581   26.5717 C   0  0  0  0  0  0  0  0  0  0  0  0
   14.1203   11.5168   26.2641 C   0  0  0  0  0  0  0  0  0  0  0  0
   13.0713   11.1535   25.2493 C   0  0  0  0  0  0  0  0  0  0  0  0
   11.8998   12.1278   25.0086 C   0  0  0  0  0  0  0  0  0  0  0  0
    7.7154   14.2584   26.7717 C   0  0  0  0  0  0  0  0  0  0  0  0
    7.2036   14.7528   25.4282 C   0  0  0  0  0  0  0  0  0  0  0  0
  1  2  2  0
  2  3  1  0
  4  3  1  1
  4  5  1  0
  6  5  1  1
  6  7  1  0
  7  8  1  0
  9  8  1  6
  9 10  1  0
 10 11  1  0
  2 12  1  0
 12 13  1  0
 13 14  1  0
 14 15  1  0
 15 16  1  0
 16 17  2  0
 16 18  2  0
 16 19  1  0
 19 20  1  0
 20 21  1  0
 21 22  1  0
 22 23  1  0
 23 24  1  0
 15 25  1  0
 25 26  1  0
  9  4  1  0
 26 12  1  0
 11  6  1  0
 24 19  1  0
M  END
>  <energy_score>  (1039) 
-43.520825

>  <inchikey>  (1039) 
None

>  <smiles>  (1039) 
None

>  <ref_pdb>  (1039) 
A4706a

>  <alias>  (1039) 
None

>  <HIPPO Pose ID>  (1039) 
500120

>  <name>  (1039) 
P500120

>  <HIPPO Compound ID>  (1039) 
314535

>  <ref_mols>  (1039) 
A4706a,A0875a

>  <distance_score>  (1039) 
1.423581

>  <inspiration_score>  (1039) 
None

$$$$
P500125
     RDKit          3D

 26 28  0  0  0  0  0  0  0  0999 V2000
   11.4408   16.1807   21.4533 C   0  0  0  0  0  0  0  0  0  0  0  0
   10.2447   15.6228   20.7068 C   0  0  0  0  0  0  0  0  0  0  0  0
   10.0770   16.1056   19.2793 C   0  0  0  0  0  0  0  0  0  0  0  0
   10.5412   14.1521   20.6415 C   0  0  0  0  0  0  0  0  0  0  0  0
   10.4318   13.5611   21.9201 O   0  0  0  0  0  0  0  0  0  0  0  0
    9.1519   13.7410   22.4887 C   0  0  0  0  0  0  0  0  0  0  0  0
    8.1699   14.6788   21.7542 C   0  0  1  0  0  0  0  0  0  0  0  0
    7.0119   15.0162   22.5338 O   0  0  0  0  0  0  0  0  0  0  0  0
    6.3789   13.9164   23.0151 C   0  0  0  0  0  0  0  0  0  0  0  0
    5.8596   13.0630   22.3166 O   0  0  0  0  0  0  0  0  0  0  0  0
    6.5180   13.8779   24.5077 C   0  0  0  0  0  0  0  0  0  0  0  0
    6.2994   12.5398   25.1933 C   0  0  0  0  0  0  0  0  0  0  0  0
    6.8431   12.5892   26.6247 C   0  0  0  0  0  0  0  0  0  0  0  0
    7.4725   13.8886   26.9478 N   0  0  0  0  0  0  0  0  0  0  0  0
    9.0848   14.3489   26.7116 S   0  0  0  0  0  0  0  0  0  0  0  0
    9.4683   15.0213   27.9265 O   0  0  0  0  0  0  0  0  0  0  0  0
    9.2201   15.0618   25.4634 O   0  0  0  0  0  0  0  0  0  0  0  0
   10.0299   12.9515   26.6089 N   0  0  0  0  0  0  0  0  0  0  0  0
   11.4853   13.2521   26.7600 C   0  0  0  0  0  0  0  0  0  0  0  0
   12.1282   13.5082   25.4264 C   0  0  0  0  0  0  0  0  0  0  0  0
   12.0390   12.3031   24.5525 C   0  0  0  0  0  0  0  0  0  0  0  0
   10.8753   11.3728   24.8534 C   0  0  0  0  0  0  0  0  0  0  0  0
    9.7044   12.0079   25.5302 C   0  0  0  0  0  0  0  0  0  0  0  0
    6.4920   15.0033   26.7639 C   0  0  0  0  0  0  0  0  0  0  0  0
    5.9658   15.0382   25.3172 C   0  0  0  0  0  0  0  0  0  0  0  0
    8.9623   15.9412   21.4927 C   0  0  0  0  0  0  0  0  0  0  0  0
  1  2  1  0
  2  3  1  0
  2  4  1  0
  4  5  1  0
  5  6  1  0
  6  7  1  0
  7  8  1  1
  8  9  1  0
  9 10  2  0
  9 11  1  0
 11 12  1  0
 12 13  1  0
 13 14  1  0
 14 15  1  0
 15 16  2  0
 15 17  2  0
 15 18  1  0
 18 19  1  0
 19 20  1  0
 20 21  1  0
 21 22  1  0
 22 23  1  0
 14 24  1  0
 24 25  1  0
  7 26  1  0
 26  2  1  0
 25 11  1  0
 23 18  1  0
M  END
>  <energy_score>  (1040) 
-17.26312

>  <inchikey>  (1040) 
None

>  <smiles>  (1040) 
None

>  <ref_pdb>  (1040) 
A4706a

>  <alias>  (1040) 
None

>  <HIPPO Pose ID>  (1040) 
500125

>  <name>  (1040) 
P500125

>  <HIPPO Compound ID>  (1040) 
314536

>  <ref_mols>  (1040) 
A4706a,A0875a

>  <distance_score>  (1040) 
1.892885

>  <inspiration_score>  (1040) 
None

$$$$
P500127
     RDKit          3D

 26 29  0  0  0  0  0  0  0  0999 V2000
   10.0499   15.2602   18.4136 C   0  0  0  0  0  0  0  0  0  0  0  0
    9.5474   15.8194   19.6053 O   0  0  0  0  0  0  0  0  0  0  0  0
    9.8954   15.0142   20.7175 C   0  0  1  0  0  0  0  0  0  0  0  0
   11.4171   15.1311   21.0122 C   0  0  0  0  0  0  0  0  0  0  0  0
   10.9685   14.7746   22.3526 C   0  0  0  0  0  0  0  0  0  0  0  0
   11.1020   13.3483   22.7380 C   0  0  0  0  0  0  0  0  0  0  0  0
   11.7981   14.4487   23.5081 C   0  0  0  0  0  0  0  0  0  0  0  0
    9.6659   15.5112   22.1494 C   0  0  2  0  0  0  0  0  0  0  0  0
    8.5174   15.2171   22.9821 O   0  0  0  0  0  0  0  0  0  0  0  0
    7.6519   14.2148   22.7450 C   0  0  0  0  0  0  0  0  0  0  0  0
    7.5440   13.5900   21.6959 O   0  0  0  0  0  0  0  0  0  0  0  0
    6.8209   13.7929   23.9810 C   0  0  0  0  0  0  0  0  0  0  0  0
    7.3645   12.4234   24.4554 C   0  0  0  0  0  0  0  0  0  0  0  0
    7.5284   12.1735   25.9374 C   0  0  0  0  0  0  0  0  0  0  0  0
    7.8517   13.3887   26.6676 N   0  0  0  0  0  0  0  0  0  0  0  0
    9.3408   14.1510   26.5514 S   0  0  0  0  0  0  0  0  0  0  0  0
    9.3909   15.0638   27.6653 O   0  0  0  0  0  0  0  0  0  0  0  0
    9.4782   14.6600   25.2191 O   0  0  0  0  0  0  0  0  0  0  0  0
   10.5888   12.9923   26.7890 N   0  0  0  0  0  0  0  0  0  0  0  0
   11.7942   13.7094   27.3031 C   0  0  0  0  0  0  0  0  0  0  0  0
   13.0365   12.8406   27.3933 C   0  0  0  0  0  0  0  0  0  0  0  0
   13.4424   12.3688   26.0342 C   0  0  0  0  0  0  0  0  0  0  0  0
   12.2836   11.7265   25.3238 C   0  0  0  0  0  0  0  0  0  0  0  0
   10.8359   12.0832   25.6517 C   0  0  0  0  0  0  0  0  0  0  0  0
    6.7115   14.3458   26.5128 C   0  0  0  0  0  0  0  0  0  0  0  0
    6.6090   14.8584   25.0733 C   0  0  0  0  0  0  0  0  0  0  0  0
  1  2  1  0
  3  2  1  6
  3  4  1  0
  4  5  1  0
  5  6  1  0
  6  7  1  0
  5  8  1  0
  8  9  1  1
  9 10  1  0
 10 11  2  0
 10 12  1  0
 12 13  1  0
 13 14  1  0
 14 15  1  0
 15 16  1  0
 16 17  2  0
 16 18  2  0
 16 19  1  0
 19 20  1  0
 20 21  1  0
 21 22  1  0
 22 23  1  0
 23 24  1  0
 15 25  1  0
 25 26  1  0
  8  3  1  0
 26 12  1  0
  7  5  1  0
 24 19  1  0
M  END
>  <energy_score>  (1041) 
-14.028961

>  <inchikey>  (1041) 
None

>  <smiles>  (1041) 
None

>  <ref_pdb>  (1041) 
A4706a

>  <alias>  (1041) 
None

>  <HIPPO Pose ID>  (1041) 
500127

>  <name>  (1041) 
P500127

>  <HIPPO Compound ID>  (1041) 
314537

>  <ref_mols>  (1041) 
A4706a,A0875a

>  <distance_score>  (1041) 
1.501597

>  <inspiration_score>  (1041) 
None

$$$$
P500131
     RDKit          3D

 26 29  0  0  0  0  0  0  0  0999 V2000
    5.8164   14.5344   22.0021 O   0  0  0  0  0  0  0  0  0  0  0  0
    6.4291   14.9195   22.9954 C   0  0  0  0  0  0  0  0  0  0  0  0
    7.5613   15.6773   22.9545 O   0  0  0  0  0  0  0  0  0  0  0  0
    8.2397   15.6624   21.6947 C   0  0  2  0  0  0  0  0  0  0  0  0
    8.6641   14.2638   21.2608 C   0  0  0  0  0  0  0  0  0  0  0  0
    9.9019   14.3682   20.4427 N   0  0  0  0  0  0  0  0  0  0  0  0
   11.0930   14.0692   21.2803 C   0  0  0  0  0  0  0  0  0  0  0  0
   11.5677   15.2276   22.1610 C   0  0  0  0  0  0  0  0  0  0  0  0
   10.4928   16.0627   22.5595 O   0  0  0  0  0  0  0  0  0  0  0  0
    9.5720   16.3942   21.4958 C   0  0  1  0  0  0  0  0  0  0  0  0
    9.9918   15.8013   20.1390 C   0  0  0  0  0  0  0  0  0  0  0  0
    6.0136   14.4696   24.3969 C   0  0  0  0  0  0  0  0  0  0  0  0
    6.5265   13.0111   24.5403 C   0  0  0  0  0  0  0  0  0  0  0  0
    6.9852   12.5971   25.9243 C   0  0  0  0  0  0  0  0  0  0  0  0
    7.7599   13.6707   26.5589 N   0  0  0  0  0  0  0  0  0  0  0  0
    9.2255   14.2265   25.9243 S   0  0  0  0  0  0  0  0  0  0  0  0
    9.0678   14.5806   24.5447 O   0  0  0  0  0  0  0  0  0  0  0  0
    9.7344   15.1786   26.8811 O   0  0  0  0  0  0  0  0  0  0  0  0
   10.2991   12.9400   25.8914 N   0  0  0  0  0  0  0  0  0  0  0  0
   10.0843   11.9778   24.7841 C   0  0  0  0  0  0  0  0  0  0  0  0
   10.9292   10.7667   25.0939 C   0  0  0  0  0  0  0  0  0  0  0  0
   12.3803   11.1949   25.4569 C   0  0  0  0  0  0  0  0  0  0  0  0
   12.6629   12.6287   25.0828 C   0  0  0  0  0  0  0  0  0  0  0  0
   11.6988   13.5069   25.8612 C   0  0  0  0  0  0  0  0  0  0  0  0
    6.8150   14.7968   26.8317 C   0  0  0  0  0  0  0  0  0  0  0  0
    6.3757   15.4522   25.5245 C   0  0  0  0  0  0  0  0  0  0  0  0
  1  2  2  0
  2  3  1  0
  4  3  1  1
  4  5  1  0
  6  5  1  0
  6  7  1  0
  7  8  1  0
  8  9  1  0
 10  9  1  1
 10 11  1  0
  2 12  1  0
 12 13  1  0
 13 14  1  0
 14 15  1  0
 15 16  1  0
 16 17  2  0
 16 18  2  0
 16 19  1  0
 19 20  1  0
 20 21  1  0
 21 22  1  0
 22 23  1  0
 23 24  1  0
 15 25  1  0
 25 26  1  0
 10  4  1  0
 26 12  1  0
 11  6  1  0
 24 19  1  0
M  END
>  <energy_score>  (1042) 
-46.111956

>  <inchikey>  (1042) 
None

>  <smiles>  (1042) 
None

>  <ref_pdb>  (1042) 
A4706a

>  <alias>  (1042) 
None

>  <HIPPO Pose ID>  (1042) 
500131

>  <name>  (1042) 
P500131

>  <HIPPO Compound ID>  (1042) 
314538

>  <ref_mols>  (1042) 
A4706a,A0875a

>  <distance_score>  (1042) 
1.585311

>  <inspiration_score>  (1042) 
None

$$$$
P500135
     RDKit          3D

 26 28  0  0  0  0  0  0  0  0999 V2000
   10.0243   15.1938   18.9105 C   0  0  0  0  0  0  0  0  0  0  0  0
   10.0229   15.6587   20.3668 C   0  0  0  0  0  0  0  0  0  0  0  0
    9.3261   16.9872   20.5537 C   0  0  0  0  0  0  0  0  0  0  0  0
   11.4168   15.9256   20.5797 O   0  0  0  0  0  0  0  0  0  0  0  0
   12.0138   14.7606   21.1000 C   0  0  0  0  0  0  0  0  0  0  0  0
   11.0108   14.3346   22.1263 C   0  0  1  0  0  0  0  0  0  0  0  0
   11.2206   15.2539   23.2632 N   0  0  0  0  0  0  0  0  0  0  0  0
    9.6670   14.5635   21.4017 C   0  0  1  0  0  0  0  0  0  0  0  0
    8.6811   14.8590   22.4287 O   0  0  0  0  0  0  0  0  0  0  0  0
    7.5286   14.1515   22.3414 C   0  0  0  0  0  0  0  0  0  0  0  0
    6.9403   13.9445   21.2907 O   0  0  0  0  0  0  0  0  0  0  0  0
    7.0664   13.5264   23.6544 C   0  0  0  0  0  0  0  0  0  0  0  0
    8.0824   12.4181   23.9884 C   0  0  0  0  0  0  0  0  0  0  0  0
    7.9923   11.9153   25.4086 C   0  0  0  0  0  0  0  0  0  0  0  0
    8.1210   13.0508   26.3169 N   0  0  0  0  0  0  0  0  0  0  0  0
    9.5304   13.9690   26.3689 S   0  0  0  0  0  0  0  0  0  0  0  0
    9.4677   14.6794   27.6227 O   0  0  0  0  0  0  0  0  0  0  0  0
    9.6232   14.7318   25.1526 O   0  0  0  0  0  0  0  0  0  0  0  0
   10.8825   12.9198   26.4456 N   0  0  0  0  0  0  0  0  0  0  0  0
   12.0221   13.6974   27.0560 C   0  0  0  0  0  0  0  0  0  0  0  0
   13.4104   13.1452   26.7112 C   0  0  0  0  0  0  0  0  0  0  0  0
   13.3996   11.6744   26.6249 C   0  0  0  0  0  0  0  0  0  0  0  0
   12.5237   11.3298   25.4440 C   0  0  0  0  0  0  0  0  0  0  0  0
   11.3397   12.2774   25.1916 C   0  0  0  0  0  0  0  0  0  0  0  0
    6.8938   13.9125   26.1913 C   0  0  0  0  0  0  0  0  0  0  0  0
    6.7828   14.5257   24.7851 C   0  0  0  0  0  0  0  0  0  0  0  0
  1  2  1  0
  2  3  1  0
  2  4  1  0
  4  5  1  0
  5  6  1  0
  6  7  1  1
  6  8  1  0
  8  9  1  1
  9 10  1  0
 10 11  2  0
 10 12  1  0
 12 13  1  0
 13 14  1  0
 14 15  1  0
 15 16  1  0
 16 17  2  0
 16 18  2  0
 16 19  1  0
 19 20  1  0
 20 21  1  0
 21 22  1  0
 22 23  1  0
 23 24  1  0
 15 25  1  0
 25 26  1  0
  8  2  1  0
 26 12  1  0
 24 19  1  0
M  END
>  <energy_score>  (1043) 
-25.545194

>  <inchikey>  (1043) 
None

>  <smiles>  (1043) 
None

>  <ref_pdb>  (1043) 
A4706a

>  <alias>  (1043) 
None

>  <HIPPO Pose ID>  (1043) 
500135

>  <name>  (1043) 
P500135

>  <HIPPO Compound ID>  (1043) 
314539

>  <ref_mols>  (1043) 
A4706a,A0875a

>  <distance_score>  (1043) 
1.566558

>  <inspiration_score>  (1043) 
None

$$$$
P500138
     RDKit          3D

 26 27  0  0  0  0  0  0  0  0999 V2000
    8.6329   17.0052   21.0074 C   0  0  0  0  0  0  0  0  0  0  0  0
    8.4716   15.5102   21.2760 C   0  0  2  0  0  0  0  0  0  0  0  0
    7.7778   15.3833   22.5534 O   0  0  0  0  0  0  0  0  0  0  0  0
    7.1099   14.2323   22.8187 C   0  0  0  0  0  0  0  0  0  0  0  0
    7.0903   13.2482   22.0803 O   0  0  0  0  0  0  0  0  0  0  0  0
    6.2639   14.2816   24.1050 C   0  0  0  0  0  0  0  0  0  0  0  0
    6.1628   12.8791   24.7341 C   0  0  0  0  0  0  0  0  0  0  0  0
    7.4579   12.4269   25.4068 C   0  0  0  0  0  0  0  0  0  0  0  0
    8.0984   13.5263   26.1782 N   0  0  0  0  0  0  0  0  0  0  0  0
    9.5818   14.1184   25.5917 S   0  0  0  0  0  0  0  0  0  0  0  0
    9.8653   15.3176   26.3411 O   0  0  0  0  0  0  0  0  0  0  0  0
    9.5175   14.1021   24.1595 O   0  0  0  0  0  0  0  0  0  0  0  0
   10.6641   12.9359   26.0686 N   0  0  0  0  0  0  0  0  0  0  0  0
   11.9596   13.4292   26.6025 C   0  0  0  0  0  0  0  0  0  0  0  0
   13.1951   13.1013   25.7577 C   0  0  0  0  0  0  0  0  0  0  0  0
   13.0915   11.8863   24.8936 C   0  0  0  0  0  0  0  0  0  0  0  0
   12.0289   11.0210   25.4637 C   0  0  0  0  0  0  0  0  0  0  0  0
   10.6841   11.6907   25.2819 C   0  0  0  0  0  0  0  0  0  0  0  0
    7.1313   14.6192   26.4848 C   0  0  0  0  0  0  0  0  0  0  0  0
    6.6700   15.2923   25.1885 C   0  0  0  0  0  0  0  0  0  0  0  0
    9.8451   14.8142   21.1857 C   0  0  1  0  0  0  0  0  0  0  0  0
   10.4650   14.9585   19.7879 C   0  0  0  0  0  0  0  0  0  0  0  0
   10.7059   15.4501   22.1213 O   0  0  0  0  0  0  0  0  0  0  0  0
   11.9046   14.7706   22.3440 C   0  0  0  0  0  0  0  0  0  0  0  0
   12.1112   14.7636   23.6761 F   0  0  0  0  0  0  0  0  0  0  0  0
   11.8162   13.4702   21.9826 F   0  0  0  0  0  0  0  0  0  0  0  0
  2  1  1  1
  2  3  1  0
  3  4  1  0
  4  5  2  0
  4  6  1  0
  6  7  1  0
  7  8  1  0
  8  9  1  0
  9 10  1  0
 10 11  2  0
 10 12  2  0
 10 13  1  0
 13 14  1  0
 14 15  1  0
 15 16  1  0
 16 17  1  0
 17 18  1  0
  9 19  1  0
 19 20  1  0
  2 21  1  0
 21 22  1  6
 21 23  1  0
 23 24  1  0
 24 25  1  0
 24 26  1  0
 20  6  1  0
 18 13  1  0
M  END
>  <energy_score>  (1044) 
-57.103558

>  <inchikey>  (1044) 
None

>  <smiles>  (1044) 
None

>  <ref_pdb>  (1044) 
A4706a

>  <alias>  (1044) 
None

>  <HIPPO Pose ID>  (1044) 
500138

>  <name>  (1044) 
P500138

>  <HIPPO Compound ID>  (1044) 
314541

>  <ref_mols>  (1044) 
A4706a,A0875a

>  <distance_score>  (1044) 
1.234627

>  <inspiration_score>  (1044) 
None

$$$$
P500140
     RDKit          3D

 26 29  0  0  0  0  0  0  0  0999 V2000
    6.5791   13.4131   21.9313 O   0  0  0  0  0  0  0  0  0  0  0  0
    6.9277   14.0119   22.9441 C   0  0  0  0  0  0  0  0  0  0  0  0
    7.8296   15.0096   22.9957 O   0  0  0  0  0  0  0  0  0  0  0  0
    8.7697   15.3599   21.9394 C   0  0  2  0  0  0  0  0  0  0  0  0
    9.2594   14.2464   21.0431 C   0  0  1  0  0  0  0  0  0  0  0  0
   10.0379   14.8326   19.8583 C   0  0  0  0  0  0  0  0  0  0  0  0
   11.2590   15.4354   20.3234 N   0  0  0  0  0  0  0  0  0  0  0  0
   11.0365   16.2920   21.4964 C   0  0  0  0  0  0  0  0  0  0  0  0
   10.1408   15.6581   22.5551 C   0  0  2  0  0  0  0  0  0  0  0  0
   10.7308   14.3976   22.9102 O   0  0  0  0  0  0  0  0  0  0  0  0
   10.1969   13.4717   21.9716 C   0  0  0  0  0  0  0  0  0  0  0  0
    6.4130   13.5715   24.3216 C   0  0  0  0  0  0  0  0  0  0  0  0
    7.1806   12.2691   24.6448 C   0  0  0  0  0  0  0  0  0  0  0  0
    7.4852   12.0130   26.0952 C   0  0  0  0  0  0  0  0  0  0  0  0
    7.9852   13.2232   26.7364 N   0  0  0  0  0  0  0  0  0  0  0  0
    9.4104   13.9830   26.2738 S   0  0  0  0  0  0  0  0  0  0  0  0
    9.6971   14.9244   27.3314 O   0  0  0  0  0  0  0  0  0  0  0  0
    9.2314   14.4821   24.9483 O   0  0  0  0  0  0  0  0  0  0  0  0
   10.7093   12.9243   26.2187 N   0  0  0  0  0  0  0  0  0  0  0  0
   10.7647   11.7822   25.2848 C   0  0  0  0  0  0  0  0  0  0  0  0
   12.1071   11.0865   25.5647 C   0  0  0  0  0  0  0  0  0  0  0  0
   13.3444   11.8263   25.1873 C   0  0  0  0  0  0  0  0  0  0  0  0
   12.9410   13.2610   25.0275 C   0  0  0  0  0  0  0  0  0  0  0  0
   11.9879   13.7217   26.1365 C   0  0  0  0  0  0  0  0  0  0  0  0
    6.8413   14.1928   26.8119 C   0  0  0  0  0  0  0  0  0  0  0  0
    6.4097   14.6593   25.4166 C   0  0  0  0  0  0  0  0  0  0  0  0
  1  2  2  0
  2  3  1  0
  4  3  1  1
  4  5  1  0
  5  6  1  6
  6  7  1  0
  7  8  1  0
  9  8  1  6
  9 10  1  0
 10 11  1  0
  2 12  1  0
 12 13  1  0
 13 14  1  0
 14 15  1  0
 15 16  1  0
 16 17  2  0
 16 18  2  0
 16 19  1  0
 19 20  1  0
 20 21  1  0
 21 22  1  0
 22 23  1  0
 23 24  1  0
 15 25  1  0
 25 26  1  0
  9  4  1  0
 26 12  1  0
 11  5  1  0
 24 19  1  0
M  END
>  <energy_score>  (1045) 
-20.82264

>  <inchikey>  (1045) 
None

>  <smiles>  (1045) 
None

>  <ref_pdb>  (1045) 
A4706a

>  <alias>  (1045) 
None

>  <HIPPO Pose ID>  (1045) 
500140

>  <name>  (1045) 
P500140

>  <HIPPO Compound ID>  (1045) 
314542

>  <ref_mols>  (1045) 
A4706a,A0875a

>  <distance_score>  (1045) 
1.394763

>  <inspiration_score>  (1045) 
None

$$$$
P500146
     RDKit          3D

 26 28  0  0  0  0  0  0  0  0999 V2000
    8.7199   14.5938   20.4516 C   0  0  0  0  0  0  0  0  0  0  0  0
   10.2316   14.6670   20.2724 C   0  0  0  0  0  0  0  0  0  0  0  0
   10.7520   14.3686   18.8654 C   0  0  0  0  0  0  0  0  0  0  0  0
   10.6016   16.0821   20.4248 C   0  0  0  0  0  0  0  0  0  0  0  0
   10.2503   16.5966   21.7728 C   0  0  0  0  0  0  0  0  0  0  0  0
   10.3138   15.5518   22.8781 C   0  0  1  0  0  0  0  0  0  0  0  0
    9.0897   14.7867   23.0315 O   0  0  0  0  0  0  0  0  0  0  0  0
    8.2862   14.8389   24.1080 C   0  0  0  0  0  0  0  0  0  0  0  0
    8.1831   15.7573   24.9047 O   0  0  0  0  0  0  0  0  0  0  0  0
    7.5163   13.5284   24.2283 C   0  0  0  0  0  0  0  0  0  0  0  0
    8.4369   12.2964   24.1022 C   0  0  0  0  0  0  0  0  0  0  0  0
    8.8505   11.6921   25.4330 C   0  0  0  0  0  0  0  0  0  0  0  0
    9.0617   12.7284   26.4331 N   0  0  0  0  0  0  0  0  0  0  0  0
   10.4742   13.6452   26.5411 S   0  0  0  0  0  0  0  0  0  0  0  0
   10.6285   14.4467   25.3625 O   0  0  0  0  0  0  0  0  0  0  0  0
   10.4237   14.2523   27.8455 O   0  0  0  0  0  0  0  0  0  0  0  0
   11.7935   12.5408   26.5205 N   0  0  0  0  0  0  0  0  0  0  0  0
   12.2927   12.2505   25.1672 C   0  0  0  0  0  0  0  0  0  0  0  0
   13.3701   11.1690   25.2106 C   0  0  0  0  0  0  0  0  0  0  0  0
   14.4868   11.3809   26.2014 C   0  0  0  0  0  0  0  0  0  0  0  0
   14.3294   12.7194   26.8506 C   0  0  0  0  0  0  0  0  0  0  0  0
   12.9295   12.9279   27.4339 C   0  0  0  0  0  0  0  0  0  0  0  0
    7.7893   13.4917   26.7422 C   0  0  0  0  0  0  0  0  0  0  0  0
    6.7964   13.4877   25.5742 C   0  0  0  0  0  0  0  0  0  0  0  0
   11.3429   14.5277   22.4353 C   0  0  0  0  0  0  0  0  0  0  0  0
   10.9395   13.8750   21.2296 O   0  0  0  0  0  0  0  0  0  0  0  0
  1  2  1  0
  2  3  1  0
  2  4  1  0
  4  5  1  0
  5  6  1  0
  6  7  1  6
  7  8  1  0
  8  9  2  0
  8 10  1  0
 10 11  1  0
 11 12  1  0
 12 13  1  0
 13 14  1  0
 14 15  2  0
 14 16  2  0
 14 17  1  0
 17 18  1  0
 18 19  1  0
 19 20  1  0
 20 21  1  0
 21 22  1  0
 13 23  1  0
 23 24  1  0
  6 25  1  0
 25 26  1  0
 26  2  1  0
 24 10  1  0
 22 17  1  0
M  END
>  <energy_score>  (1046) 
-19.365686

>  <inchikey>  (1046) 
None

>  <smiles>  (1046) 
None

>  <ref_pdb>  (1046) 
A4706a

>  <alias>  (1046) 
None

>  <HIPPO Pose ID>  (1046) 
500146

>  <name>  (1046) 
P500146

>  <HIPPO Compound ID>  (1046) 
314544

>  <ref_mols>  (1046) 
A4706a,A0875a

>  <distance_score>  (1046) 
1.960867

>  <inspiration_score>  (1046) 
None

$$$$
P500148
     RDKit          3D

 26 28  0  0  0  0  0  0  0  0999 V2000
    9.0967   17.3885   20.7717 C   0  0  0  0  0  0  0  0  0  0  0  0
    9.7940   16.0164   20.8111 C   0  0  1  0  0  0  0  0  0  0  0  0
   10.0281   15.5467   19.3480 C   0  0  0  0  0  0  0  0  0  0  0  0
   11.0373   14.5216   19.0611 N   0  0  0  0  0  0  0  0  0  0  0  0
   11.1111   16.1745   21.4140 O   0  0  0  0  0  0  0  0  0  0  0  0
   11.3529   15.0451   22.2549 C   0  0  0  0  0  0  0  0  0  0  0  0
   10.1756   14.1147   22.1242 C   0  0  0  0  0  0  0  0  0  0  0  0
    9.0727   15.0839   21.8008 C   0  0  2  0  0  0  0  0  0  0  0  0
    7.8709   14.4520   21.3387 O   0  0  0  0  0  0  0  0  0  0  0  0
    6.9465   13.9084   22.1734 C   0  0  0  0  0  0  0  0  0  0  0  0
    5.9811   13.2961   21.7232 O   0  0  0  0  0  0  0  0  0  0  0  0
    7.1400   13.9915   23.6644 C   0  0  0  0  0  0  0  0  0  0  0  0
    6.6952   12.7023   24.4024 C   0  0  0  0  0  0  0  0  0  0  0  0
    6.8370   12.8206   25.9247 C   0  0  0  0  0  0  0  0  0  0  0  0
    7.4418   14.1134   26.2156 N   0  0  0  0  0  0  0  0  0  0  0  0
    9.0527   14.4469   26.4108 S   0  0  0  0  0  0  0  0  0  0  0  0
    9.2921   15.7320   25.8087 O   0  0  0  0  0  0  0  0  0  0  0  0
    9.3905   14.2195   27.7904 O   0  0  0  0  0  0  0  0  0  0  0  0
   10.0425   13.4083   25.5059 N   0  0  0  0  0  0  0  0  0  0  0  0
   11.4654   13.8617   25.7453 C   0  0  0  0  0  0  0  0  0  0  0  0
   12.4819   13.0351   24.9911 C   0  0  0  0  0  0  0  0  0  0  0  0
   12.3488   11.6097   25.4436 C   0  0  0  0  0  0  0  0  0  0  0  0
   10.9392   11.1437   25.0862 C   0  0  0  0  0  0  0  0  0  0  0  0
    9.8633   11.9734   25.7390 C   0  0  0  0  0  0  0  0  0  0  0  0
    6.5580   15.2244   25.7899 C   0  0  0  0  0  0  0  0  0  0  0  0
    6.4251   15.2006   24.2676 C   0  0  0  0  0  0  0  0  0  0  0  0
  2  1  1  6
  2  3  1  0
  3  4  1  0
  2  5  1  0
  5  6  1  0
  6  7  1  0
  7  8  1  0
  8  9  1  6
  9 10  1  0
 10 11  2  0
 10 12  1  0
 12 13  1  0
 13 14  1  0
 14 15  1  0
 15 16  1  0
 16 17  2  0
 16 18  2  0
 16 19  1  0
 19 20  1  0
 20 21  1  0
 21 22  1  0
 22 23  1  0
 23 24  1  0
 15 25  1  0
 25 26  1  0
  8  2  1  0
 26 12  1  0
 24 19  1  0
M  END
>  <energy_score>  (1047) 
-19.470614

>  <inchikey>  (1047) 
None

>  <smiles>  (1047) 
None

>  <ref_pdb>  (1047) 
A4706a

>  <alias>  (1047) 
None

>  <HIPPO Pose ID>  (1047) 
500148

>  <name>  (1047) 
P500148

>  <HIPPO Compound ID>  (1047) 
314545

>  <ref_mols>  (1047) 
A0875a,A4706a

>  <distance_score>  (1047) 
1.525851

>  <inspiration_score>  (1047) 
None

$$$$
P500150
     RDKit          3D

 27 29  0  0  0  0  0  0  0  0999 V2000
    6.7707   16.5248   22.1554 N   0  0  0  0  0  0  0  0  0  0  0  0
    8.1702   16.2735   21.7611 C   0  0  0  0  0  0  0  0  0  0  0  0
    8.7491   15.2423   22.7083 C   0  0  2  0  0  0  0  0  0  0  0  0
   10.2801   15.2153   22.8685 C   0  0  0  0  0  0  0  0  0  0  0  0
   11.0309   15.8393   21.8480 O   0  0  0  0  0  0  0  0  0  0  0  0
   11.5753   14.9127   20.9341 C   0  0  0  0  0  0  0  0  0  0  0  0
   10.5840   14.6148   19.8903 C   0  0  0  0  0  0  0  0  0  0  0  0
   11.0336   14.6803   18.4686 C   0  0  0  0  0  0  0  0  0  0  0  0
   10.0272   15.6553   18.9753 C   0  0  0  0  0  0  0  0  0  0  0  0
    8.2134   13.9435   22.3080 O   0  0  0  0  0  0  0  0  0  0  0  0
    7.0277   13.5250   22.8500 C   0  0  0  0  0  0  0  0  0  0  0  0
    6.1181   13.0859   22.1607 O   0  0  0  0  0  0  0  0  0  0  0  0
    6.9838   13.5487   24.3525 C   0  0  0  0  0  0  0  0  0  0  0  0
    6.6218   12.2268   25.0361 C   0  0  0  0  0  0  0  0  0  0  0  0
    7.1768   12.2263   26.4736 C   0  0  0  0  0  0  0  0  0  0  0  0
    7.6432   13.5780   26.8507 N   0  0  0  0  0  0  0  0  0  0  0  0
    9.2125   14.1764   26.6991 S   0  0  0  0  0  0  0  0  0  0  0  0
    9.6435   14.5464   28.0223 O   0  0  0  0  0  0  0  0  0  0  0  0
    9.2301   15.1897   25.6715 O   0  0  0  0  0  0  0  0  0  0  0  0
   10.2830   12.9844   26.1834 N   0  0  0  0  0  0  0  0  0  0  0  0
   11.6744   13.5794   26.1233 C   0  0  0  0  0  0  0  0  0  0  0  0
   12.6087   12.7990   25.2005 C   0  0  0  0  0  0  0  0  0  0  0  0
   12.3674   11.3300   25.4527 C   0  0  0  0  0  0  0  0  0  0  0  0
   10.9122   10.9284   25.1043 C   0  0  0  0  0  0  0  0  0  0  0  0
   10.0226   12.1453   25.0111 C   0  0  0  0  0  0  0  0  0  0  0  0
    6.5674   14.5904   26.6022 C   0  0  0  0  0  0  0  0  0  0  0  0
    6.2653   14.6738   25.0917 C   0  0  0  0  0  0  0  0  0  0  0  0
  1  2  1  0
  3  2  1  6
  3  4  1  0
  4  5  1  0
  5  6  1  0
  6  7  1  0
  7  8  1  0
  8  9  1  0
  3 10  1  0
 10 11  1  0
 11 12  2  0
 11 13  1  0
 13 14  1  0
 14 15  1  0
 15 16  1  0
 16 17  1  0
 17 18  2  0
 17 19  2  0
 17 20  1  0
 20 21  1  0
 21 22  1  0
 22 23  1  0
 23 24  1  0
 24 25  1  0
 16 26  1  0
 26 27  1  0
  9  7  1  0
 27 13  1  0
 25 20  1  0
M  END
>  <energy_score>  (1048) 
-7.459934

>  <inchikey>  (1048) 
None

>  <smiles>  (1048) 
None

>  <ref_pdb>  (1048) 
A4706a

>  <alias>  (1048) 
None

>  <HIPPO Pose ID>  (1048) 
500150

>  <name>  (1048) 
P500150

>  <HIPPO Compound ID>  (1048) 
314546

>  <ref_mols>  (1048) 
A0875a,A4706a

>  <distance_score>  (1048) 
1.509298

>  <inspiration_score>  (1048) 
None

$$$$
P500151
     RDKit          3D

 27 29  0  0  0  0  0  0  0  0999 V2000
    8.2950   18.8583   19.8663 C   0  0  0  0  0  0  0  0  0  0  0  0
    9.0445   17.6494   20.0835 O   0  0  0  0  0  0  0  0  0  0  0  0
    8.5621   17.0416   21.2722 C   0  0  0  0  0  0  0  0  0  0  0  0
    9.0529   15.6443   21.7205 C   0  0  0  0  0  0  0  0  0  0  0  0
    8.0733   15.3000   22.8036 O   0  0  0  0  0  0  0  0  0  0  0  0
    6.9653   14.5284   22.7170 C   0  0  0  0  0  0  0  0  0  0  0  0
    6.6282   13.8818   21.7317 O   0  0  0  0  0  0  0  0  0  0  0  0
    6.1195   14.5263   24.0233 C   0  0  0  0  0  0  0  0  0  0  0  0
    5.7977   13.0998   24.5194 C   0  0  0  0  0  0  0  0  0  0  0  0
    6.7670   12.4389   25.5109 C   0  0  0  0  0  0  0  0  0  0  0  0
    7.7696   13.4056   26.0071 N   0  0  0  0  0  0  0  0  0  0  0  0
    9.1431   13.5592   25.0458 S   0  0  0  0  0  0  0  0  0  0  0  0
    8.8545   12.8891   23.8037 O   0  0  0  0  0  0  0  0  0  0  0  0
    9.6003   14.9246   25.1367 O   0  0  0  0  0  0  0  0  0  0  0  0
   10.2288   12.6141   25.8780 N   0  0  0  0  0  0  0  0  0  0  0  0
   10.5823   11.3169   25.2563 C   0  0  0  0  0  0  0  0  0  0  0  0
   12.0678   11.0514   25.4540 C   0  0  0  0  0  0  0  0  0  0  0  0
   12.8418   12.1835   24.8632 C   0  0  0  0  0  0  0  0  0  0  0  0
   12.5654   13.3996   25.7037 C   0  0  0  0  0  0  0  0  0  0  0  0
   11.3103   13.3437   26.5570 C   0  0  0  0  0  0  0  0  0  0  0  0
    7.1161   14.6709   26.4032 C   0  0  0  0  0  0  0  0  0  0  0  0
    6.5741   15.4229   25.1861 C   0  0  0  0  0  0  0  0  0  0  0  0
    9.1213   14.6870   20.5404 C   0  0  0  0  0  0  0  0  0  0  0  0
   10.3366   14.9321   19.6407 C   0  0  0  0  0  0  0  0  0  0  0  0
   11.5586   14.6844   20.3970 N   0  0  0  0  0  0  0  0  0  0  0  0
   11.6490   15.5684   21.5447 C   0  0  0  0  0  0  0  0  0  0  0  0
   10.4240   15.5131   22.4199 C   0  0  0  0  0  0  0  0  0  0  0  0
  1  2  1  0
  2  3  1  0
  3  4  1  0
  4  5  1  0
  5  6  1  0
  6  7  2  0
  6  8  1  0
  8  9  1  0
  9 10  1  0
 10 11  1  0
 11 12  1  0
 12 13  2  0
 12 14  2  0
 12 15  1  0
 15 16  1  0
 16 17  1  0
 17 18  1  0
 18 19  1  0
 19 20  1  0
 11 21  1  0
 21 22  1  0
  4 23  1  0
 23 24  1  0
 24 25  1  0
 25 26  1  0
 26 27  1  0
 27  4  1  0
 22  8  1  0
 20 15  1  0
M  END
>  <energy_score>  (1049) 
-21.494514

>  <inchikey>  (1049) 
None

>  <smiles>  (1049) 
None

>  <ref_pdb>  (1049) 
A4706a

>  <alias>  (1049) 
None

>  <HIPPO Pose ID>  (1049) 
500151

>  <name>  (1049) 
P500151

>  <HIPPO Compound ID>  (1049) 
314548

>  <ref_mols>  (1049) 
A4706a,A0875a

>  <distance_score>  (1049) 
1.57005

>  <inspiration_score>  (1049) 
None

$$$$
P500153
     RDKit          3D

 27 28  0  0  0  0  0  0  0  0999 V2000
    8.2300   17.0497   21.3104 C   0  0  0  0  0  0  0  0  0  0  0  0
    8.6738   15.7529   21.9650 C   0  0  1  0  0  0  0  0  0  0  0  0
   10.1732   15.9156   22.3490 C   0  0  0  0  0  0  0  0  0  0  0  0
   11.0814   14.8523   22.1476 O   0  0  0  0  0  0  0  0  0  0  0  0
   10.8821   14.0883   20.9676 C   0  0  0  0  0  0  0  0  0  0  0  0
   10.7660   14.7715   19.6049 C   0  0  0  0  0  0  0  0  0  0  0  0
   11.1189   13.9426   18.5996 F   0  0  0  0  0  0  0  0  0  0  0  0
   11.5766   15.8279   19.5399 F   0  0  0  0  0  0  0  0  0  0  0  0
    9.5201   15.2111   19.3436 F   0  0  0  0  0  0  0  0  0  0  0  0
    7.7920   15.5293   23.1086 O   0  0  0  0  0  0  0  0  0  0  0  0
    6.9835   14.4298   23.0935 C   0  0  0  0  0  0  0  0  0  0  0  0
    6.9107   13.6113   22.1767 O   0  0  0  0  0  0  0  0  0  0  0  0
    6.1304   14.2802   24.3671 C   0  0  0  0  0  0  0  0  0  0  0  0
    6.0415   12.7957   24.7699 C   0  0  0  0  0  0  0  0  0  0  0  0
    7.3200   12.2165   25.3844 C   0  0  0  0  0  0  0  0  0  0  0  0
    8.0536   13.2419   26.1653 N   0  0  0  0  0  0  0  0  0  0  0  0
    9.4240   13.9109   25.4416 S   0  0  0  0  0  0  0  0  0  0  0  0
    9.6128   15.2156   26.0302 O   0  0  0  0  0  0  0  0  0  0  0  0
    9.3574   13.7016   24.0232 O   0  0  0  0  0  0  0  0  0  0  0  0
   10.6787   12.9382   25.9765 N   0  0  0  0  0  0  0  0  0  0  0  0
   11.9569   13.6997   26.0205 C   0  0  0  0  0  0  0  0  0  0  0  0
   12.8800   13.2791   24.8893 C   0  0  0  0  0  0  0  0  0  0  0  0
   13.3720   11.8773   25.1342 C   0  0  0  0  0  0  0  0  0  0  0  0
   12.1963   11.0760   25.5941 C   0  0  0  0  0  0  0  0  0  0  0  0
   10.8156   11.6422   25.2584 C   0  0  0  0  0  0  0  0  0  0  0  0
    7.1227   14.2628   26.7263 C   0  0  0  0  0  0  0  0  0  0  0  0
    6.5174   15.1122   25.6003 C   0  0  0  0  0  0  0  0  0  0  0  0
  2  1  1  1
  2  3  1  0
  3  4  1  0
  4  5  1  0
  5  6  1  0
  6  7  1  0
  6  8  1  0
  6  9  1  0
  2 10  1  0
 10 11  1  0
 11 12  2  0
 11 13  1  0
 13 14  1  0
 14 15  1  0
 15 16  1  0
 16 17  1  0
 17 18  2  0
 17 19  2  0
 17 20  1  0
 20 21  1  0
 21 22  1  0
 22 23  1  0
 23 24  1  0
 24 25  1  0
 16 26  1  0
 26 27  1  0
 27 13  1  0
 25 20  1  0
M  END
>  <energy_score>  (1050) 
-49.581406

>  <inchikey>  (1050) 
None

>  <smiles>  (1050) 
None

>  <ref_pdb>  (1050) 
A4706a

>  <alias>  (1050) 
None

>  <HIPPO Pose ID>  (1050) 
500153

>  <name>  (1050) 
P500153

>  <HIPPO Compound ID>  (1050) 
314549

>  <ref_mols>  (1050) 
A4706a,A0875a

>  <distance_score>  (1050) 
1.370125

>  <inspiration_score>  (1050) 
None

$$$$
P500155
     RDKit          3D

 27 28  0  0  0  0  0  0  0  0999 V2000
   11.6302   14.6947   18.6687 C   0  0  0  0  0  0  0  0  0  0  0  0
   10.3822   15.0718   18.9257 C   0  0  0  0  0  0  0  0  0  0  0  0
    9.8012   15.3763   20.2472 C   0  0  0  0  0  0  0  0  0  0  0  0
   10.3416   14.6006   21.4300 C   0  0  0  0  0  0  0  0  0  0  0  0
   10.2695   15.4369   22.5846 O   0  0  0  0  0  0  0  0  0  0  0  0
    9.2070   15.3960   23.4070 C   0  0  0  0  0  0  0  0  0  0  0  0
    9.4293   15.5445   24.6086 O   0  0  0  0  0  0  0  0  0  0  0  0
    7.7866   15.1965   22.8451 C   0  0  2  0  0  0  0  0  0  0  0  0
    7.1879   16.3938   22.1619 C   0  0  0  0  0  0  0  0  0  0  0  0
    6.9049   15.0027   23.9784 O   0  0  0  0  0  0  0  0  0  0  0  0
    6.0856   13.9291   23.9538 C   0  0  0  0  0  0  0  0  0  0  0  0
    5.9017   13.2130   22.9768 O   0  0  0  0  0  0  0  0  0  0  0  0
    5.4566   13.7089   25.3285 C   0  0  0  0  0  0  0  0  0  0  0  0
    5.5523   12.2319   25.7292 C   0  0  0  0  0  0  0  0  0  0  0  0
    6.5711   11.9259   26.8078 C   0  0  0  0  0  0  0  0  0  0  0  0
    7.7777   12.7285   26.5777 N   0  0  0  0  0  0  0  0  0  0  0  0
    8.7647   12.1871   25.3348 S   0  0  0  0  0  0  0  0  0  0  0  0
    8.5867   10.7607   25.2231 O   0  0  0  0  0  0  0  0  0  0  0  0
    8.6149   12.9874   24.1532 O   0  0  0  0  0  0  0  0  0  0  0  0
   10.3253   12.3918   25.8612 N   0  0  0  0  0  0  0  0  0  0  0  0
   10.6712   13.5114   26.7272 C   0  0  0  0  0  0  0  0  0  0  0  0
   12.1645   13.7247   26.7308 C   0  0  0  0  0  0  0  0  0  0  0  0
   13.0112   12.4750   26.5448 C   0  0  0  0  0  0  0  0  0  0  0  0
   12.5758   11.7138   25.3059 C   0  0  0  0  0  0  0  0  0  0  0  0
   11.2677   12.2429   24.7362 C   0  0  0  0  0  0  0  0  0  0  0  0
    7.5067   14.1730   26.7798 C   0  0  0  0  0  0  0  0  0  0  0  0
    6.0647   14.5673   26.4424 C   0  0  0  0  0  0  0  0  0  0  0  0
  1  2  2  0
  2  3  1  0
  3  4  1  0
  4  5  1  0
  5  6  1  0
  6  7  2  0
  6  8  1  0
  8  9  1  1
  8 10  1  0
 10 11  1  0
 11 12  2  0
 11 13  1  0
 13 14  1  0
 14 15  1  0
 15 16  1  0
 16 17  1  0
 17 18  2  0
 17 19  2  0
 17 20  1  0
 20 21  1  0
 21 22  1  0
 22 23  1  0
 23 24  1  0
 24 25  1  0
 16 26  1  0
 26 27  1  0
 27 13  1  0
 25 20  1  0
M  END
>  <energy_score>  (1051) 
-26.369306

>  <inchikey>  (1051) 
None

>  <smiles>  (1051) 
None

>  <ref_pdb>  (1051) 
A4706a

>  <alias>  (1051) 
None

>  <HIPPO Pose ID>  (1051) 
500155

>  <name>  (1051) 
P500155

>  <HIPPO Compound ID>  (1051) 
314554

>  <ref_mols>  (1051) 
A0875a,A4706a

>  <distance_score>  (1051) 
1.961896

>  <inspiration_score>  (1051) 
None

$$$$
P500158
     RDKit          3D

 27 28  0  0  0  0  0  0  0  0999 V2000
   18.3458    8.5655   28.5844 C   0  0  0  0  0  0  0  0  0  0  0  0
   17.7517    9.7355   29.3476 C   0  0  0  0  0  0  0  0  0  0  0  0
   17.0293   10.6772   28.4263 C   0  0  0  0  0  0  0  0  0  0  0  0
   15.7180   10.9496   28.5249 C   0  0  0  0  0  0  0  0  0  0  0  0
   14.9859   11.9394   27.6663 C   0  0  1  0  0  0  0  0  0  0  0  0
   13.8400   11.3120   27.0607 O   0  0  0  0  0  0  0  0  0  0  0  0
   13.6183   11.6750   25.7764 C   0  0  0  0  0  0  0  0  0  0  0  0
   14.4525   11.5973   24.8875 O   0  0  0  0  0  0  0  0  0  0  0  0
   12.2479   12.2843   25.6150 C   0  0  0  0  0  0  0  0  0  0  0  0
   12.3877   13.4076   24.5980 C   0  0  0  0  0  0  0  0  0  0  0  0
   11.1467   14.2577   24.6188 C   0  0  0  0  0  0  0  0  0  0  0  0
    9.9707   13.3763   24.7742 N   0  0  0  0  0  0  0  0  0  0  0  0
    8.5381   14.1779   24.6475 S   0  0  0  0  0  0  0  0  0  0  0  0
    8.0573   14.0163   23.3016 O   0  0  0  0  0  0  0  0  0  0  0  0
    8.7646   15.4766   25.2356 O   0  0  0  0  0  0  0  0  0  0  0  0
    7.5140   13.4005   25.7196 N   0  0  0  0  0  0  0  0  0  0  0  0
    7.2675   11.9542   25.6055 C   0  0  0  0  0  0  0  0  0  0  0  0
    6.0109   11.5297   26.3628 C   0  0  0  0  0  0  0  0  0  0  0  0
    5.7666   12.3372   27.6287 C   0  0  0  0  0  0  0  0  0  0  0  0
    5.7516   13.8381   27.3519 C   0  0  0  0  0  0  0  0  0  0  0  0
    6.2705   14.1815   25.9628 C   0  0  0  0  0  0  0  0  0  0  0  0
   10.1660   12.0478   24.1777 C   0  0  0  0  0  0  0  0  0  0  0  0
   11.0698   11.3722   25.2130 C   0  0  0  0  0  0  0  0  0  0  0  0
   14.4385   13.0229   28.6039 C   0  0  0  0  0  0  0  0  0  0  0  0
   13.2605   13.3433   28.6867 O   0  0  0  0  0  0  0  0  0  0  0  0
   15.4455   13.6241   29.2996 O   0  0  0  0  0  0  0  0  0  0  0  0
   15.0025   14.5092   30.3299 C   0  0  0  0  0  0  0  0  0  0  0  0
  1  2  1  0
  2  3  1  0
  3  4  2  0
  4  5  1  0
  5  6  1  1
  6  7  1  0
  7  8  2  0
  7  9  1  0
  9 10  1  0
 10 11  1  0
 11 12  1  0
 12 13  1  0
 13 14  2  0
 13 15  2  0
 13 16  1  0
 16 17  1  0
 17 18  1  0
 18 19  1  0
 19 20  1  0
 20 21  1  0
 12 22  1  0
 22 23  1  0
  5 24  1  0
 24 25  2  0
 24 26  1  0
 26 27  1  0
 23  9  1  0
 21 16  1  0
M  END
>  <energy_score>  (1052) 
-61.140299

>  <inchikey>  (1052) 
None

>  <smiles>  (1052) 
None

>  <ref_pdb>  (1052) 
A4706a

>  <alias>  (1052) 
None

>  <HIPPO Pose ID>  (1052) 
500158

>  <name>  (1052) 
P500158

>  <HIPPO Compound ID>  (1052) 
314557

>  <ref_mols>  (1052) 
A4706a,A0875a

>  <distance_score>  (1052) 
1.503606

>  <inspiration_score>  (1052) 
None

$$$$
P500162
     RDKit          3D

 27 29  0  0  0  0  0  0  0  0999 V2000
    8.2141   12.7850   22.9561 O   0  0  0  0  0  0  0  0  0  0  0  0
    7.8845   13.9333   23.2537 C   0  0  0  0  0  0  0  0  0  0  0  0
    8.6099   15.0320   22.9017 O   0  0  0  0  0  0  0  0  0  0  0  0
    9.9170   14.7342   22.3552 C   0  0  2  0  0  0  0  0  0  0  0  0
   10.9987   14.8466   23.3872 C   0  0  0  0  0  0  0  0  0  0  0  0
   12.2358   14.8972   22.7074 O   0  0  0  0  0  0  0  0  0  0  0  0
   11.9591   15.4769   21.4329 C   0  0  0  0  0  0  0  0  0  0  0  0
   10.4751   15.7480   21.3928 C   0  0  1  0  0  0  0  0  0  0  0  0
    9.7610   15.5619   19.8407 S   0  0  0  0  0  0  0  0  0  0  0  0
    9.6780   16.8647   19.2297 O   0  0  0  0  0  0  0  0  0  0  0  0
    8.5716   14.7699   20.0730 O   0  0  0  0  0  0  0  0  0  0  0  0
   10.9719   14.4953   18.6050 Cl  0  0  0  0  0  0  0  0  0  0  0  0
    6.5899   14.1900   24.0433 C   0  0  0  0  0  0  0  0  0  0  0  0
    6.1774   12.8704   24.7245 C   0  0  0  0  0  0  0  0  0  0  0  0
    7.2215   12.4153   25.7490 C   0  0  0  0  0  0  0  0  0  0  0  0
    7.7359   13.5295   26.5677 N   0  0  0  0  0  0  0  0  0  0  0  0
    9.3092   14.1019   26.5590 S   0  0  0  0  0  0  0  0  0  0  0  0
    9.4986   14.7221   27.8476 O   0  0  0  0  0  0  0  0  0  0  0  0
    9.4457   14.9360   25.4003 O   0  0  0  0  0  0  0  0  0  0  0  0
   10.4631   12.8995   26.4550 N   0  0  0  0  0  0  0  0  0  0  0  0
   10.4046   11.8172   25.4652 C   0  0  0  0  0  0  0  0  0  0  0  0
   11.7490   11.1240   25.3908 C   0  0  0  0  0  0  0  0  0  0  0  0
   12.7744   12.0324   24.8053 C   0  0  0  0  0  0  0  0  0  0  0  0
   12.9030   13.2251   25.6997 C   0  0  0  0  0  0  0  0  0  0  0  0
   11.8443   13.3942   26.7889 C   0  0  0  0  0  0  0  0  0  0  0  0
    6.7663   14.6778   26.5681 C   0  0  0  0  0  0  0  0  0  0  0  0
    6.6080   15.2609   25.1441 C   0  0  0  0  0  0  0  0  0  0  0  0
  1  2  2  0
  2  3  1  0
  4  3  1  1
  4  5  1  0
  5  6  1  0
  6  7  1  0
  7  8  1  0
  8  9  1  6
  9 10  2  0
  9 11  2  0
  9 12  1  0
  2 13  1  0
 13 14  1  0
 14 15  1  0
 15 16  1  0
 16 17  1  0
 17 18  2  0
 17 19  2  0
 17 20  1  0
 20 21  1  0
 21 22  1  0
 22 23  1  0
 23 24  1  0
 24 25  1  0
 16 26  1  0
 26 27  1  0
  8  4  1  0
 27 13  1  0
 25 20  1  0
M  END
>  <energy_score>  (1053) 
-37.338627

>  <inchikey>  (1053) 
None

>  <smiles>  (1053) 
None

>  <ref_pdb>  (1053) 
A4706a

>  <alias>  (1053) 
None

>  <HIPPO Pose ID>  (1053) 
500162

>  <name>  (1053) 
P500162

>  <HIPPO Compound ID>  (1053) 
314558

>  <ref_mols>  (1053) 
A0875a,A4706a

>  <distance_score>  (1053) 
1.36206

>  <inspiration_score>  (1053) 
None

$$$$
P500163
     RDKit          3D

 27 29  0  0  0  0  0  0  0  0999 V2000
    8.8877   17.8734   20.8794 C   0  0  0  0  0  0  0  0  0  0  0  0
    8.3209   16.6044   21.4550 C   0  0  0  0  0  0  0  0  0  0  0  0
    7.2878   16.6194   22.1259 O   0  0  0  0  0  0  0  0  0  0  0  0
    9.0261   15.2801   21.2070 C   0  0  2  0  0  0  0  0  0  0  0  0
    8.0039   14.2196   21.2045 O   0  0  0  0  0  0  0  0  0  0  0  0
    7.0259   13.9193   22.1100 C   0  0  0  0  0  0  0  0  0  0  0  0
    5.9364   13.5118   21.7112 O   0  0  0  0  0  0  0  0  0  0  0  0
    7.2956   13.9691   23.6031 C   0  0  0  0  0  0  0  0  0  0  0  0
    7.0148   12.5802   24.2353 C   0  0  0  0  0  0  0  0  0  0  0  0
    7.3602   12.4807   25.7210 C   0  0  0  0  0  0  0  0  0  0  0  0
    7.6922   13.8000   26.2505 N   0  0  0  0  0  0  0  0  0  0  0  0
    9.2249   14.4578   26.2998 S   0  0  0  0  0  0  0  0  0  0  0  0
    9.4091   15.3695   25.1995 O   0  0  0  0  0  0  0  0  0  0  0  0
    9.4195   14.9309   27.6453 O   0  0  0  0  0  0  0  0  0  0  0  0
   10.3418   13.2502   26.0425 N   0  0  0  0  0  0  0  0  0  0  0  0
   10.3883   12.5635   24.7483 C   0  0  0  0  0  0  0  0  0  0  0  0
   11.0248   11.2477   25.0814 C   0  0  0  0  0  0  0  0  0  0  0  0
   12.4888   11.5144   25.4989 C   0  0  0  0  0  0  0  0  0  0  0  0
   12.8107   12.9873   25.6592 C   0  0  0  0  0  0  0  0  0  0  0  0
   11.7116   13.6676   26.4800 C   0  0  0  0  0  0  0  0  0  0  0  0
    6.6041   14.7672   25.9471 C   0  0  0  0  0  0  0  0  0  0  0  0
    6.5174   15.0070   24.4292 C   0  0  0  0  0  0  0  0  0  0  0  0
   10.1265   14.9543   22.1890 C   0  0  0  0  0  0  0  0  0  0  0  0
   11.4168   15.2612   21.4987 C   0  0  0  0  0  0  0  0  0  0  0  0
   11.1537   15.0527   20.1323 O   0  0  0  0  0  0  0  0  0  0  0  0
    9.8355   15.3118   19.9026 C   0  0  0  0  0  0  0  0  0  0  0  0
    9.4270   15.5986   18.7922 O   0  0  0  0  0  0  0  0  0  0  0  0
  1  2  1  0
  2  3  2  0
  2  4  1  0
  4  5  1  6
  5  6  1  0
  6  7  2  0
  6  8  1  0
  8  9  1  0
  9 10  1  0
 10 11  1  0
 11 12  1  0
 12 13  2  0
 12 14  2  0
 12 15  1  0
 15 16  1  0
 16 17  1  0
 17 18  1  0
 18 19  1  0
 19 20  1  0
 11 21  1  0
 21 22  1  0
  4 23  1  0
 23 24  1  0
 24 25  1  0
 25 26  1  0
 26 27  2  0
 26  4  1  0
 22  8  1  0
 20 15  1  0
M  END
>  <energy_score>  (1054) 
-12.112352

>  <inchikey>  (1054) 
None

>  <smiles>  (1054) 
None

>  <ref_pdb>  (1054) 
A4706a

>  <alias>  (1054) 
None

>  <HIPPO Pose ID>  (1054) 
500163

>  <name>  (1054) 
P500163

>  <HIPPO Compound ID>  (1054) 
314559

>  <ref_mols>  (1054) 
A4706a,A0875a

>  <distance_score>  (1054) 
1.462691

>  <inspiration_score>  (1054) 
None

$$$$
P500165
     RDKit          3D

 27 30  0  0  0  0  0  0  0  0999 V2000
    7.6252   15.8507   23.7572 O   0  0  0  0  0  0  0  0  0  0  0  0
    7.6755   14.8551   23.0609 C   0  0  0  0  0  0  0  0  0  0  0  0
    8.2718   14.7081   21.8501 O   0  0  0  0  0  0  0  0  0  0  0  0
    9.4306   15.5053   21.3462 C   0  0  0  0  0  0  0  0  0  0  0  0
    9.0893   16.8492   20.7437 C   0  0  2  0  0  0  0  0  0  0  0  0
    8.5669   18.2334   21.0963 C   0  0  0  0  0  0  0  0  0  0  0  0
    7.7250   17.1153   21.0946 O   0  0  0  0  0  0  0  0  0  0  0  0
    9.8219   14.6500   20.1237 C   0  0  0  0  0  0  0  0  0  0  0  0
   11.2248   14.8416   19.6315 C   0  0  0  0  0  0  0  0  0  0  0  0
   12.1087   14.6257   20.7092 O   0  0  0  0  0  0  0  0  0  0  0  0
   11.9334   15.5751   21.7436 C   0  0  0  0  0  0  0  0  0  0  0  0
   10.5654   15.4404   22.3516 C   0  0  0  0  0  0  0  0  0  0  0  0
    7.0809   13.5258   23.5110 C   0  0  0  0  0  0  0  0  0  0  0  0
    8.1964   12.4866   23.7336 C   0  0  0  0  0  0  0  0  0  0  0  0
    8.2544   11.9442   25.1484 C   0  0  0  0  0  0  0  0  0  0  0  0
    8.2746   13.0545   26.0911 N   0  0  0  0  0  0  0  0  0  0  0  0
    9.6291   14.0401   26.2254 S   0  0  0  0  0  0  0  0  0  0  0  0
    9.8240   14.7925   25.0182 O   0  0  0  0  0  0  0  0  0  0  0  0
    9.4715   14.7254   27.4848 O   0  0  0  0  0  0  0  0  0  0  0  0
   10.9794   12.9781   26.3641 N   0  0  0  0  0  0  0  0  0  0  0  0
   11.6350   12.6824   25.0480 C   0  0  0  0  0  0  0  0  0  0  0  0
   12.8233   11.7573   25.2609 C   0  0  0  0  0  0  0  0  0  0  0  0
   13.8699   12.3381   26.1732 C   0  0  0  0  0  0  0  0  0  0  0  0
   13.2386   12.7932   27.4657 C   0  0  0  0  0  0  0  0  0  0  0  0
   11.9716   13.6224   27.2813 C   0  0  0  0  0  0  0  0  0  0  0  0
    6.9984   13.8490   26.0707 C   0  0  0  0  0  0  0  0  0  0  0  0
    6.2076   13.6758   24.7690 C   0  0  0  0  0  0  0  0  0  0  0  0
  1  2  2  0
  2  3  1  0
  3  4  1  0
  5  4  1  1
  5  6  1  0
  6  7  1  0
  4  8  1  0
  8  9  1  0
  9 10  1  0
 10 11  1  0
 11 12  1  0
  2 13  1  0
 13 14  1  0
 14 15  1  0
 15 16  1  0
 16 17  1  0
 17 18  2  0
 17 19  2  0
 17 20  1  0
 20 21  1  0
 21 22  1  0
 22 23  1  0
 23 24  1  0
 24 25  1  0
 16 26  1  0
 26 27  1  0
 12  4  1  0
 27 13  1  0
  7  5  1  0
 25 20  1  0
M  END
>  <energy_score>  (1055) 
-34.700133

>  <inchikey>  (1055) 
None

>  <smiles>  (1055) 
None

>  <ref_pdb>  (1055) 
A4706a

>  <alias>  (1055) 
None

>  <HIPPO Pose ID>  (1055) 
500165

>  <name>  (1055) 
P500165

>  <HIPPO Compound ID>  (1055) 
314560

>  <ref_mols>  (1055) 
A4706a,A0875a

>  <distance_score>  (1055) 
1.729076

>  <inspiration_score>  (1055) 
None

$$$$
P500166
     RDKit          3D

 27 28  0  0  0  0  0  0  0  0999 V2000
   15.4969   14.1073   31.8649 C   0  0  0  0  0  0  0  0  0  0  0  0
   15.8449   14.6843   30.5061 C   0  0  0  0  0  0  0  0  0  0  0  0
   15.8280   13.6506   29.5092 O   0  0  0  0  0  0  0  0  0  0  0  0
   16.9918   12.9363   29.3912 C   0  0  0  0  0  0  0  0  0  0  0  0
   18.0211   13.1881   30.0044 O   0  0  0  0  0  0  0  0  0  0  0  0
   16.8435   11.8157   28.3542 C   0  0  2  0  0  0  0  0  0  0  0  0
   15.4587   11.5213   28.0396 O   0  0  0  0  0  0  0  0  0  0  0  0
   14.9138   12.2278   27.0194 C   0  0  0  0  0  0  0  0  0  0  0  0
   15.5265   12.9268   26.2340 O   0  0  0  0  0  0  0  0  0  0  0  0
   13.4133   12.1083   26.9820 C   0  0  0  0  0  0  0  0  0  0  0  0
   12.7862   13.3121   27.6506 C   0  0  0  0  0  0  0  0  0  0  0  0
   11.4612   13.8334   27.0985 C   0  0  0  0  0  0  0  0  0  0  0  0
   11.0092   13.1996   25.8218 N   0  0  0  0  0  0  0  0  0  0  0  0
    9.7189   14.0670   25.0962 S   0  0  0  0  0  0  0  0  0  0  0  0
    9.6710   13.8081   23.6804 O   0  0  0  0  0  0  0  0  0  0  0  0
    9.7763   15.4059   25.6235 O   0  0  0  0  0  0  0  0  0  0  0  0
    8.3894   13.2975   25.8098 N   0  0  0  0  0  0  0  0  0  0  0  0
    8.0315   11.9884   25.2013 C   0  0  0  0  0  0  0  0  0  0  0  0
    7.0109   11.2896   26.0906 C   0  0  0  0  0  0  0  0  0  0  0  0
    5.7845   12.1554   26.3605 C   0  0  0  0  0  0  0  0  0  0  0  0
    6.1863   13.5364   26.8616 C   0  0  0  0  0  0  0  0  0  0  0  0
    7.1901   14.1821   25.9146 C   0  0  0  0  0  0  0  0  0  0  0  0
   12.1333   12.9111   24.9208 C   0  0  0  0  0  0  0  0  0  0  0  0
   12.9277   11.7800   25.5614 C   0  0  0  0  0  0  0  0  0  0  0  0
   17.5401   10.5336   28.8772 C   0  0  2  0  0  0  0  0  0  0  0  0
   17.8162    9.5610   27.7269 C   0  0  0  0  0  0  0  0  0  0  0  0
   16.7553    9.8569   29.9230 N   0  0  0  0  0  0  0  0  0  0  0  0
  1  2  1  0
  2  3  1  0
  3  4  1  0
  4  5  2  0
  4  6  1  0
  6  7  1  1
  7  8  1  0
  8  9  2  0
  8 10  1  0
 10 11  1  0
 11 12  1  0
 12 13  1  0
 13 14  1  0
 14 15  2  0
 14 16  2  0
 14 17  1  0
 17 18  1  0
 18 19  1  0
 19 20  1  0
 20 21  1  0
 21 22  1  0
 13 23  1  0
 23 24  1  0
  6 25  1  0
 25 26  1  6
 25 27  1  0
 24 10  1  0
 22 17  1  0
M  END
>  <energy_score>  (1056) 
-76.842428

>  <inchikey>  (1056) 
None

>  <smiles>  (1056) 
None

>  <ref_pdb>  (1056) 
A4706a

>  <alias>  (1056) 
None

>  <HIPPO Pose ID>  (1056) 
500166

>  <name>  (1056) 
P500166

>  <HIPPO Compound ID>  (1056) 
314561

>  <ref_mols>  (1056) 
A4706a,A0875a

>  <distance_score>  (1056) 
1.878693

>  <inspiration_score>  (1056) 
None

$$$$
P500169
     RDKit          3D

 27 29  0  0  0  0  0  0  0  0999 V2000
   11.5013   14.9575   18.2788 C   0  0  0  0  0  0  0  0  0  0  0  0
   10.3323   15.5873   18.9679 C   0  0  0  0  0  0  0  0  0  0  0  0
    9.3617   15.9058   18.4251 O   0  0  0  0  0  0  0  0  0  0  0  0
   10.6884   15.6101   20.4466 N   0  0  0  0  0  0  0  0  0  0  0  0
    9.8829   15.9456   21.6055 C   0  0  2  0  0  0  0  0  0  0  0  0
   10.8024   15.6607   22.7707 C   0  0  0  0  0  0  0  0  0  0  0  0
   10.8354   14.2270   22.8859 O   0  0  0  0  0  0  0  0  0  0  0  0
    9.6670   13.7283   22.1959 C   0  0  0  0  0  0  0  0  0  0  0  0
    8.7829   14.9028   21.7736 C   0  0  1  0  0  0  0  0  0  0  0  0
    7.7854   15.2335   22.7779 O   0  0  0  0  0  0  0  0  0  0  0  0
    6.8797   14.2425   23.0058 C   0  0  0  0  0  0  0  0  0  0  0  0
    6.7959   13.2327   22.2998 O   0  0  0  0  0  0  0  0  0  0  0  0
    5.9588   14.4205   24.2278 C   0  0  0  0  0  0  0  0  0  0  0  0
    5.7365   13.0334   24.8592 C   0  0  0  0  0  0  0  0  0  0  0  0
    7.0013   12.5211   25.5424 C   0  0  0  0  0  0  0  0  0  0  0  0
    7.6028   13.5065   26.4813 N   0  0  0  0  0  0  0  0  0  0  0  0
    9.1686   14.0690   26.2073 S   0  0  0  0  0  0  0  0  0  0  0  0
    9.1596   14.6364   24.8913 O   0  0  0  0  0  0  0  0  0  0  0  0
    9.5280   14.9045   27.3273 O   0  0  0  0  0  0  0  0  0  0  0  0
   10.2908   12.8087   26.2005 N   0  0  0  0  0  0  0  0  0  0  0  0
   11.6571   13.4290   26.0465 C   0  0  0  0  0  0  0  0  0  0  0  0
   12.5775   12.6943   25.0942 C   0  0  0  0  0  0  0  0  0  0  0  0
   12.5419   11.2409   25.4547 C   0  0  0  0  0  0  0  0  0  0  0  0
   11.1388   10.6474   25.2389 C   0  0  0  0  0  0  0  0  0  0  0  0
   10.0213   11.6624   25.3254 C   0  0  0  0  0  0  0  0  0  0  0  0
    6.6771   14.6773   26.6866 C   0  0  0  0  0  0  0  0  0  0  0  0
    6.3633   15.3870   25.3503 C   0  0  0  0  0  0  0  0  0  0  0  0
  1  2  1  0
  2  3  2  0
  2  4  1  0
  5  4  1  6
  5  6  1  0
  6  7  1  0
  7  8  1  0
  8  9  1  0
  9 10  1  1
 10 11  1  0
 11 12  2  0
 11 13  1  0
 13 14  1  0
 14 15  1  0
 15 16  1  0
 16 17  1  0
 17 18  2  0
 17 19  2  0
 17 20  1  0
 20 21  1  0
 21 22  1  0
 22 23  1  0
 23 24  1  0
 24 25  1  0
 16 26  1  0
 26 27  1  0
  9  5  1  0
 27 13  1  0
 25 20  1  0
M  END
>  <energy_score>  (1057) 
-32.8805

>  <inchikey>  (1057) 
None

>  <smiles>  (1057) 
None

>  <ref_pdb>  (1057) 
A4706a

>  <alias>  (1057) 
None

>  <HIPPO Pose ID>  (1057) 
500169

>  <name>  (1057) 
P500169

>  <HIPPO Compound ID>  (1057) 
314562

>  <ref_mols>  (1057) 
A0875a,A4706a

>  <distance_score>  (1057) 
1.61105

>  <inspiration_score>  (1057) 
None

$$$$
P500171
     RDKit          3D

 27 29  0  0  0  0  0  0  0  0999 V2000
   12.0105   14.6833   19.3445 C   0  0  0  0  0  0  0  0  0  0  0  0
   10.6258   15.1167   18.9970 C   0  0  0  0  0  0  0  0  0  0  0  0
    9.9506   15.8521   19.9920 O   0  0  0  0  0  0  0  0  0  0  0  0
    9.6329   15.3167   21.2831 C   0  0  2  0  0  0  0  0  0  0  0  0
    8.1226   15.5940   21.4686 C   0  0  0  0  0  0  0  0  0  0  0  0
    7.6048   15.2549   22.7554 O   0  0  0  0  0  0  0  0  0  0  0  0
    6.9942   14.0427   22.9086 C   0  0  0  0  0  0  0  0  0  0  0  0
    6.4252   13.3731   22.0629 O   0  0  0  0  0  0  0  0  0  0  0  0
    7.2448   13.6235   24.3200 C   0  0  0  0  0  0  0  0  0  0  0  0
    7.1457   12.1699   24.7303 C   0  0  0  0  0  0  0  0  0  0  0  0
    7.9531   11.9469   26.0135 C   0  0  0  0  0  0  0  0  0  0  0  0
    8.4071   13.2192   26.6175 N   0  0  0  0  0  0  0  0  0  0  0  0
    9.8845   14.0006   26.3428 S   0  0  0  0  0  0  0  0  0  0  0  0
   10.1156   14.7274   27.5661 O   0  0  0  0  0  0  0  0  0  0  0  0
    9.8861   14.7270   25.0997 O   0  0  0  0  0  0  0  0  0  0  0  0
   11.0627   12.8169   26.2258 N   0  0  0  0  0  0  0  0  0  0  0  0
   11.2179   12.0382   24.9708 C   0  0  0  0  0  0  0  0  0  0  0  0
   12.2587   10.9768   25.3236 C   0  0  0  0  0  0  0  0  0  0  0  0
   13.6704   11.4840   25.4232 C   0  0  0  0  0  0  0  0  0  0  0  0
   13.5901   12.9210   25.8938 C   0  0  0  0  0  0  0  0  0  0  0  0
   12.3924   13.1850   26.8331 C   0  0  0  0  0  0  0  0  0  0  0  0
    7.2511   14.1565   26.7746 C   0  0  0  0  0  0  0  0  0  0  0  0
    6.7295   14.5706   25.3976 C   0  0  0  0  0  0  0  0  0  0  0  0
   10.5531   15.9774   22.2739 C   0  0  0  0  0  0  0  0  0  0  0  0
   11.6618   14.9933   22.5535 C   0  0  0  0  0  0  0  0  0  0  0  0
   11.2820   13.7368   22.0080 O   0  0  0  0  0  0  0  0  0  0  0  0
    9.9295   13.8671   21.5701 C   0  0  0  0  0  0  0  0  0  0  0  0
  1  2  1  0
  2  3  1  0
  4  3  1  0
  4  5  1  1
  5  6  1  0
  6  7  1  0
  7  8  2  0
  7  9  1  0
  9 10  1  0
 10 11  1  0
 11 12  1  0
 12 13  1  0
 13 14  2  0
 13 15  2  0
 13 16  1  0
 16 17  1  0
 17 18  1  0
 18 19  1  0
 19 20  1  0
 20 21  1  0
 12 22  1  0
 22 23  1  0
  4 24  1  0
 24 25  1  0
 25 26  1  0
 26 27  1  0
 27  4  1  0
 23  9  1  0
 21 16  1  0
M  END
>  <energy_score>  (1058) 
-92.946199

>  <inchikey>  (1058) 
None

>  <smiles>  (1058) 
None

>  <ref_pdb>  (1058) 
A4706a

>  <alias>  (1058) 
None

>  <HIPPO Pose ID>  (1058) 
500171

>  <name>  (1058) 
P500171

>  <HIPPO Compound ID>  (1058) 
314564

>  <ref_mols>  (1058) 
A4706a,A0875a

>  <distance_score>  (1058) 
1.205858

>  <inspiration_score>  (1058) 
None

$$$$
P500173
     RDKit          3D

 27 29  0  0  0  0  0  0  0  0999 V2000
   11.3691   14.3772   18.8699 C   0  0  0  0  0  0  0  0  0  0  0  0
   10.6712   15.0673   20.0296 C   0  0  0  0  0  0  0  0  0  0  0  0
   10.0200   16.2689   19.3870 C   0  0  0  0  0  0  0  0  0  0  0  0
   11.7352   15.2204   21.1453 C   0  0  0  0  0  0  0  0  0  0  0  0
   11.2832   15.5625   22.4497 O   0  0  0  0  0  0  0  0  0  0  0  0
    9.8873   15.7663   22.4562 C   0  0  0  0  0  0  0  0  0  0  0  0
    9.0937   14.6371   21.7956 C   0  0  1  0  0  0  0  0  0  0  0  0
    7.6030   15.0411   21.7489 C   0  0  0  0  0  0  0  0  0  0  0  0
    6.9275   15.0355   23.0287 O   0  0  0  0  0  0  0  0  0  0  0  0
    6.5113   13.8093   23.4252 C   0  0  0  0  0  0  0  0  0  0  0  0
    6.6441   12.8059   22.7318 O   0  0  0  0  0  0  0  0  0  0  0  0
    5.8064   13.7692   24.7825 C   0  0  0  0  0  0  0  0  0  0  0  0
    5.9684   12.3668   25.3991 C   0  0  0  0  0  0  0  0  0  0  0  0
    7.3739   12.0770   25.9121 C   0  0  0  0  0  0  0  0  0  0  0  0
    7.9484   13.2338   26.6404 N   0  0  0  0  0  0  0  0  0  0  0  0
    9.2514   14.0108   25.9186 S   0  0  0  0  0  0  0  0  0  0  0  0
    9.4856   15.2189   26.6725 O   0  0  0  0  0  0  0  0  0  0  0  0
    8.9874   14.0598   24.5139 O   0  0  0  0  0  0  0  0  0  0  0  0
   10.6013   13.0506   26.0994 N   0  0  0  0  0  0  0  0  0  0  0  0
   11.8249   13.8844   25.9107 C   0  0  0  0  0  0  0  0  0  0  0  0
   12.6763   13.3979   24.7492 C   0  0  0  0  0  0  0  0  0  0  0  0
   13.2292   12.0398   25.0879 C   0  0  0  0  0  0  0  0  0  0  0  0
   12.0974   11.2158   25.6178 C   0  0  0  0  0  0  0  0  0  0  0  0
   10.6906   11.7765   25.3492 C   0  0  0  0  0  0  0  0  0  0  0  0
    6.8865   14.2080   27.0509 C   0  0  0  0  0  0  0  0  0  0  0  0
    6.2208   14.8285   25.8139 C   0  0  0  0  0  0  0  0  0  0  0  0
    9.5693   14.2852   20.4893 O   0  0  0  0  0  0  0  0  0  0  0  0
  1  2  1  0
  2  3  1  0
  2  4  1  0
  4  5  1  0
  5  6  1  0
  6  7  1  0
  7  8  1  6
  8  9  1  0
  9 10  1  0
 10 11  2  0
 10 12  1  0
 12 13  1  0
 13 14  1  0
 14 15  1  0
 15 16  1  0
 16 17  2  0
 16 18  2  0
 16 19  1  0
 19 20  1  0
 20 21  1  0
 21 22  1  0
 22 23  1  0
 23 24  1  0
 15 25  1  0
 25 26  1  0
  7 27  1  0
 27  2  1  0
 26 12  1  0
 24 19  1  0
M  END
>  <energy_score>  (1059) 
-63.930159

>  <inchikey>  (1059) 
None

>  <smiles>  (1059) 
None

>  <ref_pdb>  (1059) 
A4706a

>  <alias>  (1059) 
None

>  <HIPPO Pose ID>  (1059) 
500173

>  <name>  (1059) 
P500173

>  <HIPPO Compound ID>  (1059) 
314566

>  <ref_mols>  (1059) 
A4706a,A0875a

>  <distance_score>  (1059) 
1.655321

>  <inspiration_score>  (1059) 
None

$$$$
P500175
     RDKit          3D

 27 30  0  0  0  0  0  0  0  0999 V2000
    5.7925   15.1063   22.4804 O   0  0  0  0  0  0  0  0  0  0  0  0
    6.7919   15.1379   23.1752 C   0  0  0  0  0  0  0  0  0  0  0  0
    7.9878   15.7518   22.8903 O   0  0  0  0  0  0  0  0  0  0  0  0
    8.2923   16.0052   21.5313 C   0  0  2  0  0  0  0  0  0  0  0  0
    8.2775   14.7360   20.7232 C   0  0  0  0  0  0  0  0  0  0  0  0
    9.1693   14.9118   19.6234 O   0  0  0  0  0  0  0  0  0  0  0  0
    9.8678   16.1277   19.7798 C   0  0  0  0  0  0  0  0  0  0  0  0
    9.7053   16.5074   21.2304 C   0  0  2  0  0  0  0  0  0  0  0  0
   10.8573   15.9600   22.0622 C   0  0  0  0  0  0  0  0  0  0  0  0
   11.2065   14.5313   21.8345 C   0  0  0  0  0  0  0  0  0  0  0  0
   11.7953   13.8064   22.9844 C   0  0  0  0  0  0  0  0  0  0  0  0
   10.4352   13.4441   22.5137 C   0  0  0  0  0  0  0  0  0  0  0  0
    6.9941   14.4192   24.4772 C   0  0  0  0  0  0  0  0  0  0  0  0
    6.6104   12.9611   24.6119 C   0  0  0  0  0  0  0  0  0  0  0  0
    7.7167   12.3066   25.4624 C   0  0  0  0  0  0  0  0  0  0  0  0
    8.2492   13.2381   26.5107 N   0  0  0  0  0  0  0  0  0  0  0  0
    9.7785   13.9900   26.4035 S   0  0  0  0  0  0  0  0  0  0  0  0
    9.9547   14.6389   27.6808 O   0  0  0  0  0  0  0  0  0  0  0  0
    9.8953   14.7996   25.2192 O   0  0  0  0  0  0  0  0  0  0  0  0
   10.9533   12.8032   26.3277 N   0  0  0  0  0  0  0  0  0  0  0  0
   12.3073   13.2501   26.7966 C   0  0  0  0  0  0  0  0  0  0  0  0
   13.4721   12.9649   25.8252 C   0  0  0  0  0  0  0  0  0  0  0  0
   13.5479   11.5536   25.3017 C   0  0  0  0  0  0  0  0  0  0  0  0
   12.2116   10.9271   25.4907 C   0  0  0  0  0  0  0  0  0  0  0  0
   10.9501   11.7392   25.3208 C   0  0  0  0  0  0  0  0  0  0  0  0
    7.1706   14.2120   26.9484 C   0  0  0  0  0  0  0  0  0  0  0  0
    6.7781   15.1473   25.7876 C   0  0  0  0  0  0  0  0  0  0  0  0
  1  2  2  0
  2  3  1  0
  4  3  1  1
  4  5  1  0
  5  6  1  0
  6  7  1  0
  7  8  1  0
  8  9  1  1
  9 10  1  0
 10 11  1  0
 11 12  1  0
  2 13  1  0
 13 14  1  0
 14 15  1  0
 15 16  1  0
 16 17  1  0
 17 18  2  0
 17 19  2  0
 17 20  1  0
 20 21  1  0
 21 22  1  0
 22 23  1  0
 23 24  1  0
 24 25  1  0
 16 26  1  0
 26 27  1  0
  8  4  1  0
 12 10  1  0
 27 13  1  0
 25 20  1  0
M  END
>  <energy_score>  (1060) 
-3.27841

>  <inchikey>  (1060) 
None

>  <smiles>  (1060) 
None

>  <ref_pdb>  (1060) 
A4706a

>  <alias>  (1060) 
None

>  <HIPPO Pose ID>  (1060) 
500175

>  <name>  (1060) 
P500175

>  <HIPPO Compound ID>  (1060) 
314568

>  <ref_mols>  (1060) 
A0875a,A4706a

>  <distance_score>  (1060) 
1.534056

>  <inspiration_score>  (1060) 
None

$$$$
P500177
     RDKit          3D

 27 30  0  0  0  0  0  0  0  0999 V2000
    5.1679   15.1349   23.3507 O   0  0  0  0  0  0  0  0  0  0  0  0
    6.2449   15.0892   23.9131 C   0  0  0  0  0  0  0  0  0  0  0  0
    7.3926   15.7713   23.5805 O   0  0  0  0  0  0  0  0  0  0  0  0
    7.8115   15.7682   22.2226 C   0  0  2  0  0  0  0  0  0  0  0  0
    7.3191   14.5801   21.4187 C   0  0  0  0  0  0  0  0  0  0  0  0
    8.1360   14.5353   20.2431 O   0  0  0  0  0  0  0  0  0  0  0  0
    9.3574   14.9405   20.6875 C   0  0  0  0  0  0  0  0  0  0  0  0
   10.5295   14.7313   19.9989 C   0  0  0  0  0  0  0  0  0  0  0  0
   11.7071   14.9717   20.6782 C   0  0  0  0  0  0  0  0  0  0  0  0
   11.6729   15.4228   21.9990 C   0  0  0  0  0  0  0  0  0  0  0  0
   10.4575   15.7140   22.6260 C   0  0  0  0  0  0  0  0  0  0  0  0
    9.2785   15.5085   21.9450 C   0  0  0  0  0  0  0  0  0  0  0  0
    6.6403   14.2013   25.0552 C   0  0  0  0  0  0  0  0  0  0  0  0
    6.3107   12.7251   25.1887 C   0  0  0  0  0  0  0  0  0  0  0  0
    7.5176   11.9872   25.8475 C   0  0  0  0  0  0  0  0  0  0  0  0
    8.4983   12.9546   26.4858 N   0  0  0  0  0  0  0  0  0  0  0  0
    9.7316   13.5813   25.4602 S   0  0  0  0  0  0  0  0  0  0  0  0
    9.4446   13.1505   24.1117 O   0  0  0  0  0  0  0  0  0  0  0  0
    9.9117   14.9737   25.7953 O   0  0  0  0  0  0  0  0  0  0  0  0
   11.1366   12.7663   25.9502 N   0  0  0  0  0  0  0  0  0  0  0  0
   11.8418   13.4659   27.0579 C   0  0  0  0  0  0  0  0  0  0  0  0
   13.1319   12.7400   27.4640 C   0  0  0  0  0  0  0  0  0  0  0  0
   14.0034   12.2615   26.3158 C   0  0  0  0  0  0  0  0  0  0  0  0
   13.1587   11.6422   25.2301 C   0  0  0  0  0  0  0  0  0  0  0  0
   12.0695   12.6116   24.8003 C   0  0  0  0  0  0  0  0  0  0  0  0
    7.7413   13.9944   27.2796 C   0  0  0  0  0  0  0  0  0  0  0  0
    6.8657   14.8786   26.3884 C   0  0  0  0  0  0  0  0  0  0  0  0
  1  2  2  0
  2  3  1  0
  4  3  1  1
  4  5  1  0
  5  6  1  0
  6  7  1  0
  7  8  2  0
  8  9  1  0
  9 10  2  0
 10 11  1  0
 11 12  2  0
  2 13  1  0
 13 14  1  0
 14 15  1  0
 15 16  1  0
 16 17  1  0
 17 18  2  0
 17 19  2  0
 17 20  1  0
 20 21  1  0
 21 22  1  0
 22 23  1  0
 23 24  1  0
 24 25  1  0
 16 26  1  0
 26 27  1  0
 12  4  1  0
 27 13  1  0
 12  7  1  0
 25 20  1  0
M  END
>  <energy_score>  (1061) 
-12.3154

>  <inchikey>  (1061) 
None

>  <smiles>  (1061) 
None

>  <ref_pdb>  (1061) 
A4706a

>  <alias>  (1061) 
None

>  <HIPPO Pose ID>  (1061) 
500177

>  <name>  (1061) 
P500177

>  <HIPPO Compound ID>  (1061) 
314570

>  <ref_mols>  (1061) 
A4706a,A0875a

>  <distance_score>  (1061) 
1.907001

>  <inspiration_score>  (1061) 
None

$$$$
P500179
     RDKit          3D

 27 30  0  0  0  0  0  0  0  0999 V2000
    5.4318   14.8167   22.6344 O   0  0  0  0  0  0  0  0  0  0  0  0
    6.2759   14.9297   23.5191 C   0  0  0  0  0  0  0  0  0  0  0  0
    7.5167   15.4619   23.3286 O   0  0  0  0  0  0  0  0  0  0  0  0
    7.8531   15.7844   21.9590 C   0  0  2  0  0  0  0  0  0  0  0  0
    7.8941   14.5650   21.0753 C   0  0  0  0  0  0  0  0  0  0  0  0
    8.7930   14.8306   19.9868 O   0  0  0  0  0  0  0  0  0  0  0  0
    9.5098   16.0354   20.2351 C   0  0  0  0  0  0  0  0  0  0  0  0
    9.2591   16.3538   21.6971 C   0  0  2  0  0  0  0  0  0  0  0  0
   10.3193   15.8465   22.5709 N   0  0  0  0  0  0  0  0  0  0  0  0
   10.8790   14.5889   22.1631 C   0  0  0  0  0  0  0  0  0  0  0  0
   12.1733   14.6661   21.4473 C   0  0  0  0  0  0  0  0  0  0  0  0
   12.0785   14.0570   22.8228 C   0  0  0  0  0  0  0  0  0  0  0  0
    6.0314   14.3619   24.9275 C   0  0  0  0  0  0  0  0  0  0  0  0
    6.2758   12.8325   24.9296 C   0  0  0  0  0  0  0  0  0  0  0  0
    7.3262   12.2635   25.8862 C   0  0  0  0  0  0  0  0  0  0  0  0
    8.2881   13.2979   26.3230 N   0  0  0  0  0  0  0  0  0  0  0  0
    9.4003   13.8129   25.1603 S   0  0  0  0  0  0  0  0  0  0  0  0
    9.6258   15.2200   25.3697 O   0  0  0  0  0  0  0  0  0  0  0  0
    8.9818   13.2620   23.8983 O   0  0  0  0  0  0  0  0  0  0  0  0
   10.8084   13.0547   25.5898 N   0  0  0  0  0  0  0  0  0  0  0  0
   11.5416   13.5946   26.7288 C   0  0  0  0  0  0  0  0  0  0  0  0
   13.0054   13.2141   26.6213 C   0  0  0  0  0  0  0  0  0  0  0  0
   13.2172   11.7490   26.5678 C   0  0  0  0  0  0  0  0  0  0  0  0
   12.4450   11.2287   25.3799 C   0  0  0  0  0  0  0  0  0  0  0  0
   10.9734   11.6518   25.2517 C   0  0  0  0  0  0  0  0  0  0  0  0
    7.5504   14.3819   27.0186 C   0  0  0  0  0  0  0  0  0  0  0  0
    6.6738   15.1744   26.0569 C   0  0  0  0  0  0  0  0  0  0  0  0
  1  2  2  0
  2  3  1  0
  4  3  1  1
  4  5  1  0
  5  6  1  0
  6  7  1  0
  7  8  1  0
  8  9  1  1
  9 10  1  0
 10 11  1  0
 11 12  1  0
  2 13  1  0
 13 14  1  0
 14 15  1  0
 15 16  1  0
 16 17  1  0
 17 18  2  0
 17 19  2  0
 17 20  1  0
 20 21  1  0
 21 22  1  0
 22 23  1  0
 23 24  1  0
 24 25  1  0
 16 26  1  0
 26 27  1  0
  8  4  1  0
 12 10  1  0
 27 13  1  0
 25 20  1  0
M  END
>  <energy_score>  (1062) 
-48.893717

>  <inchikey>  (1062) 
None

>  <smiles>  (1062) 
None

>  <ref_pdb>  (1062) 
A4706a

>  <alias>  (1062) 
None

>  <HIPPO Pose ID>  (1062) 
500179

>  <name>  (1062) 
P500179

>  <HIPPO Compound ID>  (1062) 
314573

>  <ref_mols>  (1062) 
A0875a,A4706a

>  <distance_score>  (1062) 
1.824428

>  <inspiration_score>  (1062) 
None

$$$$
P500180
     RDKit          3D

 27 29  0  0  0  0  0  0  0  0999 V2000
   11.1563   15.3948   18.5753 C   0  0  0  0  0  0  0  0  0  0  0  0
    9.7896   15.6117   19.2066 C   0  0  0  0  0  0  0  0  0  0  0  0
    9.4810   16.9720   19.8957 C   0  0  0  0  0  0  0  0  0  0  0  0
    9.6063   14.5485   20.1852 N   0  0  0  0  0  0  0  0  0  0  0  0
   10.4204   14.8198   21.3400 C   0  0  2  0  0  0  0  0  0  0  0  0
   11.2907   13.7299   21.9074 C   0  0  0  0  0  0  0  0  0  0  0  0
   11.7143   14.2710   23.1783 O   0  0  0  0  0  0  0  0  0  0  0  0
   10.7976   15.3565   23.4550 C   0  0  0  0  0  0  0  0  0  0  0  0
    9.5926   15.1905   22.5407 C   0  0  2  0  0  0  0  0  0  0  0  0
    8.7538   14.0560   22.8646 O   0  0  0  0  0  0  0  0  0  0  0  0
    7.4033   14.2556   22.9648 C   0  0  0  0  0  0  0  0  0  0  0  0
    6.6768   14.5698   22.0431 O   0  0  0  0  0  0  0  0  0  0  0  0
    7.0176   13.9696   24.3927 C   0  0  0  0  0  0  0  0  0  0  0  0
    6.5953   12.5832   24.8484 C   0  0  0  0  0  0  0  0  0  0  0  0
    6.9819   12.4018   26.3398 C   0  0  0  0  0  0  0  0  0  0  0  0
    7.4326   13.6814   26.9550 N   0  0  0  0  0  0  0  0  0  0  0  0
    9.0292   14.2782   26.9939 S   0  0  0  0  0  0  0  0  0  0  0  0
    9.1542   15.3138   25.9920 O   0  0  0  0  0  0  0  0  0  0  0  0
    9.2868   14.6400   28.3637 O   0  0  0  0  0  0  0  0  0  0  0  0
   10.1401   13.0338   26.6040 N   0  0  0  0  0  0  0  0  0  0  0  0
   10.0045   12.4452   25.2689 C   0  0  0  0  0  0  0  0  0  0  0  0
   10.9417   11.2998   25.0597 C   0  0  0  0  0  0  0  0  0  0  0  0
   12.3959   11.7256   25.2595 C   0  0  0  0  0  0  0  0  0  0  0  0
   12.6166   12.5155   26.5330 C   0  0  0  0  0  0  0  0  0  0  0  0
   11.5458   13.5713   26.7699 C   0  0  0  0  0  0  0  0  0  0  0  0
    6.4086   14.7567   26.7000 C   0  0  0  0  0  0  0  0  0  0  0  0
    6.2963   15.0501   25.1852 C   0  0  0  0  0  0  0  0  0  0  0  0
  1  2  1  0
  2  3  1  0
  2  4  1  0
  5  4  1  6
  5  6  1  0
  6  7  1  0
  7  8  1  0
  8  9  1  0
  9 10  1  1
 10 11  1  0
 11 12  2  0
 11 13  1  0
 13 14  1  0
 14 15  1  0
 15 16  1  0
 16 17  1  0
 17 18  2  0
 17 19  2  0
 17 20  1  0
 20 21  1  0
 21 22  1  0
 22 23  1  0
 23 24  1  0
 24 25  1  0
 16 26  1  0
 26 27  1  0
  9  5  1  0
 27 13  1  0
 25 20  1  0
M  END
>  <energy_score>  (1063) 
-7.092251

>  <inchikey>  (1063) 
None

>  <smiles>  (1063) 
None

>  <ref_pdb>  (1063) 
A4706a

>  <alias>  (1063) 
None

>  <HIPPO Pose ID>  (1063) 
500180

>  <name>  (1063) 
P500180

>  <HIPPO Compound ID>  (1063) 
314574

>  <ref_mols>  (1063) 
A4706a,A0875a

>  <distance_score>  (1063) 
1.663423

>  <inspiration_score>  (1063) 
None

$$$$
P500183
     RDKit          3D

 27 30  0  0  0  0  0  0  0  0999 V2000
    5.8014   14.5534   21.8129 O   0  0  0  0  0  0  0  0  0  0  0  0
    6.4716   14.7992   22.8099 C   0  0  0  0  0  0  0  0  0  0  0  0
    7.6820   15.4130   22.8040 O   0  0  0  0  0  0  0  0  0  0  0  0
    8.3517   15.6491   21.5528 C   0  0  2  0  0  0  0  0  0  0  0  0
    8.7218   14.3798   20.8200 C   0  0  0  0  0  0  0  0  0  0  0  0
    9.6750   14.6345   19.6302 C   0  0  0  0  0  0  0  0  0  0  0  0
   10.8126   15.5437   19.8667 C   0  0  2  0  0  0  0  0  0  0  0  0
   11.8989   14.9527   20.7530 C   0  0  0  0  0  0  0  0  0  0  0  0
   11.4795   14.7842   22.1957 C   0  0  0  0  0  0  0  0  0  0  0  0
   10.7226   16.0183   22.6180 C   0  0  0  0  0  0  0  0  0  0  0  0
    9.6163   16.4863   21.6668 C   0  0  1  0  0  0  0  0  0  0  0  0
   10.1988   16.6995   20.3883 O   0  0  0  0  0  0  0  0  0  0  0  0
    6.0455   14.3238   24.2064 C   0  0  0  0  0  0  0  0  0  0  0  0
    6.5705   12.8764   24.3644 C   0  0  0  0  0  0  0  0  0  0  0  0
    6.9641   12.4490   25.7651 C   0  0  0  0  0  0  0  0  0  0  0  0
    7.7224   13.5116   26.4354 N   0  0  0  0  0  0  0  0  0  0  0  0
    9.1981   14.0643   25.8430 S   0  0  0  0  0  0  0  0  0  0  0  0
    9.6688   15.0617   26.7735 O   0  0  0  0  0  0  0  0  0  0  0  0
    9.0719   14.3668   24.4490 O   0  0  0  0  0  0  0  0  0  0  0  0
   10.3049   12.8109   25.8629 N   0  0  0  0  0  0  0  0  0  0  0  0
   10.1303   11.8116   24.7755 C   0  0  0  0  0  0  0  0  0  0  0  0
   11.0215   10.6417   25.1129 C   0  0  0  0  0  0  0  0  0  0  0  0
   12.4555   11.1337   25.4643 C   0  0  0  0  0  0  0  0  0  0  0  0
   12.6831   12.5709   25.0709 C   0  0  0  0  0  0  0  0  0  0  0  0
   11.6891   13.4204   25.8382 C   0  0  0  0  0  0  0  0  0  0  0  0
    6.7683   14.6458   26.6687 C   0  0  0  0  0  0  0  0  0  0  0  0
    6.3840   15.3064   25.3437 C   0  0  0  0  0  0  0  0  0  0  0  0
  1  2  2  0
  2  3  1  0
  4  3  1  1
  4  5  1  0
  5  6  1  0
  7  6  1  1
  7  8  1  0
  8  9  1  0
  9 10  1  0
 11 10  1  1
 11 12  1  0
  2 13  1  0
 13 14  1  0
 14 15  1  0
 15 16  1  0
 16 17  1  0
 17 18  2  0
 17 19  2  0
 17 20  1  0
 20 21  1  0
 21 22  1  0
 22 23  1  0
 23 24  1  0
 24 25  1  0
 16 26  1  0
 26 27  1  0
 11  4  1  0
 27 13  1  0
 12  7  1  0
 25 20  1  0
M  END
>  <energy_score>  (1064) 
-111.889652

>  <inchikey>  (1064) 
None

>  <smiles>  (1064) 
None

>  <ref_pdb>  (1064) 
A4706a

>  <alias>  (1064) 
None

>  <HIPPO Pose ID>  (1064) 
500183

>  <name>  (1064) 
P500183

>  <HIPPO Compound ID>  (1064) 
314575

>  <ref_mols>  (1064) 
A4706a,A0875a

>  <distance_score>  (1064) 
1.66107

>  <inspiration_score>  (1064) 
None

$$$$
P500185
     RDKit          3D

 27 30  0  0  0  0  0  0  0  0999 V2000
    6.4008   13.4225   22.4945 O   0  0  0  0  0  0  0  0  0  0  0  0
    6.6758   14.0429   23.5174 C   0  0  0  0  0  0  0  0  0  0  0  0
    7.5656   15.0581   23.6219 O   0  0  0  0  0  0  0  0  0  0  0  0
    8.3720   15.5638   22.5442 C   0  0  1  0  0  0  0  0  0  0  0  0
    9.8619   15.6389   22.8913 C   0  0  0  0  0  0  0  0  0  0  0  0
   10.4568   16.1162   21.6930 O   0  0  0  0  0  0  0  0  0  0  0  0
    9.8489   15.2860   20.7154 C   0  0  0  0  0  0  0  0  0  0  0  0
    9.8750   15.8731   19.3137 C   0  0  0  0  0  0  0  0  0  0  0  0
   11.1142   15.2810   18.6308 C   0  0  0  0  0  0  0  0  0  0  0  0
   11.9064   14.6433   19.7399 C   0  0  0  0  0  0  0  0  0  0  0  0
   10.7813   14.1335   20.5814 C   0  0  0  0  0  0  0  0  0  0  0  0
    8.5080   14.7827   21.2710 C   0  0  0  0  0  0  0  0  0  0  0  0
    6.0389   13.6977   24.8796 C   0  0  0  0  0  0  0  0  0  0  0  0
    6.2911   12.2240   25.2544 C   0  0  0  0  0  0  0  0  0  0  0  0
    7.3809   11.9209   26.2815 C   0  0  0  0  0  0  0  0  0  0  0  0
    8.2104   13.1029   26.5713 N   0  0  0  0  0  0  0  0  0  0  0  0
    9.3904   13.4746   25.4471 S   0  0  0  0  0  0  0  0  0  0  0  0
    9.0146   12.7946   24.2306 O   0  0  0  0  0  0  0  0  0  0  0  0
    9.6213   14.8940   25.5064 O   0  0  0  0  0  0  0  0  0  0  0  0
   10.7923   12.7034   26.0284 N   0  0  0  0  0  0  0  0  0  0  0  0
   11.6930   13.5976   26.8062 C   0  0  0  0  0  0  0  0  0  0  0  0
   13.1620   13.1926   26.6881 C   0  0  0  0  0  0  0  0  0  0  0  0
   13.3833   11.7323   26.6470 C   0  0  0  0  0  0  0  0  0  0  0  0
   12.7205   11.2263   25.3914 C   0  0  0  0  0  0  0  0  0  0  0  0
   11.4836   12.0035   24.9298 C   0  0  0  0  0  0  0  0  0  0  0  0
    7.3708   14.2226   27.0513 C   0  0  0  0  0  0  0  0  0  0  0  0
    6.3341   14.6759   26.0260 C   0  0  0  0  0  0  0  0  0  0  0  0
  1  2  2  0
  2  3  1  0
  4  3  1  1
  4  5  1  0
  5  6  1  0
  6  7  1  0
  7  8  1  0
  8  9  1  0
  9 10  1  0
 10 11  1  0
  7 12  1  0
  2 13  1  0
 13 14  1  0
 14 15  1  0
 15 16  1  0
 16 17  1  0
 17 18  2  0
 17 19  2  0
 17 20  1  0
 20 21  1  0
 21 22  1  0
 22 23  1  0
 23 24  1  0
 24 25  1  0
 16 26  1  0
 26 27  1  0
 12  4  1  0
 27 13  1  0
 11  7  1  0
 25 20  1  0
M  END
>  <energy_score>  (1065) 
-23.77446

>  <inchikey>  (1065) 
None

>  <smiles>  (1065) 
None

>  <ref_pdb>  (1065) 
A4706a

>  <alias>  (1065) 
None

>  <HIPPO Pose ID>  (1065) 
500185

>  <name>  (1065) 
P500185

>  <HIPPO Compound ID>  (1065) 
314576

>  <ref_mols>  (1065) 
A0875a,A4706a

>  <distance_score>  (1065) 
1.475202

>  <inspiration_score>  (1065) 
None

$$$$
P500192
     RDKit          3D

 27 29  0  0  0  0  0  0  0  0999 V2000
    6.6067   16.5171   22.3240 N   0  0  0  0  0  0  0  0  0  0  0  0
    7.6273   16.0775   21.9963 C   0  0  0  0  0  0  0  0  0  0  0  0
    8.7885   15.2074   21.7294 C   0  0  1  0  0  0  0  0  0  0  0  0
    8.3953   13.8202   22.0244 O   0  0  0  0  0  0  0  0  0  0  0  0
    7.1832   13.5535   22.6105 C   0  0  0  0  0  0  0  0  0  0  0  0
    6.2050   13.2190   21.9606 O   0  0  0  0  0  0  0  0  0  0  0  0
    7.2111   13.6070   24.1146 C   0  0  0  0  0  0  0  0  0  0  0  0
    6.8252   12.2766   24.7833 C   0  0  0  0  0  0  0  0  0  0  0  0
    7.3034   12.2363   26.2436 C   0  0  0  0  0  0  0  0  0  0  0  0
    7.6908   13.5846   26.6877 N   0  0  0  0  0  0  0  0  0  0  0  0
    9.2433   14.2328   26.5983 S   0  0  0  0  0  0  0  0  0  0  0  0
    9.2726   15.2403   25.5669 O   0  0  0  0  0  0  0  0  0  0  0  0
    9.6043   14.6088   27.9410 O   0  0  0  0  0  0  0  0  0  0  0  0
   10.3421   13.0526   26.1333 N   0  0  0  0  0  0  0  0  0  0  0  0
   11.7372   13.6256   26.1857 C   0  0  0  0  0  0  0  0  0  0  0  0
   12.7222   12.8404   25.3163 C   0  0  0  0  0  0  0  0  0  0  0  0
   12.4261   11.3658   25.4752 C   0  0  0  0  0  0  0  0  0  0  0  0
   10.9653   11.0186   25.0919 C   0  0  0  0  0  0  0  0  0  0  0  0
   10.1715   12.2835   24.8991 C   0  0  0  0  0  0  0  0  0  0  0  0
    6.6017   14.5609   26.3822 C   0  0  0  0  0  0  0  0  0  0  0  0
    6.4786   14.7296   24.8558 C   0  0  0  0  0  0  0  0  0  0  0  0
    9.1869   15.3723   20.2359 C   0  0  0  0  0  0  0  0  0  0  0  0
   10.3291   14.7206   19.5965 N   0  0  0  0  0  0  0  0  0  0  0  0
   11.5558   14.6812   20.3616 C   0  0  0  0  0  0  0  0  0  0  0  0
   11.3604   13.9296   21.6716 C   0  0  0  0  0  0  0  0  0  0  0  0
   11.0741   14.7640   22.7771 O   0  0  0  0  0  0  0  0  0  0  0  0
    9.9931   15.6589   22.5662 C   0  0  0  0  0  0  0  0  0  0  0  0
  1  2  3  0
  3  2  1  1
  3  4  1  0
  4  5  1  0
  5  6  2  0
  5  7  1  0
  7  8  1  0
  8  9  1  0
  9 10  1  0
 10 11  1  0
 11 12  2  0
 11 13  2  0
 11 14  1  0
 14 15  1  0
 15 16  1  0
 16 17  1  0
 17 18  1  0
 18 19  1  0
 10 20  1  0
 20 21  1  0
  3 22  1  0
 22 23  1  0
 23 24  1  0
 24 25  1  0
 25 26  1  0
 26 27  1  0
 27  3  1  0
 21  7  1  0
 19 14  1  0
M  END
>  <energy_score>  (1066) 
-4.648995

>  <inchikey>  (1066) 
None

>  <smiles>  (1066) 
None

>  <ref_pdb>  (1066) 
A4706a

>  <alias>  (1066) 
None

>  <HIPPO Pose ID>  (1066) 
500192

>  <name>  (1066) 
P500192

>  <HIPPO Compound ID>  (1066) 
314579

>  <ref_mols>  (1066) 
A4706a,A0875a

>  <distance_score>  (1066) 
1.548139

>  <inspiration_score>  (1066) 
None

$$$$
P500193
     RDKit          3D

 27 29  0  0  0  0  0  0  0  0999 V2000
    8.8655   13.4025   22.3037 O   0  0  0  0  0  0  0  0  0  0  0  0
    8.6991   14.6125   22.3926 C   0  0  0  0  0  0  0  0  0  0  0  0
    7.3303   15.2882   22.4343 C   0  0  0  0  0  0  0  0  0  0  0  0
    6.5371   14.8765   23.5419 O   0  0  0  0  0  0  0  0  0  0  0  0
    6.0616   13.6143   23.4681 C   0  0  0  0  0  0  0  0  0  0  0  0
    6.0755   12.9401   22.4457 O   0  0  0  0  0  0  0  0  0  0  0  0
    5.5533   13.0943   24.8085 C   0  0  0  0  0  0  0  0  0  0  0  0
    6.4383   11.9237   25.3019 C   0  0  0  0  0  0  0  0  0  0  0  0
    7.4962   12.3492   26.3187 C   0  0  0  0  0  0  0  0  0  0  0  0
    7.8895   13.7040   25.9491 N   0  0  0  0  0  0  0  0  0  0  0  0
    9.3887   14.3152   26.3138 S   0  0  0  0  0  0  0  0  0  0  0  0
    9.7533   15.2418   25.2735 O   0  0  0  0  0  0  0  0  0  0  0  0
    9.3191   14.7417   27.6905 O   0  0  0  0  0  0  0  0  0  0  0  0
   10.5005   13.0391   26.2846 N   0  0  0  0  0  0  0  0  0  0  0  0
   10.7528   12.4497   24.9423 C   0  0  0  0  0  0  0  0  0  0  0  0
   12.0900   12.9239   24.4030 C   0  0  0  0  0  0  0  0  0  0  0  0
   13.2325   12.4335   25.2969 C   0  0  0  0  0  0  0  0  0  0  0  0
   12.9227   12.6125   26.7655 C   0  0  0  0  0  0  0  0  0  0  0  0
   11.7407   13.5312   26.9726 C   0  0  0  0  0  0  0  0  0  0  0  0
    6.8158   14.6867   26.3172 C   0  0  0  0  0  0  0  0  0  0  0  0
    5.4487   14.1777   25.8781 C   0  0  0  0  0  0  0  0  0  0  0  0
    9.7313   15.4718   22.5632 O   0  0  0  0  0  0  0  0  0  0  0  0
   10.4221   15.9821   21.4128 C   0  0  1  0  0  0  0  0  0  0  0  0
   11.2170   14.9247   20.6713 C   0  0  0  0  0  0  0  0  0  0  0  0
   10.7226   15.0041   19.2453 C   0  0  0  0  0  0  0  0  0  0  0  0
    9.4405   15.6264   19.3142 O   0  0  0  0  0  0  0  0  0  0  0  0
    9.4859   16.5711   20.3856 C   0  0  0  0  0  0  0  0  0  0  0  0
  1  2  2  0
  2  3  1  0
  3  4  1  0
  4  5  1  0
  5  6  2  0
  5  7  1  0
  7  8  1  0
  8  9  1  0
  9 10  1  0
 10 11  1  0
 11 12  2  0
 11 13  2  0
 11 14  1  0
 14 15  1  0
 15 16  1  0
 16 17  1  0
 17 18  1  0
 18 19  1  0
 10 20  1  0
 20 21  1  0
  2 22  1  0
 23 22  1  1
 23 24  1  0
 24 25  1  0
 25 26  1  0
 26 27  1  0
 21  7  1  0
 27 23  1  0
 19 14  1  0
M  END
>  <energy_score>  (1067) 
-45.440751

>  <inchikey>  (1067) 
None

>  <smiles>  (1067) 
None

>  <ref_pdb>  (1067) 
A4706a

>  <alias>  (1067) 
None

>  <HIPPO Pose ID>  (1067) 
500193

>  <name>  (1067) 
P500193

>  <HIPPO Compound ID>  (1067) 
314580

>  <ref_mols>  (1067) 
A0875a,A4706a

>  <distance_score>  (1067) 
1.865123

>  <inspiration_score>  (1067) 
None

$$$$
P500194
     RDKit          3D

 27 29  0  0  0  0  0  0  0  0999 V2000
    9.0125   15.8151   17.9260 N   0  0  0  0  0  0  0  0  0  0  0  0
    9.7805   15.1713   18.4496 N   0  0  0  0  0  0  0  0  0  0  0  0
   10.5147   14.4876   19.1624 N   0  0  0  0  0  0  0  0  0  0  0  0
   10.5852   15.0615   20.4903 C   0  0  2  0  0  0  0  0  0  0  0  0
   11.8030   14.5567   21.1921 C   0  0  0  0  0  0  0  0  0  0  0  0
   11.6556   14.8088   22.6582 C   0  0  0  0  0  0  0  0  0  0  0  0
   10.9353   16.0043   22.8927 O   0  0  0  0  0  0  0  0  0  0  0  0
    9.5744   15.9908   22.4132 C   0  0  0  0  0  0  0  0  0  0  0  0
    9.2900   14.9825   21.3164 C   0  0  2  0  0  0  0  0  0  0  0  0
    8.9686   13.7454   21.9905 O   0  0  0  0  0  0  0  0  0  0  0  0
    7.7066   13.7226   22.5300 C   0  0  0  0  0  0  0  0  0  0  0  0
    6.7471   14.3171   22.0546 O   0  0  0  0  0  0  0  0  0  0  0  0
    7.5873   12.9345   23.8355 C   0  0  0  0  0  0  0  0  0  0  0  0
    8.7248   11.9275   24.0054 C   0  0  0  0  0  0  0  0  0  0  0  0
    8.9252   11.4529   25.4236 C   0  0  0  0  0  0  0  0  0  0  0  0
    9.0070   12.5914   26.3408 N   0  0  0  0  0  0  0  0  0  0  0  0
   10.3285   13.6471   26.3676 S   0  0  0  0  0  0  0  0  0  0  0  0
   10.2377   14.3245   27.6354 O   0  0  0  0  0  0  0  0  0  0  0  0
   10.3223   14.4029   25.1457 O   0  0  0  0  0  0  0  0  0  0  0  0
   11.7159   12.6368   26.3885 N   0  0  0  0  0  0  0  0  0  0  0  0
   12.2721   12.3174   25.0735 C   0  0  0  0  0  0  0  0  0  0  0  0
   13.3281   11.2175   25.1982 C   0  0  0  0  0  0  0  0  0  0  0  0
   14.4092   11.4458   26.2223 C   0  0  0  0  0  0  0  0  0  0  0  0
   14.2285   12.7955   26.8381 C   0  0  0  0  0  0  0  0  0  0  0  0
   12.8004   13.0380   27.3442 C   0  0  0  0  0  0  0  0  0  0  0  0
    7.6864   13.2998   26.3745 C   0  0  0  0  0  0  0  0  0  0  0  0
    7.3701   13.9066   25.0119 C   0  0  0  0  0  0  0  0  0  0  0  0
  1  2  2  0
  2  3  2  0
  4  3  1  6
  4  5  1  0
  5  6  1  0
  6  7  1  0
  7  8  1  0
  8  9  1  0
  9 10  1  1
 10 11  1  0
 11 12  2  0
 11 13  1  0
 13 14  1  0
 14 15  1  0
 15 16  1  0
 16 17  1  0
 17 18  2  0
 17 19  2  0
 17 20  1  0
 20 21  1  0
 21 22  1  0
 22 23  1  0
 23 24  1  0
 24 25  1  0
 16 26  1  0
 26 27  1  0
  9  4  1  0
 27 13  1  0
 25 20  1  0
M  CHG  2   1  -1   2   1
M  END
>  <energy_score>  (1068) 
-55.511419

>  <inchikey>  (1068) 
None

>  <smiles>  (1068) 
None

>  <ref_pdb>  (1068) 
A4706a

>  <alias>  (1068) 
None

>  <HIPPO Pose ID>  (1068) 
500194

>  <name>  (1068) 
P500194

>  <HIPPO Compound ID>  (1068) 
314581

>  <ref_mols>  (1068) 
A4706a,A0875a

>  <distance_score>  (1068) 
1.521286

>  <inspiration_score>  (1068) 
None

$$$$
P500202
     RDKit          3D

 27 29  0  0  0  0  0  0  0  0999 V2000
    8.1226   17.5779   21.2216 N   0  0  0  0  0  0  0  0  0  0  0  0
    7.3617   16.5662   21.9373 C   0  0  0  0  0  0  0  0  0  0  0  0
    7.8562   15.1298   21.8539 C   0  0  2  0  0  0  0  0  0  0  0  0
    7.5622   14.6460   23.1923 O   0  0  0  0  0  0  0  0  0  0  0  0
    6.6893   13.6389   23.3373 C   0  0  0  0  0  0  0  0  0  0  0  0
    6.3043   12.9329   22.4131 O   0  0  0  0  0  0  0  0  0  0  0  0
    6.1834   13.4663   24.7685 C   0  0  0  0  0  0  0  0  0  0  0  0
    6.4974   12.0652   25.3071 C   0  0  0  0  0  0  0  0  0  0  0  0
    7.9283   11.8565   25.7834 C   0  0  0  0  0  0  0  0  0  0  0  0
    8.5022   13.0941   26.3455 N   0  0  0  0  0  0  0  0  0  0  0  0
    9.7507   13.8163   25.4690 S   0  0  0  0  0  0  0  0  0  0  0  0
    9.8994   15.1644   25.9553 O   0  0  0  0  0  0  0  0  0  0  0  0
    9.5620   13.4728   24.0873 O   0  0  0  0  0  0  0  0  0  0  0  0
   11.0716   12.8818   26.0155 N   0  0  0  0  0  0  0  0  0  0  0  0
   12.0238   13.6175   26.8684 C   0  0  0  0  0  0  0  0  0  0  0  0
   13.4672   13.1249   26.7026 C   0  0  0  0  0  0  0  0  0  0  0  0
   13.5370   11.6507   26.6456 C   0  0  0  0  0  0  0  0  0  0  0  0
   12.8227   11.2153   25.3877 C   0  0  0  0  0  0  0  0  0  0  0  0
   11.6899   12.1302   24.9164 C   0  0  0  0  0  0  0  0  0  0  0  0
    7.4788   14.0189   26.8875 C   0  0  0  0  0  0  0  0  0  0  0  0
    6.5898   14.5565   25.7735 C   0  0  0  0  0  0  0  0  0  0  0  0
    9.3288   14.8914   21.4320 C   0  0  1  0  0  0  0  0  0  0  0  0
    9.6439   15.3914   20.0105 C   0  0  0  0  0  0  0  0  0  0  0  0
   10.9771   14.8852   19.5248 C   0  0  0  0  0  0  0  0  0  0  0  0
   11.9077   14.6789   20.7000 C   0  0  0  0  0  0  0  0  0  0  0  0
   11.5857   15.5396   21.9110 C   0  0  0  0  0  0  0  0  0  0  0  0
   10.2450   15.4731   22.3682 O   0  0  0  0  0  0  0  0  0  0  0  0
  1  2  1  0
  3  2  1  1
  3  4  1  0
  4  5  1  0
  5  6  2  0
  5  7  1  0
  7  8  1  0
  8  9  1  0
  9 10  1  0
 10 11  1  0
 11 12  2  0
 11 13  2  0
 11 14  1  0
 14 15  1  0
 15 16  1  0
 16 17  1  0
 17 18  1  0
 18 19  1  0
 10 20  1  0
 20 21  1  0
  3 22  1  0
 22 23  1  6
 23 24  1  0
 24 25  1  0
 25 26  1  0
 26 27  1  0
 21  7  1  0
 27 22  1  0
 19 14  1  0
M  END
>  <energy_score>  (1069) 
-35.947994

>  <inchikey>  (1069) 
None

>  <smiles>  (1069) 
None

>  <ref_pdb>  (1069) 
A4706a

>  <alias>  (1069) 
None

>  <HIPPO Pose ID>  (1069) 
500202

>  <name>  (1069) 
P500202

>  <HIPPO Compound ID>  (1069) 
314584

>  <ref_mols>  (1069) 
A0875a,A4706a

>  <distance_score>  (1069) 
1.549053

>  <inspiration_score>  (1069) 
None

$$$$
P500204
     RDKit          3D

 27 29  0  0  0  0  0  0  0  0999 V2000
    9.7983   15.2999   19.0038 C   0  0  0  0  0  0  0  0  0  0  0  0
   10.3749   15.0904   20.3767 C   0  0  0  0  0  0  0  0  0  0  0  0
   11.8795   15.0983   20.1089 C   0  0  0  0  0  0  0  0  0  0  0  0
    9.9897   13.8162   20.8603 O   0  0  0  0  0  0  0  0  0  0  0  0
   10.5050   13.5482   22.1647 C   0  0  0  0  0  0  0  0  0  0  0  0
   11.2405   14.7137   22.8233 C   0  0  0  0  0  0  0  0  0  0  0  0
   10.5652   15.9504   22.6778 O   0  0  0  0  0  0  0  0  0  0  0  0
    9.8258   16.0638   21.4528 C   0  0  2  0  0  0  0  0  0  0  0  0
    8.2714   15.8951   21.6825 C   0  0  0  0  0  0  0  0  0  0  0  0
    7.7669   15.5131   22.9905 O   0  0  0  0  0  0  0  0  0  0  0  0
    7.1075   14.3303   23.1037 C   0  0  0  0  0  0  0  0  0  0  0  0
    7.0676   13.4562   22.2362 O   0  0  0  0  0  0  0  0  0  0  0  0
    6.2793   14.1754   24.3966 C   0  0  0  0  0  0  0  0  0  0  0  0
    6.2516   12.6967   24.8234 C   0  0  0  0  0  0  0  0  0  0  0  0
    7.5799   12.2399   25.4183 C   0  0  0  0  0  0  0  0  0  0  0  0
    8.0955   13.1802   26.4493 N   0  0  0  0  0  0  0  0  0  0  0  0
    9.5604   13.9590   26.1339 S   0  0  0  0  0  0  0  0  0  0  0  0
    9.7939   14.8442   27.2483 O   0  0  0  0  0  0  0  0  0  0  0  0
    9.4532   14.4758   24.8048 O   0  0  0  0  0  0  0  0  0  0  0  0
   10.7957   12.8213   26.1628 N   0  0  0  0  0  0  0  0  0  0  0  0
   12.1325   13.4070   26.5167 C   0  0  0  0  0  0  0  0  0  0  0  0
   13.2674   13.0629   25.5295 C   0  0  0  0  0  0  0  0  0  0  0  0
   13.4417   11.5992   25.2350 C   0  0  0  0  0  0  0  0  0  0  0  0
   12.1256   10.9420   25.4663 C   0  0  0  0  0  0  0  0  0  0  0  0
   10.8623   11.7367   25.1750 C   0  0  0  0  0  0  0  0  0  0  0  0
    7.0482   14.1930   26.8338 C   0  0  0  0  0  0  0  0  0  0  0  0
    6.6269   15.0373   25.6176 C   0  0  0  0  0  0  0  0  0  0  0  0
  1  2  1  0
  2  3  1  0
  2  4  1  0
  4  5  1  0
  5  6  1  0
  6  7  1  0
  7  8  1  0
  8  9  1  1
  9 10  1  0
 10 11  1  0
 11 12  2  0
 11 13  1  0
 13 14  1  0
 14 15  1  0
 15 16  1  0
 16 17  1  0
 17 18  2  0
 17 19  2  0
 17 20  1  0
 20 21  1  0
 21 22  1  0
 22 23  1  0
 23 24  1  0
 24 25  1  0
 16 26  1  0
 26 27  1  0
  8  2  1  0
 27 13  1  0
 25 20  1  0
M  END
>  <energy_score>  (1070) 
-7.864551

>  <inchikey>  (1070) 
None

>  <smiles>  (1070) 
None

>  <ref_pdb>  (1070) 
A4706a

>  <alias>  (1070) 
None

>  <HIPPO Pose ID>  (1070) 
500204

>  <name>  (1070) 
P500204

>  <HIPPO Compound ID>  (1070) 
314585

>  <ref_mols>  (1070) 
A4706a,A0875a

>  <distance_score>  (1070) 
1.396145

>  <inspiration_score>  (1070) 
None

$$$$
P500207
     RDKit          3D

 27 29  0  0  0  0  0  0  0  0999 V2000
   10.8742   14.9972   18.6342 C   0  0  0  0  0  0  0  0  0  0  0  0
    9.6155   14.9820   19.2757 O   0  0  0  0  0  0  0  0  0  0  0  0
    9.4989   15.6810   20.5016 C   0  0  1  0  0  0  0  0  0  0  0  0
    8.1849   15.2755   21.1788 C   0  0  0  0  0  0  0  0  0  0  0  0
    8.5693   14.4817   22.4026 C   0  0  0  0  0  0  0  0  0  0  0  0
    7.5956   14.5959   23.4360 O   0  0  0  0  0  0  0  0  0  0  0  0
    6.5931   13.6864   23.3715 C   0  0  0  0  0  0  0  0  0  0  0  0
    6.4040   12.9579   22.4031 O   0  0  0  0  0  0  0  0  0  0  0  0
    5.7790   13.5615   24.6520 C   0  0  0  0  0  0  0  0  0  0  0  0
    6.2504   12.3082   25.4259 C   0  0  0  0  0  0  0  0  0  0  0  0
    7.3307   12.6115   26.4675 C   0  0  0  0  0  0  0  0  0  0  0  0
    8.0188   13.8293   26.0278 N   0  0  0  0  0  0  0  0  0  0  0  0
    9.6295   14.0795   26.3426 S   0  0  0  0  0  0  0  0  0  0  0  0
    9.7976   14.1315   27.7704 O   0  0  0  0  0  0  0  0  0  0  0  0
   10.1053   15.1808   25.5455 O   0  0  0  0  0  0  0  0  0  0  0  0
   10.3711   12.6757   25.8043 N   0  0  0  0  0  0  0  0  0  0  0  0
   11.8199   12.6622   26.0906 C   0  0  0  0  0  0  0  0  0  0  0  0
   12.4880   11.4356   25.4853 C   0  0  0  0  0  0  0  0  0  0  0  0
   11.5289   10.2437   25.2153 C   0  0  0  0  0  0  0  0  0  0  0  0
   10.1926   10.6249   24.5788 C   0  0  0  0  0  0  0  0  0  0  0  0
   10.0520   12.1310   24.4729 C   0  0  0  0  0  0  0  0  0  0  0  0
    7.1616   15.0248   26.2232 C   0  0  0  0  0  0  0  0  0  0  0  0
    5.8139   14.8093   25.5347 C   0  0  0  0  0  0  0  0  0  0  0  0
    9.8759   15.1101   22.7963 C   0  0  0  0  0  0  0  0  0  0  0  0
   10.5645   15.2561   21.4835 C   0  0  2  0  0  0  0  0  0  0  0  0
   11.5406   16.2662   21.5779 O   0  0  0  0  0  0  0  0  0  0  0  0
   12.8043   15.6689   21.6135 C   0  0  0  0  0  0  0  0  0  0  0  0
  1  2  1  0
  3  2  1  6
  3  4  1  0
  4  5  1  0
  5  6  1  0
  6  7  1  0
  7  8  2  0
  7  9  1  0
  9 10  1  0
 10 11  1  0
 11 12  1  0
 12 13  1  0
 13 14  2  0
 13 15  2  0
 13 16  1  0
 16 17  1  0
 17 18  1  0
 18 19  1  0
 19 20  1  0
 20 21  1  0
 12 22  1  0
 22 23  1  0
  5 24  1  0
 24 25  1  0
 25 26  1  1
 26 27  1  0
 25  3  1  0
 23  9  1  0
 21 16  1  0
M  END
>  <energy_score>  (1071) 
-40.044655

>  <inchikey>  (1071) 
None

>  <smiles>  (1071) 
None

>  <ref_pdb>  (1071) 
A4706a

>  <alias>  (1071) 
None

>  <HIPPO Pose ID>  (1071) 
500207

>  <name>  (1071) 
P500207

>  <HIPPO Compound ID>  (1071) 
314586

>  <ref_mols>  (1071) 
A4706a,A0875a

>  <distance_score>  (1071) 
1.604832

>  <inspiration_score>  (1071) 
None

$$$$
P500211
     RDKit          3D

 27 29  0  0  0  0  0  0  0  0999 V2000
    6.7830   14.4817   21.2400 C   0  0  0  0  0  0  0  0  0  0  0  0
    7.9008   14.5360   22.2315 C   0  0  2  0  0  0  0  0  0  0  0  0
    7.2449   14.8122   23.5054 O   0  0  0  0  0  0  0  0  0  0  0  0
    6.4206   13.8290   23.9725 C   0  0  0  0  0  0  0  0  0  0  0  0
    6.1649   12.7849   23.3763 O   0  0  0  0  0  0  0  0  0  0  0  0
    5.8475   14.1075   25.3496 C   0  0  0  0  0  0  0  0  0  0  0  0
    5.7641   12.7660   26.1012 C   0  0  0  0  0  0  0  0  0  0  0  0
    7.1424   12.1665   26.3983 C   0  0  0  0  0  0  0  0  0  0  0  0
    8.1598   13.2310   26.6316 N   0  0  0  0  0  0  0  0  0  0  0  0
    9.3266   13.4564   25.4376 S   0  0  0  0  0  0  0  0  0  0  0  0
    8.8086   12.8546   24.2427 O   0  0  0  0  0  0  0  0  0  0  0  0
    9.8167   14.8072   25.5125 O   0  0  0  0  0  0  0  0  0  0  0  0
   10.5322   12.3883   25.9360 N   0  0  0  0  0  0  0  0  0  0  0  0
   11.8196   13.0143   26.3059 C   0  0  0  0  0  0  0  0  0  0  0  0
   12.8994   12.6180   25.3275 C   0  0  0  0  0  0  0  0  0  0  0  0
   13.1108   11.1205   25.4222 C   0  0  0  0  0  0  0  0  0  0  0  0
   11.7855   10.3223   25.2922 C   0  0  0  0  0  0  0  0  0  0  0  0
   10.5894   11.2029   25.0188 C   0  0  0  0  0  0  0  0  0  0  0  0
    7.5705   14.4666   27.1933 C   0  0  0  0  0  0  0  0  0  0  0  0
    6.6262   15.1270   26.1915 C   0  0  0  0  0  0  0  0  0  0  0  0
    8.9560   15.6316   21.8870 C   0  0  2  0  0  0  0  0  0  0  0  0
    9.5267   15.6634   20.4436 C   0  0  0  0  0  0  0  0  0  0  0  0
   10.6031   14.7187   20.1718 N   0  0  0  0  0  0  0  0  0  0  0  0
   11.1006   14.8516   18.8131 C   0  0  0  0  0  0  0  0  0  0  0  0
   11.6490   14.9005   21.1667 C   0  0  0  0  0  0  0  0  0  0  0  0
   11.0606   14.6874   22.5530 C   0  0  0  0  0  0  0  0  0  0  0  0
   10.0411   15.6396   22.8402 O   0  0  0  0  0  0  0  0  0  0  0  0
  2  1  1  6
  2  3  1  0
  3  4  1  0
  4  5  2  0
  4  6  1  0
  6  7  1  0
  7  8  1  0
  8  9  1  0
  9 10  1  0
 10 11  2  0
 10 12  2  0
 10 13  1  0
 13 14  1  0
 14 15  1  0
 15 16  1  0
 16 17  1  0
 17 18  1  0
  9 19  1  0
 19 20  1  0
  2 21  1  0
 21 22  1  6
 22 23  1  0
 23 24  1  0
 23 25  1  0
 25 26  1  0
 26 27  1  0
 20  6  1  0
 27 21  1  0
 18 13  1  0
M  END
>  <energy_score>  (1072) 
-32.381218

>  <inchikey>  (1072) 
None

>  <smiles>  (1072) 
None

>  <ref_pdb>  (1072) 
A4706a

>  <alias>  (1072) 
None

>  <HIPPO Pose ID>  (1072) 
500211

>  <name>  (1072) 
P500211

>  <HIPPO Compound ID>  (1072) 
314588

>  <ref_mols>  (1072) 
A4706a,A0875a

>  <distance_score>  (1072) 
1.501471

>  <inspiration_score>  (1072) 
None

$$$$
P500218
     RDKit          3D

 27 30  0  0  0  0  0  0  0  0999 V2000
    7.9289   11.8280   23.3134 O   0  0  0  0  0  0  0  0  0  0  0  0
    7.7424   13.0377   23.4658 C   0  0  0  0  0  0  0  0  0  0  0  0
    8.7473   13.7969   23.0491 O   0  0  0  0  0  0  0  0  0  0  0  0
    8.9571   15.2103   22.9428 C   0  0  1  0  0  0  0  0  0  0  0  0
   10.4633   15.5376   23.0241 C   0  0  0  0  0  0  0  0  0  0  0  0
   10.8172   16.1645   21.7827 O   0  0  0  0  0  0  0  0  0  0  0  0
    9.9181   15.5928   20.8365 C   0  0  2  0  0  0  0  0  0  0  0  0
   10.5220   14.2757   20.4754 C   0  0  0  0  0  0  0  0  0  0  0  0
   11.5897   14.6978   19.5000 C   0  0  0  0  0  0  0  0  0  0  0  0
   11.0591   15.8013   18.7754 O   0  0  0  0  0  0  0  0  0  0  0  0
    9.8916   16.2361   19.4752 C   0  0  0  0  0  0  0  0  0  0  0  0
    8.5789   15.6028   21.5403 C   0  0  0  0  0  0  0  0  0  0  0  0
    6.4280   13.4537   24.1174 C   0  0  0  0  0  0  0  0  0  0  0  0
    6.2015   12.4837   25.3319 C   0  0  0  0  0  0  0  0  0  0  0  0
    7.1877   12.7622   26.4879 C   0  0  0  0  0  0  0  0  0  0  0  0
    7.9363   13.9648   26.0975 N   0  0  0  0  0  0  0  0  0  0  0  0
    9.4270   14.3695   26.6888 S   0  0  0  0  0  0  0  0  0  0  0  0
    9.3023   14.6015   28.1004 O   0  0  0  0  0  0  0  0  0  0  0  0
    9.9203   15.4021   25.8107 O   0  0  0  0  0  0  0  0  0  0  0  0
   10.4442   13.0358   26.4671 N   0  0  0  0  0  0  0  0  0  0  0  0
   11.8640   13.4892   26.6003 C   0  0  0  0  0  0  0  0  0  0  0  0
   12.8471   12.3396   26.4919 C   0  0  0  0  0  0  0  0  0  0  0  0
   12.5677   11.4954   25.2620 C   0  0  0  0  0  0  0  0  0  0  0  0
   11.0875   11.1156   25.1080 C   0  0  0  0  0  0  0  0  0  0  0  0
   10.2489   12.3439   25.1969 C   0  0  0  0  0  0  0  0  0  0  0  0
    7.0054   15.1105   25.9316 C   0  0  0  0  0  0  0  0  0  0  0  0
    6.2227   14.8701   24.6426 C   0  0  0  0  0  0  0  0  0  0  0  0
  1  2  2  0
  2  3  1  0
  4  3  1  6
  4  5  1  0
  5  6  1  0
  7  6  1  0
  7  8  1  6
  8  9  1  0
  9 10  1  0
 10 11  1  0
  7 12  1  0
  2 13  1  0
 13 14  1  0
 14 15  1  0
 15 16  1  0
 16 17  1  0
 17 18  2  0
 17 19  2  0
 17 20  1  0
 20 21  1  0
 21 22  1  0
 22 23  1  0
 23 24  1  0
 24 25  1  0
 16 26  1  0
 26 27  1  0
 12  4  1  0
 27 13  1  0
 11  7  1  0
 25 20  1  0
M  END
>  <energy_score>  (1073) 
-17.269122

>  <inchikey>  (1073) 
None

>  <smiles>  (1073) 
None

>  <ref_pdb>  (1073) 
A4706a

>  <alias>  (1073) 
None

>  <HIPPO Pose ID>  (1073) 
500218

>  <name>  (1073) 
P500218

>  <HIPPO Compound ID>  (1073) 
314592

>  <ref_mols>  (1073) 
A4706a,A0875a

>  <distance_score>  (1073) 
1.623139

>  <inspiration_score>  (1073) 
None

$$$$
P500219
     RDKit          3D

 27 30  0  0  0  0  0  0  0  0999 V2000
    6.6161   13.4198   21.9361 O   0  0  0  0  0  0  0  0  0  0  0  0
    6.8326   14.3815   22.6794 C   0  0  0  0  0  0  0  0  0  0  0  0
    7.8794   15.2638   22.5149 O   0  0  0  0  0  0  0  0  0  0  0  0
    8.6463   15.0052   21.3037 C   0  0  2  0  0  0  0  0  0  0  0  0
    9.4125   13.7498   21.3935 C   0  0  0  0  0  0  0  0  0  0  0  0
    9.7180   13.5233   20.0504 O   0  0  0  0  0  0  0  0  0  0  0  0
   10.5794   14.3432   19.2597 C   0  0  0  0  0  0  0  0  0  0  0  0
   10.0656   15.7432   19.3567 C   0  0  0  0  0  0  0  0  0  0  0  0
    9.8230   15.9152   20.8361 C   0  0  0  0  0  0  0  0  0  0  0  0
   11.2971   15.7455   21.4890 C   0  0  0  0  0  0  0  0  0  0  0  0
   10.6616   16.3822   22.6644 C   0  0  0  0  0  0  0  0  0  0  0  0
    9.7718   17.2008   21.5706 C   0  0  0  0  0  0  0  0  0  0  0  0
    5.8984   14.5955   23.8666 C   0  0  0  0  0  0  0  0  0  0  0  0
    5.8342   13.2905   24.7069 C   0  0  0  0  0  0  0  0  0  0  0  0
    7.0896   13.0458   25.5539 C   0  0  0  0  0  0  0  0  0  0  0  0
    7.9347   14.2472   25.4413 N   0  0  0  0  0  0  0  0  0  0  0  0
    9.5207   14.2174   25.9012 S   0  0  0  0  0  0  0  0  0  0  0  0
    9.6715   13.3603   27.0429 O   0  0  0  0  0  0  0  0  0  0  0  0
    9.9841   15.5834   25.9548 O   0  0  0  0  0  0  0  0  0  0  0  0
   10.3760   13.5360   24.6390 N   0  0  0  0  0  0  0  0  0  0  0  0
   10.1225   12.1686   24.1675 C   0  0  0  0  0  0  0  0  0  0  0  0
   10.6851   11.1612   25.1395 C   0  0  0  0  0  0  0  0  0  0  0  0
   12.1144   11.5226   25.5788 C   0  0  0  0  0  0  0  0  0  0  0  0
   12.7016   12.6555   24.7930 C   0  0  0  0  0  0  0  0  0  0  0  0
   11.8185   13.8640   24.7712 C   0  0  0  0  0  0  0  0  0  0  0  0
    7.1633   15.4357   25.8815 C   0  0  0  0  0  0  0  0  0  0  0  0
    6.2019   15.7921   24.7588 C   0  0  0  0  0  0  0  0  0  0  0  0
  1  2  2  0
  2  3  1  0
  4  3  1  1
  4  5  1  0
  5  6  1  0
  6  7  1  0
  7  8  1  0
  8  9  1  0
  9 10  1  0
 10 11  1  0
 11 12  1  0
  2 13  1  0
 13 14  1  0
 14 15  1  0
 15 16  1  0
 16 17  1  0
 17 18  2  0
 17 19  2  0
 17 20  1  0
 20 21  1  0
 21 22  1  0
 22 23  1  0
 23 24  1  0
 24 25  1  0
 16 26  1  0
 26 27  1  0
  9  4  1  0
 27 13  1  0
 12  9  1  0
 25 20  1  0
M  END
>  <energy_score>  (1074) 
-6.655529

>  <inchikey>  (1074) 
None

>  <smiles>  (1074) 
None

>  <ref_pdb>  (1074) 
A4706a

>  <alias>  (1074) 
None

>  <HIPPO Pose ID>  (1074) 
500219

>  <name>  (1074) 
P500219

>  <HIPPO Compound ID>  (1074) 
314593

>  <ref_mols>  (1074) 
A4706a,A0875a

>  <distance_score>  (1074) 
1.632371

>  <inspiration_score>  (1074) 
None

$$$$
P500221
     RDKit          3D

 27 30  0  0  0  0  0  0  0  0999 V2000
    9.3180   11.9623   23.1194 N   0  0  0  0  0  0  0  0  0  0  0  0
    9.8915   13.2004   22.5773 C   0  0  0  0  0  0  0  0  0  0  0  0
    9.0210   14.4529   22.3058 C   0  0  2  0  0  0  0  0  0  0  0  0
    7.9802   14.5982   23.3190 O   0  0  0  0  0  0  0  0  0  0  0  0
    6.9680   13.6857   23.3069 C   0  0  0  0  0  0  0  0  0  0  0  0
    6.7180   12.9427   22.3587 O   0  0  0  0  0  0  0  0  0  0  0  0
    6.1805   13.5132   24.5859 C   0  0  0  0  0  0  0  0  0  0  0  0
    6.7069   12.2849   25.3564 C   0  0  0  0  0  0  0  0  0  0  0  0
    7.8330   12.6164   26.3431 C   0  0  0  0  0  0  0  0  0  0  0  0
    8.4584   13.8781   25.9384 N   0  0  0  0  0  0  0  0  0  0  0  0
    9.9201   14.3728   26.5633 S   0  0  0  0  0  0  0  0  0  0  0  0
   10.4546   15.3615   25.6529 O   0  0  0  0  0  0  0  0  0  0  0  0
    9.6307   14.7272   27.9324 O   0  0  0  0  0  0  0  0  0  0  0  0
   11.0693   13.1003   26.6522 N   0  0  0  0  0  0  0  0  0  0  0  0
   12.1715   13.5986   27.5435 C   0  0  0  0  0  0  0  0  0  0  0  0
   13.3913   12.6890   27.5967 C   0  0  0  0  0  0  0  0  0  0  0  0
   13.9168   12.2860   26.2413 C   0  0  0  0  0  0  0  0  0  0  0  0
   12.7912   11.7771   25.3854 C   0  0  0  0  0  0  0  0  0  0  0  0
   11.5978   12.7066   25.3323 C   0  0  0  0  0  0  0  0  0  0  0  0
    7.4777   15.0233   26.1051 C   0  0  0  0  0  0  0  0  0  0  0  0
    6.1410   14.7457   25.4523 C   0  0  0  0  0  0  0  0  0  0  0  0
    8.4197   14.4661   20.9046 C   0  0  0  0  0  0  0  0  0  0  0  0
    9.3887   14.7487   19.9094 O   0  0  0  0  0  0  0  0  0  0  0  0
   10.2444   15.8364   20.2544 C   0  0  2  0  0  0  0  0  0  0  0  0
   11.2541   15.5105   21.3878 C   0  0  0  0  0  0  0  0  0  0  0  0
    9.9970   15.6752   22.3262 C   0  0  1  0  0  0  0  0  0  0  0  0
    9.6123   16.8059   21.2879 C   0  0  0  0  0  0  0  0  0  0  0  0
  1  2  1  0
  3  2  1  1
  3  4  1  0
  4  5  1  0
  5  6  2  0
  5  7  1  0
  7  8  1  0
  8  9  1  0
  9 10  1  0
 10 11  1  0
 11 12  2  0
 11 13  2  0
 11 14  1  0
 14 15  1  0
 15 16  1  0
 16 17  1  0
 17 18  1  0
 18 19  1  0
 10 20  1  0
 20 21  1  0
  3 22  1  0
 22 23  1  0
 23 24  1  0
 24 25  1  1
 26 25  1  6
 26 27  1  0
 26  3  1  0
 21  7  1  0
 27 24  1  0
 19 14  1  0
M  END
>  <energy_score>  (1075) 
-60.472751

>  <inchikey>  (1075) 
None

>  <smiles>  (1075) 
None

>  <ref_pdb>  (1075) 
A4706a

>  <alias>  (1075) 
None

>  <HIPPO Pose ID>  (1075) 
500221

>  <name>  (1075) 
P500221

>  <HIPPO Compound ID>  (1075) 
314594

>  <ref_mols>  (1075) 
A0875a,A4706a

>  <distance_score>  (1075) 
1.824066

>  <inspiration_score>  (1075) 
None

$$$$
P500222
     RDKit          3D

 27 30  0  0  0  0  0  0  0  0999 V2000
   10.3893   13.0050   21.9262 N   0  0  0  0  0  0  0  0  0  0  0  0
    9.7839   13.7287   20.7718 C   0  0  2  0  0  0  0  0  0  0  0  0
   10.7026   14.2426   19.5589 C   0  0  0  0  0  0  0  0  0  0  0  0
   10.5795   15.6524   19.6633 O   0  0  0  0  0  0  0  0  0  0  0  0
   10.2648   15.7787   21.0459 C   0  0  0  0  0  0  0  0  0  0  0  0
   10.0493   17.0361   21.7336 C   0  0  0  0  0  0  0  0  0  0  0  0
   10.7980   16.2760   22.9455 C   0  0  0  0  0  0  0  0  0  0  0  0
   11.6076   15.6195   21.8855 C   0  0  0  0  0  0  0  0  0  0  0  0
    9.0303   14.9188   21.2309 C   0  0  2  0  0  0  0  0  0  0  0  0
    8.3635   14.8323   22.5337 O   0  0  0  0  0  0  0  0  0  0  0  0
    7.3220   13.9664   22.6291 C   0  0  0  0  0  0  0  0  0  0  0  0
    7.0643   13.1117   21.7867 O   0  0  0  0  0  0  0  0  0  0  0  0
    6.4125   14.0447   23.8434 C   0  0  0  0  0  0  0  0  0  0  0  0
    6.5635   12.8085   24.7611 C   0  0  0  0  0  0  0  0  0  0  0  0
    7.7791   12.8510   25.6914 C   0  0  0  0  0  0  0  0  0  0  0  0
    8.3420   14.2084   25.6615 N   0  0  0  0  0  0  0  0  0  0  0  0
    9.6521   14.5640   26.6148 S   0  0  0  0  0  0  0  0  0  0  0  0
    9.1965   14.5031   27.9795 O   0  0  0  0  0  0  0  0  0  0  0  0
   10.2424   15.7673   26.0843 O   0  0  0  0  0  0  0  0  0  0  0  0
   10.8061   13.3396   26.4189 N   0  0  0  0  0  0  0  0  0  0  0  0
   11.9523   13.6820   27.3239 C   0  0  0  0  0  0  0  0  0  0  0  0
   13.1247   12.7150   27.2118 C   0  0  0  0  0  0  0  0  0  0  0  0
   13.5402   12.4278   25.7874 C   0  0  0  0  0  0  0  0  0  0  0  0
   12.3254   12.1777   24.9276 C   0  0  0  0  0  0  0  0  0  0  0  0
   11.2701   13.2465   25.0252 C   0  0  0  0  0  0  0  0  0  0  0  0
    7.2675   15.2232   25.8800 C   0  0  0  0  0  0  0  0  0  0  0  0
    6.4629   15.3546   24.6084 C   0  0  0  0  0  0  0  0  0  0  0  0
  2  1  1  1
  2  3  1  0
  3  4  1  0
  4  5  1  0
  5  6  1  0
  6  7  1  0
  7  8  1  0
  5  9  1  0
  9 10  1  1
 10 11  1  0
 11 12  2  0
 11 13  1  0
 13 14  1  0
 14 15  1  0
 15 16  1  0
 16 17  1  0
 17 18  2  0
 17 19  2  0
 17 20  1  0
 20 21  1  0
 21 22  1  0
 22 23  1  0
 23 24  1  0
 24 25  1  0
 16 26  1  0
 26 27  1  0
  9  2  1  0
 27 13  1  0
  8  5  1  0
 25 20  1  0
M  END
>  <energy_score>  (1076) 
-17.626456

>  <inchikey>  (1076) 
None

>  <smiles>  (1076) 
None

>  <ref_pdb>  (1076) 
A4706a

>  <alias>  (1076) 
None

>  <HIPPO Pose ID>  (1076) 
500222

>  <name>  (1076) 
P500222

>  <HIPPO Compound ID>  (1076) 
314595

>  <ref_mols>  (1076) 
A4706a,A0875a

>  <distance_score>  (1076) 
1.714168

>  <inspiration_score>  (1076) 
None

$$$$
P500230
     RDKit          3D

 27 29  0  0  0  0  0  0  0  0999 V2000
    7.9723   16.0596   21.5399 C   0  0  0  0  0  0  0  0  0  0  0  0
    9.3211   16.4501   20.9011 C   0  0  0  0  0  0  0  0  0  0  0  0
    9.1087   17.8885   20.4057 C   0  0  0  0  0  0  0  0  0  0  0  0
    9.6868   15.5590   19.6623 C   0  0  0  0  0  0  0  0  0  0  0  0
   10.9650   14.9236   19.5833 O   0  0  0  0  0  0  0  0  0  0  0  0
   11.4169   14.2009   20.7316 C   0  0  0  0  0  0  0  0  0  0  0  0
   10.3195   13.9186   21.7935 C   0  0  1  0  0  0  0  0  0  0  0  0
   10.4914   12.6778   22.5108 O   0  0  0  0  0  0  0  0  0  0  0  0
    9.4447   11.8976   22.9294 C   0  0  0  0  0  0  0  0  0  0  0  0
    9.4121   10.6961   22.6793 O   0  0  0  0  0  0  0  0  0  0  0  0
    8.3805   12.5184   23.8050 C   0  0  0  0  0  0  0  0  0  0  0  0
    7.9129   11.5420   24.9120 C   0  0  0  0  0  0  0  0  0  0  0  0
    7.3460   12.3065   26.1146 C   0  0  0  0  0  0  0  0  0  0  0  0
    7.6316   13.7405   25.9525 N   0  0  0  0  0  0  0  0  0  0  0  0
    9.0819   14.4493   26.4546 S   0  0  0  0  0  0  0  0  0  0  0  0
    9.1387   15.7495   25.8443 O   0  0  0  0  0  0  0  0  0  0  0  0
    9.2150   14.2940   27.8765 O   0  0  0  0  0  0  0  0  0  0  0  0
   10.3572   13.5609   25.7620 N   0  0  0  0  0  0  0  0  0  0  0  0
   10.6230   12.2692   26.3631 C   0  0  0  0  0  0  0  0  0  0  0  0
   11.5072   11.4354   25.4497 C   0  0  0  0  0  0  0  0  0  0  0  0
   12.8767   12.0619   25.4238 C   0  0  0  0  0  0  0  0  0  0  0  0
   12.6728   13.4709   24.9111 C   0  0  0  0  0  0  0  0  0  0  0  0
   11.6500   14.2764   25.7386 C   0  0  0  0  0  0  0  0  0  0  0  0
    6.9400   14.2986   24.7472 C   0  0  0  0  0  0  0  0  0  0  0  0
    7.1690   13.3784   23.5217 C   0  0  0  0  0  0  0  0  0  0  0  0
   10.4225   15.1598   22.6845 C   0  0  0  0  0  0  0  0  0  0  0  0
   10.3878   16.3895   21.9015 N   0  0  0  0  0  0  0  0  0  0  0  0
  1  2  1  0
  2  3  1  0
  2  4  1  0
  4  5  1  0
  5  6  1  0
  6  7  1  0
  7  8  1  1
  8  9  1  0
  9 10  2  0
  9 11  1  0
 11 12  1  0
 12 13  1  0
 13 14  1  0
 14 15  1  0
 15 16  2  0
 15 17  2  0
 15 18  1  0
 18 19  1  0
 19 20  1  0
 20 21  1  0
 21 22  1  0
 22 23  1  0
 14 24  1  0
 24 25  1  0
  7 26  1  0
 26 27  1  0
 27  2  1  0
 25 11  1  0
 23 18  1  0
M  END
>  <energy_score>  (1077) 
-11.020085

>  <inchikey>  (1077) 
None

>  <smiles>  (1077) 
None

>  <ref_pdb>  (1077) 
A4706a

>  <alias>  (1077) 
None

>  <HIPPO Pose ID>  (1077) 
500230

>  <name>  (1077) 
P500230

>  <HIPPO Compound ID>  (1077) 
314598

>  <ref_mols>  (1077) 
A4706a,A0875a

>  <distance_score>  (1077) 
1.824581

>  <inspiration_score>  (1077) 
None

$$$$
P500233
     RDKit          3D

 27 30  0  0  0  0  0  0  0  0999 V2000
    6.8263   13.1596   22.4705 O   0  0  0  0  0  0  0  0  0  0  0  0
    6.7519   13.9773   23.3865 C   0  0  0  0  0  0  0  0  0  0  0  0
    7.1838   15.2543   23.3248 O   0  0  0  0  0  0  0  0  0  0  0  0
    7.3976   15.8362   22.0316 C   0  0  0  0  0  0  0  0  0  0  0  0
    8.8354   15.9036   21.4865 C   0  0  2  0  0  0  0  0  0  0  0  0
    9.2582   14.7498   20.5949 C   0  0  0  0  0  0  0  0  0  0  0  0
   10.6187   14.3477   21.0947 C   0  0  2  0  0  0  0  0  0  0  0  0
   10.5749   13.2757   22.1691 C   0  0  0  0  0  0  0  0  0  0  0  0
   11.7544   13.4820   22.9497 O   0  0  0  0  0  0  0  0  0  0  0  0
   11.8998   14.9019   23.0129 C   0  0  0  0  0  0  0  0  0  0  0  0
   11.0449   15.5093   21.9379 C   0  0  2  0  0  0  0  0  0  0  0  0
    9.8305   16.0048   22.4949 O   0  0  0  0  0  0  0  0  0  0  0  0
    6.0411   13.6685   24.7108 C   0  0  0  0  0  0  0  0  0  0  0  0
    6.3018   12.2198   25.1324 C   0  0  0  0  0  0  0  0  0  0  0  0
    7.7030   11.9993   25.6684 C   0  0  0  0  0  0  0  0  0  0  0  0
    8.1133   13.0691   26.5968 N   0  0  0  0  0  0  0  0  0  0  0  0
    9.4569   13.9942   26.1662 S   0  0  0  0  0  0  0  0  0  0  0  0
    9.3481   14.3212   24.7756 O   0  0  0  0  0  0  0  0  0  0  0  0
    9.5699   15.0334   27.1605 O   0  0  0  0  0  0  0  0  0  0  0  0
   10.7764   12.9462   26.3971 N   0  0  0  0  0  0  0  0  0  0  0  0
   11.9668   13.7359   26.7926 C   0  0  0  0  0  0  0  0  0  0  0  0
   13.3286   13.1287   26.4938 C   0  0  0  0  0  0  0  0  0  0  0  0
   13.2993   11.6581   26.5155 C   0  0  0  0  0  0  0  0  0  0  0  0
   12.3694   11.2722   25.4020 C   0  0  0  0  0  0  0  0  0  0  0  0
   10.9580   11.8525   25.4334 C   0  0  0  0  0  0  0  0  0  0  0  0
    6.9678   13.9003   27.0669 C   0  0  0  0  0  0  0  0  0  0  0  0
    6.3154   14.6189   25.8879 C   0  0  0  0  0  0  0  0  0  0  0  0
  1  2  2  0
  2  3  1  0
  3  4  1  0
  5  4  1  1
  5  6  1  0
  7  6  1  1
  7  8  1  0
  8  9  1  0
  9 10  1  0
 11 10  1  1
 11 12  1  0
  2 13  1  0
 13 14  1  0
 14 15  1  0
 15 16  1  0
 16 17  1  0
 17 18  2  0
 17 19  2  0
 17 20  1  0
 20 21  1  0
 21 22  1  0
 22 23  1  0
 23 24  1  0
 24 25  1  0
 16 26  1  0
 26 27  1  0
 12  5  1  0
 27 13  1  0
 11  7  1  0
 25 20  1  0
M  END
>  <energy_score>  (1078) 
-57.498269

>  <inchikey>  (1078) 
None

>  <smiles>  (1078) 
None

>  <ref_pdb>  (1078) 
A4706a

>  <alias>  (1078) 
None

>  <HIPPO Pose ID>  (1078) 
500233

>  <name>  (1078) 
P500233

>  <HIPPO Compound ID>  (1078) 
314599

>  <ref_mols>  (1078) 
A0875a,A4706a

>  <distance_score>  (1078) 
1.673159

>  <inspiration_score>  (1078) 
None

$$$$
P500237
     RDKit          3D

 27 29  0  0  0  0  0  0  0  0999 V2000
    7.2549   13.3160   22.3155 O   0  0  0  0  0  0  0  0  0  0  0  0
    7.2323   14.1530   23.2133 C   0  0  0  0  0  0  0  0  0  0  0  0
    7.8836   15.3420   23.2251 O   0  0  0  0  0  0  0  0  0  0  0  0
    8.7856   15.8635   22.2158 C   0  0  1  0  0  0  0  0  0  0  0  0
   10.2806   15.7847   22.5311 C   0  0  0  0  0  0  0  0  0  0  0  0
   10.8005   14.6334   21.8634 O   0  0  0  0  0  0  0  0  0  0  0  0
    9.9645   14.4184   20.7063 C   0  0  2  0  0  0  0  0  0  0  0  0
   10.6407   14.7793   19.3800 C   0  0  0  0  0  0  0  0  0  0  0  0
   11.4356   13.8308   18.8616 F   0  0  0  0  0  0  0  0  0  0  0  0
   11.3956   15.8732   19.5473 F   0  0  0  0  0  0  0  0  0  0  0  0
    9.7075   15.0947   18.4505 F   0  0  0  0  0  0  0  0  0  0  0  0
    8.7396   15.2958   20.8515 C   0  0  0  0  0  0  0  0  0  0  0  0
    6.3641   13.9626   24.4743 C   0  0  0  0  0  0  0  0  0  0  0  0
    6.3821   12.4989   24.9544 C   0  0  0  0  0  0  0  0  0  0  0  0
    7.6595   12.0610   25.6736 C   0  0  0  0  0  0  0  0  0  0  0  0
    8.2779   13.1904   26.4036 N   0  0  0  0  0  0  0  0  0  0  0  0
    9.6667   13.8533   25.7124 S   0  0  0  0  0  0  0  0  0  0  0  0
    9.5851   13.6640   24.2932 O   0  0  0  0  0  0  0  0  0  0  0  0
    9.8565   15.1584   26.2968 O   0  0  0  0  0  0  0  0  0  0  0  0
   10.8686   12.8100   26.3025 N   0  0  0  0  0  0  0  0  0  0  0  0
   11.8465   13.5394   27.1551 C   0  0  0  0  0  0  0  0  0  0  0  0
   13.1212   12.7488   27.4243 C   0  0  0  0  0  0  0  0  0  0  0  0
   13.8117   12.2810   26.1648 C   0  0  0  0  0  0  0  0  0  0  0  0
   12.8816   12.3346   24.9761 C   0  0  0  0  0  0  0  0  0  0  0  0
   11.4646   11.9114   25.2831 C   0  0  0  0  0  0  0  0  0  0  0  0
    7.2694   14.1800   26.8575 C   0  0  0  0  0  0  0  0  0  0  0  0
    6.6431   14.9004   25.6636 C   0  0  0  0  0  0  0  0  0  0  0  0
  1  2  2  0
  2  3  1  0
  4  3  1  1
  4  5  1  0
  5  6  1  0
  6  7  1  0
  7  8  1  6
  8  9  1  0
  8 10  1  0
  8 11  1  0
  7 12  1  0
  2 13  1  0
 13 14  1  0
 14 15  1  0
 15 16  1  0
 16 17  1  0
 17 18  2  0
 17 19  2  0
 17 20  1  0
 20 21  1  0
 21 22  1  0
 22 23  1  0
 23 24  1  0
 24 25  1  0
 16 26  1  0
 26 27  1  0
 12  4  1  0
 27 13  1  0
 25 20  1  0
M  END
>  <energy_score>  (1079) 
-31.891811

>  <inchikey>  (1079) 
None

>  <smiles>  (1079) 
None

>  <ref_pdb>  (1079) 
A4706a

>  <alias>  (1079) 
None

>  <HIPPO Pose ID>  (1079) 
500237

>  <name>  (1079) 
P500237

>  <HIPPO Compound ID>  (1079) 
314600

>  <ref_mols>  (1079) 
A4706a,A0875a

>  <distance_score>  (1079) 
1.438721

>  <inspiration_score>  (1079) 
None

$$$$
P500240
     RDKit          3D

 27 29  0  0  0  0  0  0  0  0999 V2000
    9.5237   10.6354   23.1689 C   0  0  0  0  0  0  0  0  0  0  0  0
    9.9170   11.9272   22.6819 O   0  0  0  0  0  0  0  0  0  0  0  0
    8.8947   12.8921   22.8640 C   0  0  0  0  0  0  0  0  0  0  0  0
    9.0857   14.3688   22.4198 C   0  0  2  0  0  0  0  0  0  0  0  0
    8.0580   15.1062   23.1934 O   0  0  0  0  0  0  0  0  0  0  0  0
    6.8264   14.5198   23.2563 C   0  0  0  0  0  0  0  0  0  0  0  0
    6.2548   14.0510   22.2725 O   0  0  0  0  0  0  0  0  0  0  0  0
    6.2128   14.3617   24.6512 C   0  0  0  0  0  0  0  0  0  0  0  0
    6.3370   12.8909   25.1428 C   0  0  0  0  0  0  0  0  0  0  0  0
    7.4978   12.5408   26.0936 C   0  0  0  0  0  0  0  0  0  0  0  0
    7.9905   13.6845   26.8643 N   0  0  0  0  0  0  0  0  0  0  0  0
    9.5166   14.3684   26.6629 S   0  0  0  0  0  0  0  0  0  0  0  0
    9.5767   14.9481   25.3523 O   0  0  0  0  0  0  0  0  0  0  0  0
    9.6829   15.2191   27.8134 O   0  0  0  0  0  0  0  0  0  0  0  0
   10.7086   13.1394   26.7807 N   0  0  0  0  0  0  0  0  0  0  0  0
   11.0417   12.4286   25.5264 C   0  0  0  0  0  0  0  0  0  0  0  0
   12.3927   12.8031   24.9532 C   0  0  0  0  0  0  0  0  0  0  0  0
   13.5023   12.3695   25.8775 C   0  0  0  0  0  0  0  0  0  0  0  0
   13.1582   12.7619   27.3090 C   0  0  0  0  0  0  0  0  0  0  0  0
   11.9431   13.6949   27.4337 C   0  0  0  0  0  0  0  0  0  0  0  0
    6.9248   14.7119   27.0589 C   0  0  0  0  0  0  0  0  0  0  0  0
    6.5810   15.3782   25.7264 C   0  0  0  0  0  0  0  0  0  0  0  0
    8.8923   14.5562   20.9034 C   0  0  0  0  0  0  0  0  0  0  0  0
    9.9064   15.4900   20.2459 C   0  0  0  0  0  0  0  0  0  0  0  0
   11.3266   14.9816   20.4930 C   0  0  0  0  0  0  0  0  0  0  0  0
   11.5119   14.3528   21.7991 N   0  0  0  0  0  0  0  0  0  0  0  0
   10.5166   14.8672   22.7428 C   0  0  0  0  0  0  0  0  0  0  0  0
  1  2  1  0
  2  3  1  0
  4  3  1  6
  4  5  1  0
  5  6  1  0
  6  7  2  0
  6  8  1  0
  8  9  1  0
  9 10  1  0
 10 11  1  0
 11 12  1  0
 12 13  2  0
 12 14  2  0
 12 15  1  0
 15 16  1  0
 16 17  1  0
 17 18  1  0
 18 19  1  0
 19 20  1  0
 11 21  1  0
 21 22  1  0
  4 23  1  0
 23 24  1  0
 24 25  1  0
 25 26  1  0
 26 27  1  0
 27  4  1  0
 22  8  1  0
 20 15  1  0
M  END
>  <energy_score>  (1080) 
-36.452776

>  <inchikey>  (1080) 
None

>  <smiles>  (1080) 
None

>  <ref_pdb>  (1080) 
A4706a

>  <alias>  (1080) 
None

>  <HIPPO Pose ID>  (1080) 
500240

>  <name>  (1080) 
P500240

>  <HIPPO Compound ID>  (1080) 
314601

>  <ref_mols>  (1080) 
A4706a,A0875a

>  <distance_score>  (1080) 
1.827264

>  <inspiration_score>  (1080) 
None

$$$$
P500246
     RDKit          3D

 27 29  0  0  0  0  0  0  0  0999 V2000
   12.1708   15.0818   23.0200 N   0  0  0  0  0  0  0  0  0  0  0  0
   12.0835   15.6879   21.6784 C   0  0  0  0  0  0  0  0  0  0  0  0
   11.4209   14.6932   20.7172 C   0  0  2  0  0  0  0  0  0  0  0  0
   10.4734   15.3359   19.7054 C   0  0  0  0  0  0  0  0  0  0  0  0
    9.3785   16.0271   20.3364 O   0  0  0  0  0  0  0  0  0  0  0  0
    8.9870   15.4584   21.6136 C   0  0  1  0  0  0  0  0  0  0  0  0
    7.4849   15.6521   21.8591 C   0  0  0  0  0  0  0  0  0  0  0  0
    7.0498   15.3067   23.1898 O   0  0  0  0  0  0  0  0  0  0  0  0
    6.5652   14.0573   23.3862 C   0  0  0  0  0  0  0  0  0  0  0  0
    6.5331   13.1773   22.5275 O   0  0  0  0  0  0  0  0  0  0  0  0
    6.0271   13.8409   24.8011 C   0  0  0  0  0  0  0  0  0  0  0  0
    6.3463   12.4054   25.2469 C   0  0  0  0  0  0  0  0  0  0  0  0
    7.8358   12.2232   25.5050 C   0  0  0  0  0  0  0  0  0  0  0  0
    8.3882   13.2968   26.3586 N   0  0  0  0  0  0  0  0  0  0  0  0
    9.7776   14.1157   25.8473 S   0  0  0  0  0  0  0  0  0  0  0  0
   10.0409   15.1129   26.8542 O   0  0  0  0  0  0  0  0  0  0  0  0
    9.6165   14.5008   24.4715 O   0  0  0  0  0  0  0  0  0  0  0  0
   10.9650   12.9373   25.9592 N   0  0  0  0  0  0  0  0  0  0  0  0
   11.1136   11.9339   24.8927 C   0  0  0  0  0  0  0  0  0  0  0  0
   12.2160   10.9823   25.3511 C   0  0  0  0  0  0  0  0  0  0  0  0
   13.6036   11.5430   25.3749 C   0  0  0  0  0  0  0  0  0  0  0  0
   13.4863   12.9959   25.7756 C   0  0  0  0  0  0  0  0  0  0  0  0
   12.2400   13.3222   26.6271 C   0  0  0  0  0  0  0  0  0  0  0  0
    7.3438   14.1734   26.9561 C   0  0  0  0  0  0  0  0  0  0  0  0
    6.5155   14.8406   25.8634 C   0  0  0  0  0  0  0  0  0  0  0  0
    9.3479   13.9858   21.6371 C   0  0  0  0  0  0  0  0  0  0  0  0
   10.7416   13.7340   21.5577 O   0  0  0  0  0  0  0  0  0  0  0  0
  1  2  1  0
  3  2  1  1
  3  4  1  0
  4  5  1  0
  5  6  1  0
  6  7  1  6
  7  8  1  0
  8  9  1  0
  9 10  2  0
  9 11  1  0
 11 12  1  0
 12 13  1  0
 13 14  1  0
 14 15  1  0
 15 16  2  0
 15 17  2  0
 15 18  1  0
 18 19  1  0
 19 20  1  0
 20 21  1  0
 21 22  1  0
 22 23  1  0
 14 24  1  0
 24 25  1  0
  6 26  1  0
 26 27  1  0
 27  3  1  0
 25 11  1  0
 23 18  1  0
M  END
>  <energy_score>  (1081) 
-70.587452

>  <inchikey>  (1081) 
None

>  <smiles>  (1081) 
None

>  <ref_pdb>  (1081) 
A4706a

>  <alias>  (1081) 
None

>  <HIPPO Pose ID>  (1081) 
500246

>  <name>  (1081) 
P500246

>  <HIPPO Compound ID>  (1081) 
314604

>  <ref_mols>  (1081) 
A4706a,A0875a

>  <distance_score>  (1081) 
1.558448

>  <inspiration_score>  (1081) 
None

$$$$
P500250
     RDKit          3D

 27 29  0  0  0  0  0  0  0  0999 V2000
   12.3024   14.7008   19.8830 C   0  0  0  0  0  0  0  0  0  0  0  0
   11.1136   15.2901   19.3336 N   0  0  0  0  0  0  0  0  0  0  0  0
   10.5802   14.4960   18.2849 C   0  0  0  0  0  0  0  0  0  0  0  0
   10.1202   15.7288   20.2701 C   0  0  0  0  0  0  0  0  0  0  0  0
    9.4146   14.7704   21.2526 C   0  0  1  0  0  0  0  0  0  0  0  0
   10.3122   13.7771   21.9660 C   0  0  0  0  0  0  0  0  0  0  0  0
   10.9203   14.4074   23.0890 O   0  0  0  0  0  0  0  0  0  0  0  0
   10.3450   15.7112   23.1542 C   0  0  0  0  0  0  0  0  0  0  0  0
    8.9921   15.6800   22.3964 C   0  0  2  0  0  0  0  0  0  0  0  0
    7.9496   15.3148   23.3407 O   0  0  0  0  0  0  0  0  0  0  0  0
    6.8566   14.5580   23.0939 C   0  0  0  0  0  0  0  0  0  0  0  0
    6.5773   14.0490   22.0139 O   0  0  0  0  0  0  0  0  0  0  0  0
    5.9839   14.3537   24.3721 C   0  0  0  0  0  0  0  0  0  0  0  0
    5.7827   12.8609   24.7173 C   0  0  0  0  0  0  0  0  0  0  0  0
    6.7051   12.1873   25.7513 C   0  0  0  0  0  0  0  0  0  0  0  0
    7.6236   13.1595   26.3837 N   0  0  0  0  0  0  0  0  0  0  0  0
    8.9943   13.5077   25.4554 S   0  0  0  0  0  0  0  0  0  0  0  0
    8.6814   13.0349   24.1379 O   0  0  0  0  0  0  0  0  0  0  0  0
    9.3604   14.8590   25.8007 O   0  0  0  0  0  0  0  0  0  0  0  0
   10.1668   12.5112   26.0602 N   0  0  0  0  0  0  0  0  0  0  0  0
   10.9238   11.6430   25.1328 C   0  0  0  0  0  0  0  0  0  0  0  0
   12.4119   11.9933   24.9775 C   0  0  0  0  0  0  0  0  0  0  0  0
   13.1047   12.7697   26.0606 C   0  0  0  0  0  0  0  0  0  0  0  0
   12.1632   13.8371   26.5745 C   0  0  0  0  0  0  0  0  0  0  0  0
   10.9541   13.1533   27.0874 C   0  0  0  0  0  0  0  0  0  0  0  0
    6.8512   14.3574   26.8128 C   0  0  0  0  0  0  0  0  0  0  0  0
    6.3427   15.1777   25.6210 C   0  0  0  0  0  0  0  0  0  0  0  0
  1  2  1  0
  2  3  1  0
  2  4  1  0
  5  4  1  6
  5  6  1  0
  6  7  1  0
  7  8  1  0
  8  9  1  0
  9 10  1  1
 10 11  1  0
 11 12  2  0
 11 13  1  0
 13 14  1  0
 14 15  1  0
 15 16  1  0
 16 17  1  0
 17 18  2  0
 17 19  2  0
 17 20  1  0
 20 21  1  0
 21 22  1  0
 22 23  1  0
 23 24  1  0
 24 25  1  0
 16 26  1  0
 26 27  1  0
  9  5  1  0
 27 13  1  0
 25 20  1  0
M  END
>  <energy_score>  (1082) 
-9.464712

>  <inchikey>  (1082) 
None

>  <smiles>  (1082) 
None

>  <ref_pdb>  (1082) 
A4706a

>  <alias>  (1082) 
None

>  <HIPPO Pose ID>  (1082) 
500250

>  <name>  (1082) 
P500250

>  <HIPPO Compound ID>  (1082) 
314605

>  <ref_mols>  (1082) 
A4706a,A0875a

>  <distance_score>  (1082) 
1.673517

>  <inspiration_score>  (1082) 
None

$$$$
P500253
     RDKit          3D

 27 30  0  0  0  0  0  0  0  0999 V2000
    5.2521   14.5225   22.5698 O   0  0  0  0  0  0  0  0  0  0  0  0
    6.2425   14.0738   23.1295 C   0  0  0  0  0  0  0  0  0  0  0  0
    7.4988   14.1091   22.6253 O   0  0  0  0  0  0  0  0  0  0  0  0
    7.7389   14.9727   21.4967 C   0  0  0  0  0  0  0  0  0  0  0  0
    9.2446   15.1855   21.2951 C   0  0  1  0  0  0  0  0  0  0  0  0
    9.6418   15.8347   19.9601 C   0  0  0  0  0  0  0  0  0  0  0  0
   10.9894   15.3948   19.6698 O   0  0  0  0  0  0  0  0  0  0  0  0
   11.3353   14.4397   20.6809 C   0  0  1  0  0  0  0  0  0  0  0  0
   12.0222   15.1484   21.8242 C   0  0  0  0  0  0  0  0  0  0  0  0
   11.1128   16.2127   22.3760 C   0  0  0  0  0  0  0  0  0  0  0  0
    9.7434   15.8742   22.4306 O   0  0  0  0  0  0  0  0  0  0  0  0
   10.0139   13.9107   21.1912 C   0  0  0  0  0  0  0  0  0  0  0  0
    6.2287   13.4547   24.5274 C   0  0  0  0  0  0  0  0  0  0  0  0
    7.1267   12.1980   24.6274 C   0  0  0  0  0  0  0  0  0  0  0  0
    7.8573   11.9621   25.9374 C   0  0  0  0  0  0  0  0  0  0  0  0
    8.3211   13.2199   26.5271 N   0  0  0  0  0  0  0  0  0  0  0  0
    9.6303   14.0171   25.8134 S   0  0  0  0  0  0  0  0  0  0  0  0
    9.7798   15.2549   26.5367 O   0  0  0  0  0  0  0  0  0  0  0  0
    9.4750   13.9844   24.3888 O   0  0  0  0  0  0  0  0  0  0  0  0
   10.9418   12.9876   26.1992 N   0  0  0  0  0  0  0  0  0  0  0  0
   11.4714   12.2481   25.0334 C   0  0  0  0  0  0  0  0  0  0  0  0
   12.5989   11.2898   25.4439 C   0  0  0  0  0  0  0  0  0  0  0  0
   13.3829   11.6768   26.6852 C   0  0  0  0  0  0  0  0  0  0  0  0
   13.4003   13.1487   26.7375 C   0  0  0  0  0  0  0  0  0  0  0  0
   11.9938   13.7115   26.9610 C   0  0  0  0  0  0  0  0  0  0  0  0
    7.1538   14.0966   26.8163 C   0  0  0  0  0  0  0  0  0  0  0  0
    6.5329   14.5851   25.5210 C   0  0  0  0  0  0  0  0  0  0  0  0
  1  2  2  0
  2  3  1  0
  3  4  1  0
  5  4  1  1
  5  6  1  0
  6  7  1  0
  7  8  1  0
  8  9  1  1
  9 10  1  0
 10 11  1  0
  8 12  1  0
  2 13  1  0
 13 14  1  0
 14 15  1  0
 15 16  1  0
 16 17  1  0
 17 18  2  0
 17 19  2  0
 17 20  1  0
 20 21  1  0
 21 22  1  0
 22 23  1  0
 23 24  1  0
 24 25  1  0
 16 26  1  0
 26 27  1  0
 11  5  1  0
 27 13  1  0
 12  5  1  0
 25 20  1  0
M  END
>  <energy_score>  (1083) 
-59.246279

>  <inchikey>  (1083) 
None

>  <smiles>  (1083) 
None

>  <ref_pdb>  (1083) 
A4706a

>  <alias>  (1083) 
None

>  <HIPPO Pose ID>  (1083) 
500253

>  <name>  (1083) 
P500253

>  <HIPPO Compound ID>  (1083) 
314607

>  <ref_mols>  (1083) 
A4706a,A0875a

>  <distance_score>  (1083) 
1.53289

>  <inspiration_score>  (1083) 
None

$$$$
P500255
     RDKit          3D

 27 29  0  0  0  0  0  0  0  0999 V2000
   10.7718   14.8361   18.9969 C   0  0  0  0  0  0  0  0  0  0  0  0
    9.5440   15.0560   19.6502 O   0  0  0  0  0  0  0  0  0  0  0  0
    9.4600   15.1668   21.0750 C   0  0  1  0  0  0  0  0  0  0  0  0
    7.9206   15.1710   21.3348 C   0  0  0  0  0  0  0  0  0  0  0  0
    7.5451   14.9293   22.6845 O   0  0  0  0  0  0  0  0  0  0  0  0
    6.8719   13.7709   22.9294 C   0  0  0  0  0  0  0  0  0  0  0  0
    6.2307   13.0980   22.1426 O   0  0  0  0  0  0  0  0  0  0  0  0
    7.1521   13.4114   24.3451 C   0  0  0  0  0  0  0  0  0  0  0  0
    7.1021   11.9711   24.8017 C   0  0  0  0  0  0  0  0  0  0  0  0
    7.9914   11.8188   26.0371 C   0  0  0  0  0  0  0  0  0  0  0  0
    8.2615   13.1228   26.6816 N   0  0  0  0  0  0  0  0  0  0  0  0
    9.6568   14.0469   26.4589 S   0  0  0  0  0  0  0  0  0  0  0  0
    9.6957   14.6988   25.1724 O   0  0  0  0  0  0  0  0  0  0  0  0
    9.7212   14.8707   27.6417 O   0  0  0  0  0  0  0  0  0  0  0  0
   10.9745   12.9589   26.5199 N   0  0  0  0  0  0  0  0  0  0  0  0
   11.3652   12.3418   25.2324 C   0  0  0  0  0  0  0  0  0  0  0  0
   12.5093   11.3398   25.4340 C   0  0  0  0  0  0  0  0  0  0  0  0
   13.4486   11.6440   26.5800 C   0  0  0  0  0  0  0  0  0  0  0  0
   13.5088   13.1118   26.7028 C   0  0  0  0  0  0  0  0  0  0  0  0
   12.1468   13.6707   27.1357 C   0  0  0  0  0  0  0  0  0  0  0  0
    7.0110   13.9380   26.7819 C   0  0  0  0  0  0  0  0  0  0  0  0
    6.5716   14.3644   25.3821 C   0  0  0  0  0  0  0  0  0  0  0  0
   10.1442   14.0439   21.8535 C   0  0  0  0  0  0  0  0  0  0  0  0
   11.4955   14.3971   22.4428 C   0  0  0  0  0  0  0  0  0  0  0  0
   12.2081   15.4839   21.7030 C   0  0  0  0  0  0  0  0  0  0  0  0
   11.4209   16.6452   21.6008 O   0  0  0  0  0  0  0  0  0  0  0  0
   10.0079   16.4859   21.5781 C   0  0  0  0  0  0  0  0  0  0  0  0
  1  2  1  0
  3  2  1  0
  3  4  1  6
  4  5  1  0
  5  6  1  0
  6  7  2  0
  6  8  1  0
  8  9  1  0
  9 10  1  0
 10 11  1  0
 11 12  1  0
 12 13  2  0
 12 14  2  0
 12 15  1  0
 15 16  1  0
 16 17  1  0
 17 18  1  0
 18 19  1  0
 19 20  1  0
 11 21  1  0
 21 22  1  0
  3 23  1  0
 23 24  1  0
 24 25  1  0
 25 26  1  0
 26 27  1  0
 27  3  1  0
 22  8  1  0
 20 15  1  0
M  END
>  <energy_score>  (1084) 
-27.273043

>  <inchikey>  (1084) 
None

>  <smiles>  (1084) 
None

>  <ref_pdb>  (1084) 
A4706a

>  <alias>  (1084) 
None

>  <HIPPO Pose ID>  (1084) 
500255

>  <name>  (1084) 
P500255

>  <HIPPO Compound ID>  (1084) 
314609

>  <ref_mols>  (1084) 
A4706a,A0875a

>  <distance_score>  (1084) 
1.540035

>  <inspiration_score>  (1084) 
None

$$$$
P500256
     RDKit          3D

 27 28  0  0  0  0  0  0  0  0999 V2000
   15.7602    9.5012   25.7784 C   0  0  0  0  0  0  0  0  0  0  0  0
   15.8236   10.8272   26.2935 O   0  0  0  0  0  0  0  0  0  0  0  0
   16.3062   10.9347   27.5732 C   0  0  0  0  0  0  0  0  0  0  0  0
   16.9114   10.0503   28.1616 O   0  0  0  0  0  0  0  0  0  0  0  0
   15.9908   12.3300   28.1585 C   0  0  1  0  0  0  0  0  0  0  0  0
   14.9414   13.0497   27.4461 O   0  0  0  0  0  0  0  0  0  0  0  0
   13.7885   12.3958   27.1698 C   0  0  0  0  0  0  0  0  0  0  0  0
   13.4308   11.3711   27.7168 O   0  0  0  0  0  0  0  0  0  0  0  0
   12.9805   13.0336   26.0754 C   0  0  0  0  0  0  0  0  0  0  0  0
   11.9048   13.9280   26.6837 C   0  0  0  0  0  0  0  0  0  0  0  0
   10.5429   13.2831   26.6247 C   0  0  0  0  0  0  0  0  0  0  0  0
   10.1559   12.9849   25.2319 N   0  0  0  0  0  0  0  0  0  0  0  0
    8.9976   14.0462   24.6346 S   0  0  0  0  0  0  0  0  0  0  0  0
    8.7838   13.7942   23.2349 O   0  0  0  0  0  0  0  0  0  0  0  0
    9.3542   15.3418   25.1525 O   0  0  0  0  0  0  0  0  0  0  0  0
    7.6956   13.4607   25.5038 N   0  0  0  0  0  0  0  0  0  0  0  0
    7.1771   12.1308   25.1305 C   0  0  0  0  0  0  0  0  0  0  0  0
    6.4829   11.5509   26.3570 C   0  0  0  0  0  0  0  0  0  0  0  0
    5.3877   12.4853   26.8715 C   0  0  0  0  0  0  0  0  0  0  0  0
    5.9025   13.9126   27.0614 C   0  0  0  0  0  0  0  0  0  0  0  0
    6.6123   14.4169   25.8061 C   0  0  0  0  0  0  0  0  0  0  0  0
   11.2628   12.6811   24.3135 C   0  0  0  0  0  0  0  0  0  0  0  0
   12.3873   12.0167   25.1114 C   0  0  0  0  0  0  0  0  0  0  0  0
   15.8455   12.4071   29.7235 C   0  0  0  0  0  0  0  0  0  0  0  0
   14.8043   11.4292   30.2980 C   0  0  0  0  0  0  0  0  0  0  0  0
   15.4281   13.8284   30.1630 C   0  0  0  0  0  0  0  0  0  0  0  0
   17.2045   12.1067   30.3977 C   0  0  0  0  0  0  0  0  0  0  0  0
  1  2  1  0
  2  3  1  0
  3  4  2  0
  3  5  1  0
  5  6  1  6
  6  7  1  0
  7  8  2  0
  7  9  1  0
  9 10  1  0
 10 11  1  0
 11 12  1  0
 12 13  1  0
 13 14  2  0
 13 15  2  0
 13 16  1  0
 16 17  1  0
 17 18  1  0
 18 19  1  0
 19 20  1  0
 20 21  1  0
 12 22  1  0
 22 23  1  0
  5 24  1  0
 24 25  1  0
 24 26  1  0
 24 27  1  0
 23  9  1  0
 21 16  1  0
M  END
>  <energy_score>  (1085) 
-78.061088

>  <inchikey>  (1085) 
None

>  <smiles>  (1085) 
None

>  <ref_pdb>  (1085) 
A4706a

>  <alias>  (1085) 
None

>  <HIPPO Pose ID>  (1085) 
500256

>  <name>  (1085) 
P500256

>  <HIPPO Compound ID>  (1085) 
314610

>  <ref_mols>  (1085) 
A4706a,A0875a

>  <distance_score>  (1085) 
1.983342

>  <inspiration_score>  (1085) 
None

$$$$
P500257
     RDKit          3D

 27 30  0  0  0  0  0  0  0  0999 V2000
   11.2643   14.4313   18.3920 O   0  0  0  0  0  0  0  0  0  0  0  0
   10.8571   15.0080   19.3779 C   0  0  0  0  0  0  0  0  0  0  0  0
    9.9785   16.0443   19.3553 O   0  0  0  0  0  0  0  0  0  0  0  0
    9.6726   16.3722   20.6958 C   0  0  1  0  0  0  0  0  0  0  0  0
    8.3874   15.7031   21.1456 C   0  0  0  0  0  0  0  0  0  0  0  0
    8.7268   14.8224   22.3115 C   0  0  2  0  0  0  0  0  0  0  0  0
    7.7621   15.0309   23.3613 O   0  0  0  0  0  0  0  0  0  0  0  0
    6.6893   14.1843   23.3744 C   0  0  0  0  0  0  0  0  0  0  0  0
    6.3709   13.4516   22.4402 O   0  0  0  0  0  0  0  0  0  0  0  0
    5.9680   14.1619   24.7384 C   0  0  0  0  0  0  0  0  0  0  0  0
    5.8178   12.7131   25.2556 C   0  0  0  0  0  0  0  0  0  0  0  0
    6.9328   12.1323   26.1381 C   0  0  0  0  0  0  0  0  0  0  0  0
    7.9448   13.1513   26.4943 N   0  0  0  0  0  0  0  0  0  0  0  0
    9.1809   13.3576   25.3792 S   0  0  0  0  0  0  0  0  0  0  0  0
    9.6466   14.7190   25.4770 O   0  0  0  0  0  0  0  0  0  0  0  0
    8.7043   12.7618   24.1578 O   0  0  0  0  0  0  0  0  0  0  0  0
   10.3982   12.3260   25.9083 N   0  0  0  0  0  0  0  0  0  0  0  0
   11.6818   12.9966   26.2440 C   0  0  0  0  0  0  0  0  0  0  0  0
   12.7634   12.6115   25.2602 C   0  0  0  0  0  0  0  0  0  0  0  0
   13.0208   11.1255   25.4163 C   0  0  0  0  0  0  0  0  0  0  0  0
   11.7196   10.2863   25.2849 C   0  0  0  0  0  0  0  0  0  0  0  0
   10.4931   11.1251   25.0095 C   0  0  0  0  0  0  0  0  0  0  0  0
    7.2755   14.3910   26.9564 C   0  0  0  0  0  0  0  0  0  0  0  0
    6.5184   15.0950   25.8287 C   0  0  0  0  0  0  0  0  0  0  0  0
   10.1478   15.2121   22.7275 C   0  0  0  0  0  0  0  0  0  0  0  0
   10.7846   15.7432   21.4744 C   0  0  1  0  0  0  0  0  0  0  0  0
   11.2171   14.6855   20.6515 O   0  0  0  0  0  0  0  0  0  0  0  0
  1  2  2  0
  2  3  1  0
  3  4  1  0
  4  5  1  1
  5  6  1  0
  6  7  1  1
  7  8  1  0
  8  9  2  0
  8 10  1  0
 10 11  1  0
 11 12  1  0
 12 13  1  0
 13 14  1  0
 14 15  2  0
 14 16  2  0
 14 17  1  0
 17 18  1  0
 18 19  1  0
 19 20  1  0
 20 21  1  0
 21 22  1  0
 13 23  1  0
 23 24  1  0
  6 25  1  0
 26 25  1  1
 26 27  1  0
 27  2  1  0
 26  4  1  0
 24 10  1  0
 22 17  1  0
M  END
>  <energy_score>  (1086) 
-39.806071

>  <inchikey>  (1086) 
None

>  <smiles>  (1086) 
None

>  <ref_pdb>  (1086) 
A4706a

>  <alias>  (1086) 
None

>  <HIPPO Pose ID>  (1086) 
500257

>  <name>  (1086) 
P500257

>  <HIPPO Compound ID>  (1086) 
314611

>  <ref_mols>  (1086) 
A0875a,A4706a

>  <distance_score>  (1086) 
1.402305

>  <inspiration_score>  (1086) 
None

$$$$
P500261
     RDKit          3D

 27 30  0  0  0  0  0  0  0  0999 V2000
    6.1881   15.8771   22.3528 O   0  0  0  0  0  0  0  0  0  0  0  0
    6.9525   15.3268   23.1346 C   0  0  0  0  0  0  0  0  0  0  0  0
    8.3113   15.2534   22.9781 O   0  0  0  0  0  0  0  0  0  0  0  0
    8.8667   15.6539   21.7134 C   0  0  2  0  0  0  0  0  0  0  0  0
    8.3188   14.7329   20.6630 C   0  0  0  0  0  0  0  0  0  0  0  0
    9.0238   15.0582   19.4737 O   0  0  0  0  0  0  0  0  0  0  0  0
   10.3124   15.2286   19.8418 C   0  0  0  0  0  0  0  0  0  0  0  0
   11.2101   15.3250   19.0261 O   0  0  0  0  0  0  0  0  0  0  0  0
   10.3384   15.2980   21.4121 C   0  0  0  0  0  0  0  0  0  0  0  0
   11.5605   16.0503   21.9496 C   0  0  0  0  0  0  0  0  0  0  0  0
   11.6430   15.0208   23.0595 C   0  0  0  0  0  0  0  0  0  0  0  0
   10.9247   14.0450   22.1259 C   0  0  0  0  0  0  0  0  0  0  0  0
    6.4226   14.5511   24.3424 C   0  0  0  0  0  0  0  0  0  0  0  0
    6.8160   13.0621   24.2315 C   0  0  0  0  0  0  0  0  0  0  0  0
    7.0647   12.3350   25.5416 C   0  0  0  0  0  0  0  0  0  0  0  0
    7.7890   13.1798   26.5080 N   0  0  0  0  0  0  0  0  0  0  0  0
    9.3423   13.7505   26.1808 S   0  0  0  0  0  0  0  0  0  0  0  0
    9.6949   14.6250   27.2731 O   0  0  0  0  0  0  0  0  0  0  0  0
    9.3833   14.2350   24.8348 O   0  0  0  0  0  0  0  0  0  0  0  0
   10.4629   12.5011   26.2075 N   0  0  0  0  0  0  0  0  0  0  0  0
   11.8314   13.1384   26.2052 C   0  0  0  0  0  0  0  0  0  0  0  0
   12.7552   12.5559   25.1608 C   0  0  0  0  0  0  0  0  0  0  0  0
   12.8374   11.0812   25.4155 C   0  0  0  0  0  0  0  0  0  0  0  0
   11.4451   10.4133   25.2713 C   0  0  0  0  0  0  0  0  0  0  0  0
   10.2938   11.4131   25.2163 C   0  0  0  0  0  0  0  0  0  0  0  0
    6.8708   14.3216   26.8569 C   0  0  0  0  0  0  0  0  0  0  0  0
    6.7225   15.2668   25.6643 C   0  0  0  0  0  0  0  0  0  0  0  0
  1  2  2  0
  2  3  1  0
  4  3  1  1
  4  5  1  0
  5  6  1  0
  6  7  1  0
  7  8  2  0
  7  9  1  0
  9 10  1  0
 10 11  1  0
 11 12  1  0
  2 13  1  0
 13 14  1  0
 14 15  1  0
 15 16  1  0
 16 17  1  0
 17 18  2  0
 17 19  2  0
 17 20  1  0
 20 21  1  0
 21 22  1  0
 22 23  1  0
 23 24  1  0
 24 25  1  0
 16 26  1  0
 26 27  1  0
  9  4  1  0
 27 13  1  0
 12  9  1  0
 25 20  1  0
M  END
>  <energy_score>  (1087) 
-26.462978

>  <inchikey>  (1087) 
None

>  <smiles>  (1087) 
None

>  <ref_pdb>  (1087) 
A4706a

>  <alias>  (1087) 
None

>  <HIPPO Pose ID>  (1087) 
500261

>  <name>  (1087) 
P500261

>  <HIPPO Compound ID>  (1087) 
314613

>  <ref_mols>  (1087) 
A4706a,A0875a

>  <distance_score>  (1087) 
1.43987

>  <inspiration_score>  (1087) 
None

$$$$
P500262
     RDKit          3D

 27 29  0  0  0  0  0  0  0  0999 V2000
   11.5938   14.6639   21.6584 C   0  0  0  0  0  0  0  0  0  0  0  0
   10.6661   15.1215   20.5413 C   0  0  0  0  0  0  0  0  0  0  0  0
   11.3561   15.0025   19.1781 C   0  0  0  0  0  0  0  0  0  0  0  0
    9.3838   14.3468   20.4552 C   0  0  0  0  0  0  0  0  0  0  0  0
    8.5951   14.3574   21.6220 O   0  0  0  0  0  0  0  0  0  0  0  0
    8.1060   15.6686   21.7993 C   0  0  1  0  0  0  0  0  0  0  0  0
    7.2364   15.7897   23.0564 C   0  0  0  0  0  0  0  0  0  0  0  0
    6.0996   14.9077   23.1534 O   0  0  0  0  0  0  0  0  0  0  0  0
    6.3556   13.6540   23.5966 C   0  0  0  0  0  0  0  0  0  0  0  0
    6.8035   12.7725   22.8745 O   0  0  0  0  0  0  0  0  0  0  0  0
    5.9342   13.4020   25.0451 C   0  0  0  0  0  0  0  0  0  0  0  0
    6.4283   12.0275   25.5348 C   0  0  0  0  0  0  0  0  0  0  0  0
    7.9298   11.9687   25.7903 C   0  0  0  0  0  0  0  0  0  0  0  0
    8.4245   13.2072   26.4321 N   0  0  0  0  0  0  0  0  0  0  0  0
    9.6531   14.0316   25.6327 S   0  0  0  0  0  0  0  0  0  0  0  0
    9.8290   15.3074   26.2808 O   0  0  0  0  0  0  0  0  0  0  0  0
    9.4014   13.9512   24.2232 O   0  0  0  0  0  0  0  0  0  0  0  0
   10.9982   13.0397   26.0075 N   0  0  0  0  0  0  0  0  0  0  0  0
   11.8080   13.6230   27.1092 C   0  0  0  0  0  0  0  0  0  0  0  0
   13.0672   12.8173   27.4364 C   0  0  0  0  0  0  0  0  0  0  0  0
   13.8462   12.3252   26.2403 C   0  0  0  0  0  0  0  0  0  0  0  0
   12.9081   11.7320   25.2226 C   0  0  0  0  0  0  0  0  0  0  0  0
   11.8192   12.7160   24.8150 C   0  0  0  0  0  0  0  0  0  0  0  0
    7.3666   14.0252   27.0661 C   0  0  0  0  0  0  0  0  0  0  0  0
    6.3236   14.4874   26.0556 C   0  0  0  0  0  0  0  0  0  0  0  0
    9.3101   16.6168   21.7977 C   0  0  0  0  0  0  0  0  0  0  0  0
   10.2603   16.4709   20.7418 O   0  0  0  0  0  0  0  0  0  0  0  0
  1  2  1  0
  2  3  1  0
  2  4  1  0
  4  5  1  0
  5  6  1  0
  6  7  1  1
  7  8  1  0
  8  9  1  0
  9 10  2  0
  9 11  1  0
 11 12  1  0
 12 13  1  0
 13 14  1  0
 14 15  1  0
 15 16  2  0
 15 17  2  0
 15 18  1  0
 18 19  1  0
 19 20  1  0
 20 21  1  0
 21 22  1  0
 22 23  1  0
 14 24  1  0
 24 25  1  0
  6 26  1  0
 26 27  1  0
 27  2  1  0
 25 11  1  0
 23 18  1  0
M  END
>  <energy_score>  (1088) 
-33.074159

>  <inchikey>  (1088) 
None

>  <smiles>  (1088) 
None

>  <ref_pdb>  (1088) 
A4706a

>  <alias>  (1088) 
None

>  <HIPPO Pose ID>  (1088) 
500262

>  <name>  (1088) 
P500262

>  <HIPPO Compound ID>  (1088) 
314614

>  <ref_mols>  (1088) 
A4706a,A0875a

>  <distance_score>  (1088) 
1.972594

>  <inspiration_score>  (1088) 
None

$$$$
P500265
     RDKit          3D

 27 30  0  0  0  0  0  0  0  0999 V2000
    6.9150   16.1629   23.0658 N   0  0  0  0  0  0  0  0  0  0  0  0
    7.8718   16.3033   21.9589 C   0  0  0  0  0  0  0  0  0  0  0  0
    8.9572   15.2212   21.7012 C   0  0  2  0  0  0  0  0  0  0  0  0
    8.3186   13.9351   21.5550 O   0  0  0  0  0  0  0  0  0  0  0  0
    7.5085   13.4401   22.5355 C   0  0  0  0  0  0  0  0  0  0  0  0
    6.3580   13.1009   22.2657 O   0  0  0  0  0  0  0  0  0  0  0  0
    8.0790   13.2122   23.9179 C   0  0  0  0  0  0  0  0  0  0  0  0
    8.1001   11.7317   24.2880 C   0  0  0  0  0  0  0  0  0  0  0  0
    8.9862   11.4977   25.5069 C   0  0  0  0  0  0  0  0  0  0  0  0
    9.0804   12.6889   26.3655 N   0  0  0  0  0  0  0  0  0  0  0  0
   10.4302   13.6954   26.4769 S   0  0  0  0  0  0  0  0  0  0  0  0
   10.3516   14.2631   27.7981 O   0  0  0  0  0  0  0  0  0  0  0  0
   10.5082   14.5639   25.3336 O   0  0  0  0  0  0  0  0  0  0  0  0
   11.7863   12.6588   26.4118 N   0  0  0  0  0  0  0  0  0  0  0  0
   12.3296   12.4384   25.0641 C   0  0  0  0  0  0  0  0  0  0  0  0
   13.3312   11.2831   25.1471 C   0  0  0  0  0  0  0  0  0  0  0  0
   14.4540   11.4382   26.1416 C   0  0  0  0  0  0  0  0  0  0  0  0
   14.3020   12.7289   26.8809 C   0  0  0  0  0  0  0  0  0  0  0  0
   12.8798   12.9647   27.3958 C   0  0  0  0  0  0  0  0  0  0  0  0
    7.7704   13.4137   26.4295 C   0  0  0  0  0  0  0  0  0  0  0  0
    7.4383   14.0095   25.0610 C   0  0  0  0  0  0  0  0  0  0  0  0
   10.1740   15.1446   22.6340 C   0  0  0  0  0  0  0  0  0  0  0  0
   11.3319   15.6441   21.8062 C   0  0  1  0  0  0  0  0  0  0  0  0
   11.7298   14.6412   20.7304 C   0  0  0  0  0  0  0  0  0  0  0  0
   10.6178   14.7916   19.7213 C   0  0  0  0  0  0  0  0  0  0  0  0
    9.6874   15.7421   20.4277 C   0  0  2  0  0  0  0  0  0  0  0  0
   10.6496   16.6263   21.0488 O   0  0  0  0  0  0  0  0  0  0  0  0
  1  2  1  0
  3  2  1  1
  3  4  1  0
  4  5  1  0
  5  6  2  0
  5  7  1  0
  7  8  1  0
  8  9  1  0
  9 10  1  0
 10 11  1  0
 11 12  2  0
 11 13  2  0
 11 14  1  0
 14 15  1  0
 15 16  1  0
 16 17  1  0
 17 18  1  0
 18 19  1  0
 10 20  1  0
 20 21  1  0
  3 22  1  0
 23 22  1  1
 23 24  1  0
 24 25  1  0
 26 25  1  1
 26 27  1  0
 26  3  1  0
 21  7  1  0
 27 23  1  0
 19 14  1  0
M  END
>  <energy_score>  (1089) 
-52.428443

>  <inchikey>  (1089) 
None

>  <smiles>  (1089) 
None

>  <ref_pdb>  (1089) 
A4706a

>  <alias>  (1089) 
None

>  <HIPPO Pose ID>  (1089) 
500265

>  <name>  (1089) 
P500265

>  <HIPPO Compound ID>  (1089) 
314615

>  <ref_mols>  (1089) 
A4706a,A0875a

>  <distance_score>  (1089) 
1.627653

>  <inspiration_score>  (1089) 
None

$$$$
P500266
     RDKit          3D

 27 29  0  0  0  0  0  0  0  0999 V2000
   11.6648   14.8896   18.2364 C   0  0  0  0  0  0  0  0  0  0  0  0
   10.3687   14.6261   18.6947 O   0  0  0  0  0  0  0  0  0  0  0  0
   10.0840   15.4096   19.8262 C   0  0  0  0  0  0  0  0  0  0  0  0
   10.5052   14.6844   21.0802 C   0  0  0  0  0  0  0  0  0  0  0  0
   10.0253   15.4105   22.1875 O   0  0  0  0  0  0  0  0  0  0  0  0
    9.2128   14.6225   23.0517 C   0  0  0  0  0  0  0  0  0  0  0  0
    7.7133   14.6217   22.7602 C   0  0  0  0  0  0  0  0  0  0  0  0
    6.9510   13.9285   23.7771 O   0  0  0  0  0  0  0  0  0  0  0  0
    5.5943   14.0040   23.9104 C   0  0  0  0  0  0  0  0  0  0  0  0
    4.7958   14.4900   23.1189 O   0  0  0  0  0  0  0  0  0  0  0  0
    5.1418   13.4726   25.2588 C   0  0  0  0  0  0  0  0  0  0  0  0
    5.9716   12.2875   25.7799 C   0  0  0  0  0  0  0  0  0  0  0  0
    6.9936   12.7326   26.8251 C   0  0  0  0  0  0  0  0  0  0  0  0
    7.5546   14.0103   26.3714 N   0  0  0  0  0  0  0  0  0  0  0  0
    9.1325   14.4682   26.6502 S   0  0  0  0  0  0  0  0  0  0  0  0
    9.2926   15.8139   26.1693 O   0  0  0  0  0  0  0  0  0  0  0  0
    9.4744   14.1552   28.0100 O   0  0  0  0  0  0  0  0  0  0  0  0
   10.1038   13.5091   25.6503 N   0  0  0  0  0  0  0  0  0  0  0  0
    9.8675   12.0708   25.7002 C   0  0  0  0  0  0  0  0  0  0  0  0
   10.9292   11.2631   25.0052 C   0  0  0  0  0  0  0  0  0  0  0  0
   12.3397   11.6949   25.3984 C   0  0  0  0  0  0  0  0  0  0  0  0
   12.4863   13.1343   24.9839 C   0  0  0  0  0  0  0  0  0  0  0  0
   11.5183   13.9554   25.8040 C   0  0  0  0  0  0  0  0  0  0  0  0
    6.5758   15.1246   26.5362 C   0  0  0  0  0  0  0  0  0  0  0  0
    5.1548   14.6398   26.2457 C   0  0  0  0  0  0  0  0  0  0  0  0
    7.1510   14.4674   21.3857 C   0  0  0  0  0  0  0  0  0  0  0  0
    7.1475   15.8201   22.0585 C   0  0  0  0  0  0  0  0  0  0  0  0
  1  2  1  0
  2  3  1  0
  3  4  1  0
  4  5  1  0
  5  6  1  0
  6  7  1  0
  7  8  1  0
  8  9  1  0
  9 10  2  0
  9 11  1  0
 11 12  1  0
 12 13  1  0
 13 14  1  0
 14 15  1  0
 15 16  2  0
 15 17  2  0
 15 18  1  0
 18 19  1  0
 19 20  1  0
 20 21  1  0
 21 22  1  0
 22 23  1  0
 14 24  1  0
 24 25  1  0
  7 26  1  0
 26 27  1  0
 27  7  1  0
 25 11  1  0
 23 18  1  0
M  END
>  <energy_score>  (1090) 
-46.646021

>  <inchikey>  (1090) 
None

>  <smiles>  (1090) 
None

>  <ref_pdb>  (1090) 
A4706a

>  <alias>  (1090) 
None

>  <HIPPO Pose ID>  (1090) 
500266

>  <name>  (1090) 
P500266

>  <HIPPO Compound ID>  (1090) 
314616

>  <ref_mols>  (1090) 
A0875a,A4706a

>  <distance_score>  (1090) 
1.926919

>  <inspiration_score>  (1090) 
None

$$$$
P500270
     RDKit          3D

 27 29  0  0  0  0  0  0  0  0999 V2000
   11.5669   15.0443   18.2322 C   0  0  0  0  0  0  0  0  0  0  0  0
   10.3039   15.0322   19.0325 C   0  0  0  0  0  0  0  0  0  0  0  0
    9.0668   15.1464   18.2209 C   0  0  0  0  0  0  0  0  0  0  0  0
   10.2060   16.1557   19.8746 O   0  0  0  0  0  0  0  0  0  0  0  0
   10.6451   15.9687   21.1846 C   0  0  2  0  0  0  0  0  0  0  0  0
   11.9209   15.1724   21.3813 C   0  0  0  0  0  0  0  0  0  0  0  0
   11.9919   14.9119   22.7683 O   0  0  0  0  0  0  0  0  0  0  0  0
   10.6763   15.1354   23.2681 C   0  0  0  0  0  0  0  0  0  0  0  0
    9.6565   15.3912   22.1795 C   0  0  2  0  0  0  0  0  0  0  0  0
    8.9652   14.1836   21.7517 O   0  0  0  0  0  0  0  0  0  0  0  0
    7.8104   13.7731   22.3641 C   0  0  0  0  0  0  0  0  0  0  0  0
    6.7962   13.4998   21.7308 O   0  0  0  0  0  0  0  0  0  0  0  0
    7.8491   13.5544   23.8536 C   0  0  0  0  0  0  0  0  0  0  0  0
    7.7464   12.0853   24.2666 C   0  0  0  0  0  0  0  0  0  0  0  0
    8.2050   11.8836   25.7094 C   0  0  0  0  0  0  0  0  0  0  0  0
    8.1900   13.1547   26.4417 N   0  0  0  0  0  0  0  0  0  0  0  0
    9.5493   14.0864   26.7589 S   0  0  0  0  0  0  0  0  0  0  0  0
    9.6868   15.0938   25.7382 O   0  0  0  0  0  0  0  0  0  0  0  0
    9.3823   14.5228   28.1211 O   0  0  0  0  0  0  0  0  0  0  0  0
   10.9315   13.0504   26.6960 N   0  0  0  0  0  0  0  0  0  0  0  0
   11.4868   12.7931   25.3370 C   0  0  0  0  0  0  0  0  0  0  0  0
   12.6533   11.8279   25.3728 C   0  0  0  0  0  0  0  0  0  0  0  0
   13.7855   12.3201   26.2390 C   0  0  0  0  0  0  0  0  0  0  0  0
   13.2758   12.8017   27.5805 C   0  0  0  0  0  0  0  0  0  0  0  0
   12.0232   13.6818   27.5166 C   0  0  0  0  0  0  0  0  0  0  0  0
    6.9465   13.9477   26.1776 C   0  0  0  0  0  0  0  0  0  0  0  0
    6.8982   14.3961   24.7029 C   0  0  0  0  0  0  0  0  0  0  0  0
  1  2  1  0
  2  3  1  0
  2  4  1  0
  5  4  1  6
  5  6  1  0
  6  7  1  0
  7  8  1  0
  8  9  1  0
  9 10  1  6
 10 11  1  0
 11 12  2  0
 11 13  1  0
 13 14  1  0
 14 15  1  0
 15 16  1  0
 16 17  1  0
 17 18  2  0
 17 19  2  0
 17 20  1  0
 20 21  1  0
 21 22  1  0
 22 23  1  0
 23 24  1  0
 24 25  1  0
 16 26  1  0
 26 27  1  0
  9  5  1  0
 27 13  1  0
 25 20  1  0
M  END
>  <energy_score>  (1091) 
-10.663561

>  <inchikey>  (1091) 
None

>  <smiles>  (1091) 
None

>  <ref_pdb>  (1091) 
A4706a

>  <alias>  (1091) 
None

>  <HIPPO Pose ID>  (1091) 
500270

>  <name>  (1091) 
P500270

>  <HIPPO Compound ID>  (1091) 
314618

>  <ref_mols>  (1091) 
A4706a,A0875a

>  <distance_score>  (1091) 
1.60846

>  <inspiration_score>  (1091) 
None

$$$$
P500271
     RDKit          3D

 27 30  0  0  0  0  0  0  0  0999 V2000
    7.0435   13.1396   22.2574 O   0  0  0  0  0  0  0  0  0  0  0  0
    7.2391   13.9960   23.1189 C   0  0  0  0  0  0  0  0  0  0  0  0
    8.0701   15.0695   22.9957 O   0  0  0  0  0  0  0  0  0  0  0  0
    8.8516   15.4239   21.7919 C   0  0  2  0  0  0  0  0  0  0  0  0
    8.5724   14.6047   20.5617 C   0  0  0  0  0  0  0  0  0  0  0  0
    9.4415   14.9939   19.3515 C   0  0  0  0  0  0  0  0  0  0  0  0
   10.2615   16.1938   19.5709 C   0  0  0  0  0  0  0  0  0  0  0  0
   10.9853   16.0725   20.7759 O   0  0  0  0  0  0  0  0  0  0  0  0
   10.3855   15.3376   21.8848 C   0  0  0  0  0  0  0  0  0  0  0  0
   11.0398   15.7051   23.1956 C   0  0  0  0  0  0  0  0  0  0  0  0
   11.9832   14.5800   23.0784 N   0  0  0  0  0  0  0  0  0  0  0  0
   11.0915   13.9657   22.0712 C   0  0  0  0  0  0  0  0  0  0  0  0
    6.4541   13.9163   24.4483 C   0  0  0  0  0  0  0  0  0  0  0  0
    6.4072   12.4663   24.9880 C   0  0  0  0  0  0  0  0  0  0  0  0
    7.6259   11.9941   25.7899 C   0  0  0  0  0  0  0  0  0  0  0  0
    8.2578   13.1056   26.5470 N   0  0  0  0  0  0  0  0  0  0  0  0
    9.6503   13.7559   25.8481 S   0  0  0  0  0  0  0  0  0  0  0  0
    9.4686   13.5871   24.4367 O   0  0  0  0  0  0  0  0  0  0  0  0
    9.8221   15.0550   26.4551 O   0  0  0  0  0  0  0  0  0  0  0  0
   10.9594   12.7635   26.3130 N   0  0  0  0  0  0  0  0  0  0  0  0
   12.0574   13.6043   26.8645 C   0  0  0  0  0  0  0  0  0  0  0  0
   13.4717   13.0857   26.6451 C   0  0  0  0  0  0  0  0  0  0  0  0
   13.5290   11.6148   26.6668 C   0  0  0  0  0  0  0  0  0  0  0  0
   12.7490   11.1702   25.4524 C   0  0  0  0  0  0  0  0  0  0  0  0
   11.3708   11.8102   25.2515 C   0  0  0  0  0  0  0  0  0  0  0  0
    7.2446   14.1658   26.8635 C   0  0  0  0  0  0  0  0  0  0  0  0
    6.7964   14.8894   25.5830 C   0  0  0  0  0  0  0  0  0  0  0  0
  1  2  2  0
  2  3  1  0
  4  3  1  1
  4  5  1  0
  5  6  1  0
  6  7  1  0
  7  8  1  0
  8  9  1  0
  9 10  1  0
 10 11  1  0
 11 12  1  0
  2 13  1  0
 13 14  1  0
 14 15  1  0
 15 16  1  0
 16 17  1  0
 17 18  2  0
 17 19  2  0
 17 20  1  0
 20 21  1  0
 21 22  1  0
 22 23  1  0
 23 24  1  0
 24 25  1  0
 16 26  1  0
 26 27  1  0
  9  4  1  0
 27 13  1  0
 12  9  1  0
 25 20  1  0
M  END
>  <energy_score>  (1092) 
-21.291819

>  <inchikey>  (1092) 
None

>  <smiles>  (1092) 
None

>  <ref_pdb>  (1092) 
A4706a

>  <alias>  (1092) 
None

>  <HIPPO Pose ID>  (1092) 
500271

>  <name>  (1092) 
P500271

>  <HIPPO Compound ID>  (1092) 
314619

>  <ref_mols>  (1092) 
A0875a,A4706a

>  <distance_score>  (1092) 
1.481394

>  <inspiration_score>  (1092) 
None

$$$$
P500273
     RDKit          3D

 27 30  0  0  0  0  0  0  0  0999 V2000
    5.9944   12.8827   22.0960 O   0  0  0  0  0  0  0  0  0  0  0  0
    6.2484   13.7399   22.9364 C   0  0  0  0  0  0  0  0  0  0  0  0
    7.1930   14.6868   22.7246 O   0  0  0  0  0  0  0  0  0  0  0  0
    7.8844   14.5196   21.4571 C   0  0  0  0  0  0  0  0  0  0  0  0
    8.7623   15.7216   21.1488 C   0  0  2  0  0  0  0  0  0  0  0  0
    9.5112   15.7214   19.8052 C   0  0  0  0  0  0  0  0  0  0  0  0
   10.7786   15.1117   20.0269 O   0  0  0  0  0  0  0  0  0  0  0  0
   10.9788   14.9599   21.4422 C   0  0  0  0  0  0  0  0  0  0  0  0
   12.2817   15.3535   22.0895 C   0  0  0  0  0  0  0  0  0  0  0  0
   12.2294   14.1520   22.9333 O   0  0  0  0  0  0  0  0  0  0  0  0
   11.3761   13.5695   21.9080 C   0  0  0  0  0  0  0  0  0  0  0  0
    9.8969   15.7497   22.1240 C   0  0  0  0  0  0  0  0  0  0  0  0
    5.5709   13.7133   24.2988 C   0  0  0  0  0  0  0  0  0  0  0  0
    6.1179   12.5559   25.1732 C   0  0  0  0  0  0  0  0  0  0  0  0
    7.0209   13.0329   26.3146 C   0  0  0  0  0  0  0  0  0  0  0  0
    7.7819   14.1609   25.7736 N   0  0  0  0  0  0  0  0  0  0  0  0
    9.2810   14.5463   26.3871 S   0  0  0  0  0  0  0  0  0  0  0  0
    9.1337   14.8440   27.7863 O   0  0  0  0  0  0  0  0  0  0  0  0
    9.8680   15.4942   25.4731 O   0  0  0  0  0  0  0  0  0  0  0  0
   10.2226   13.1540   26.2721 N   0  0  0  0  0  0  0  0  0  0  0  0
   11.6560   13.5702   26.4926 C   0  0  0  0  0  0  0  0  0  0  0  0
   12.6240   12.4109   26.4378 C   0  0  0  0  0  0  0  0  0  0  0  0
   12.3545   11.5341   25.2363 C   0  0  0  0  0  0  0  0  0  0  0  0
   10.8637   11.2206   25.0032 C   0  0  0  0  0  0  0  0  0  0  0  0
   10.0686   12.4896   24.9771 C   0  0  0  0  0  0  0  0  0  0  0  0
    6.9299   15.3758   25.6397 C   0  0  0  0  0  0  0  0  0  0  0  0
    5.5766   15.0391   25.0403 C   0  0  0  0  0  0  0  0  0  0  0  0
  1  2  2  0
  2  3  1  0
  3  4  1  0
  5  4  1  1
  5  6  1  0
  6  7  1  0
  7  8  1  0
  8  9  1  0
  9 10  1  0
 10 11  1  0
  8 12  1  0
  2 13  1  0
 13 14  1  0
 14 15  1  0
 15 16  1  0
 16 17  1  0
 17 18  2  0
 17 19  2  0
 17 20  1  0
 20 21  1  0
 21 22  1  0
 22 23  1  0
 23 24  1  0
 24 25  1  0
 16 26  1  0
 26 27  1  0
 12  5  1  0
 27 13  1  0
 11  8  1  0
 25 20  1  0
M  END
>  <energy_score>  (1093) 
-90.847761

>  <inchikey>  (1093) 
None

>  <smiles>  (1093) 
None

>  <ref_pdb>  (1093) 
A4706a

>  <alias>  (1093) 
None

>  <HIPPO Pose ID>  (1093) 
500273

>  <name>  (1093) 
P500273

>  <HIPPO Compound ID>  (1093) 
314620

>  <ref_mols>  (1093) 
A4706a,A0875a

>  <distance_score>  (1093) 
1.795105

>  <inspiration_score>  (1093) 
None

$$$$
P500275
     RDKit          3D

 27 28  0  0  0  0  0  0  0  0999 V2000
   15.8395   11.8697   32.7857 C   0  0  0  0  0  0  0  0  0  0  0  0
   16.7954   12.9897   32.4077 C   0  0  0  0  0  0  0  0  0  0  0  0
   17.3706   12.8814   30.9914 C   0  0  0  0  0  0  0  0  0  0  0  0
   16.3344   13.0336   29.8806 C   0  0  0  0  0  0  0  0  0  0  0  0
   15.5769   11.8329   29.7664 O   0  0  0  0  0  0  0  0  0  0  0  0
   14.4800   11.9110   28.8665 C   0  0  0  0  0  0  0  0  0  0  0  0
   14.8048   11.9543   27.3563 C   0  0  1  0  0  0  0  0  0  0  0  0
   15.8303   10.9164   26.8456 C   0  0  0  0  0  0  0  0  0  0  0  0
   16.9731   10.6221   27.6939 N   0  0  0  0  0  0  0  0  0  0  0  0
   13.5024   11.8581   26.6808 O   0  0  0  0  0  0  0  0  0  0  0  0
   13.4694   11.8931   25.3287 C   0  0  0  0  0  0  0  0  0  0  0  0
   14.4346   11.6889   24.6102 O   0  0  0  0  0  0  0  0  0  0  0  0
   12.1261   12.2979   24.7459 C   0  0  0  0  0  0  0  0  0  0  0  0
   11.8415   13.7119   25.1478 C   0  0  0  0  0  0  0  0  0  0  0  0
   11.1184   13.7085   26.4607 C   0  0  0  0  0  0  0  0  0  0  0  0
    9.7857   13.1361   26.2312 N   0  0  0  0  0  0  0  0  0  0  0  0
    8.6618   14.2992   25.7306 S   0  0  0  0  0  0  0  0  0  0  0  0
    8.7335   14.4079   24.2936 O   0  0  0  0  0  0  0  0  0  0  0  0
    8.8693   15.4461   26.5799 O   0  0  0  0  0  0  0  0  0  0  0  0
    7.2515   13.5037   26.2119 N   0  0  0  0  0  0  0  0  0  0  0  0
    6.5865   12.5893   25.2528 C   0  0  0  0  0  0  0  0  0  0  0  0
    5.3751   13.2358   24.5959 C   0  0  0  0  0  0  0  0  0  0  0  0
    5.4575   14.7523   24.5529 C   0  0  0  0  0  0  0  0  0  0  0  0
    5.6508   15.3468   25.9469 C   0  0  0  0  0  0  0  0  0  0  0  0
    6.2745   14.3570   26.9241 C   0  0  0  0  0  0  0  0  0  0  0  0
    9.7116   11.8842   25.4673 C   0  0  0  0  0  0  0  0  0  0  0  0
   11.0185   11.2924   25.0408 C   0  0  0  0  0  0  0  0  0  0  0  0
  1  2  1  0
  2  3  1  0
  3  4  1  0
  4  5  1  0
  5  6  1  0
  7  6  1  1
  7  8  1  0
  8  9  1  0
  7 10  1  0
 10 11  1  0
 11 12  2  0
 11 13  1  0
 13 14  1  0
 14 15  1  0
 15 16  1  0
 16 17  1  0
 17 18  2  0
 17 19  2  0
 17 20  1  0
 20 21  1  0
 21 22  1  0
 22 23  1  0
 23 24  1  0
 24 25  1  0
 16 26  1  0
 26 27  1  0
 27 13  1  0
 25 20  1  0
M  END
>  <energy_score>  (1094) 
-44.328188

>  <inchikey>  (1094) 
None

>  <smiles>  (1094) 
None

>  <ref_pdb>  (1094) 
A4706a

>  <alias>  (1094) 
None

>  <HIPPO Pose ID>  (1094) 
500275

>  <name>  (1094) 
P500275

>  <HIPPO Compound ID>  (1094) 
314621

>  <ref_mols>  (1094) 
A4706a,A0875a

>  <distance_score>  (1094) 
1.998389

>  <inspiration_score>  (1094) 
None

$$$$
P500280
     RDKit          3D

 27 30  0  0  0  0  0  0  0  0999 V2000
   10.6906   14.1537   18.1760 N   0  0  0  0  0  0  0  0  0  0  0  0
    9.7007   15.1144   18.6634 C   0  0  2  0  0  0  0  0  0  0  0  0
   10.4830   16.2043   19.3004 C   0  0  0  0  0  0  0  0  0  0  0  0
   10.3752   15.5146   20.6610 C   0  0  1  0  0  0  0  0  0  0  0  0
   11.3813   14.5642   21.2601 C   0  0  0  0  0  0  0  0  0  0  0  0
   10.6410   14.2081   22.5468 C   0  0  2  0  0  0  0  0  0  0  0  0
    9.5496   13.2804   22.2225 O   0  0  0  0  0  0  0  0  0  0  0  0
    8.2993   13.2808   22.7633 C   0  0  0  0  0  0  0  0  0  0  0  0
    7.2582   13.2920   22.1209 O   0  0  0  0  0  0  0  0  0  0  0  0
    8.3427   13.1590   24.2237 C   0  0  0  0  0  0  0  0  0  0  0  0
    8.1822   11.7198   24.6585 C   0  0  0  0  0  0  0  0  0  0  0  0
    8.8819   11.6023   25.9973 C   0  0  0  0  0  0  0  0  0  0  0  0
    9.0667   12.9286   26.6313 N   0  0  0  0  0  0  0  0  0  0  0  0
   10.5070   13.8060   26.7144 S   0  0  0  0  0  0  0  0  0  0  0  0
   10.6138   14.6986   25.5846 O   0  0  0  0  0  0  0  0  0  0  0  0
   10.4999   14.3506   28.0457 O   0  0  0  0  0  0  0  0  0  0  0  0
   11.7901   12.6711   26.5932 N   0  0  0  0  0  0  0  0  0  0  0  0
   12.9671   12.9706   27.4838 C   0  0  0  0  0  0  0  0  0  0  0  0
   14.3389   12.7320   26.8488 C   0  0  0  0  0  0  0  0  0  0  0  0
   14.4349   11.4088   26.1614 C   0  0  0  0  0  0  0  0  0  0  0  0
   13.2677   11.2415   25.2241 C   0  0  0  0  0  0  0  0  0  0  0  0
   12.2170   12.3511   25.2223 C   0  0  0  0  0  0  0  0  0  0  0  0
    7.8187   13.7692   26.5608 C   0  0  0  0  0  0  0  0  0  0  0  0
    7.4861   14.0669   25.0916 C   0  0  0  0  0  0  0  0  0  0  0  0
   10.1930   15.5919   22.9811 C   0  0  0  0  0  0  0  0  0  0  0  0
    9.9820   16.3265   21.7751 O   0  0  0  0  0  0  0  0  0  0  0  0
    9.2138   14.7586   20.0519 C   0  0  0  0  0  0  0  0  0  0  0  0
  2  1  1  1
  2  3  1  0
  4  3  1  6
  4  5  1  0
  5  6  1  0
  6  7  1  6
  7  8  1  0
  8  9  2  0
  8 10  1  0
 10 11  1  0
 11 12  1  0
 12 13  1  0
 13 14  1  0
 14 15  2  0
 14 16  2  0
 14 17  1  0
 17 18  1  0
 18 19  1  0
 19 20  1  0
 20 21  1  0
 21 22  1  0
 13 23  1  0
 23 24  1  0
  6 25  1  0
 25 26  1  0
  4 27  1  0
 27  2  1  0
  4 26  1  0
 24 10  1  0
 22 17  1  0
M  END
>  <energy_score>  (1095) 
-19.570746

>  <inchikey>  (1095) 
None

>  <smiles>  (1095) 
None

>  <ref_pdb>  (1095) 
A4706a

>  <alias>  (1095) 
None

>  <HIPPO Pose ID>  (1095) 
500280

>  <name>  (1095) 
P500280

>  <HIPPO Compound ID>  (1095) 
314624

>  <ref_mols>  (1095) 
A4706a,A0875a

>  <distance_score>  (1095) 
1.749634

>  <inspiration_score>  (1095) 
None

$$$$
P500285
     RDKit          3D

 27 29  0  0  0  0  0  0  0  0999 V2000
    8.3707   17.8600   21.0616 C   0  0  0  0  0  0  0  0  0  0  0  0
    8.1892   16.7607   21.5116 C   0  0  0  0  0  0  0  0  0  0  0  0
    8.1442   15.3912   22.0372 C   0  0  2  0  0  0  0  0  0  0  0  0
    7.2575   14.4374   21.2477 C   0  0  0  0  0  0  0  0  0  0  0  0
    7.6631   15.3594   23.4232 O   0  0  0  0  0  0  0  0  0  0  0  0
    6.3279   15.4217   23.6954 C   0  0  0  0  0  0  0  0  0  0  0  0
    5.4687   15.9288   22.9832 O   0  0  0  0  0  0  0  0  0  0  0  0
    5.9413   14.6726   24.9822 C   0  0  0  0  0  0  0  0  0  0  0  0
    6.0341   13.1388   24.7687 C   0  0  0  0  0  0  0  0  0  0  0  0
    6.8543   12.3126   25.7623 C   0  0  0  0  0  0  0  0  0  0  0  0
    7.8725   13.1289   26.4512 N   0  0  0  0  0  0  0  0  0  0  0  0
    9.1899   13.6420   25.5183 S   0  0  0  0  0  0  0  0  0  0  0  0
    8.8683   13.3804   24.1430 O   0  0  0  0  0  0  0  0  0  0  0  0
    9.5998   14.9213   26.0442 O   0  0  0  0  0  0  0  0  0  0  0  0
   10.4123   12.5277   25.8914 N   0  0  0  0  0  0  0  0  0  0  0  0
   11.7353   13.2247   25.9064 C   0  0  0  0  0  0  0  0  0  0  0  0
   12.7605   12.5487   25.0350 C   0  0  0  0  0  0  0  0  0  0  0  0
   12.8521   11.1026   25.4475 C   0  0  0  0  0  0  0  0  0  0  0  0
   11.5047   10.3611   25.2698 C   0  0  0  0  0  0  0  0  0  0  0  0
   10.3344   11.2997   25.0401 C   0  0  0  0  0  0  0  0  0  0  0  0
    7.1864   14.2280   27.1846 C   0  0  0  0  0  0  0  0  0  0  0  0
    6.6163   15.2606   26.2205 C   0  0  0  0  0  0  0  0  0  0  0  0
    9.6020   14.7952   21.8536 C   0  0  1  0  0  0  0  0  0  0  0  0
   10.2262   14.9459   20.4549 C   0  0  0  0  0  0  0  0  0  0  0  0
   11.6724   14.7146   20.7613 C   0  0  0  0  0  0  0  0  0  0  0  0
   11.8053   15.4802   22.0539 C   0  0  0  0  0  0  0  0  0  0  0  0
   10.5848   15.3116   22.7777 O   0  0  0  0  0  0  0  0  0  0  0  0
  1  2  3  0
  3  2  1  0
  3  4  1  6
  3  5  1  0
  5  6  1  0
  6  7  2  0
  6  8  1  0
  8  9  1  0
  9 10  1  0
 10 11  1  0
 11 12  1  0
 12 13  2  0
 12 14  2  0
 12 15  1  0
 15 16  1  0
 16 17  1  0
 17 18  1  0
 18 19  1  0
 19 20  1  0
 11 21  1  0
 21 22  1  0
  3 23  1  0
 23 24  1  6
 24 25  1  0
 25 26  1  0
 26 27  1  0
 22  8  1  0
 27 23  1  0
 20 15  1  0
M  END
>  <energy_score>  (1096) 
-12.063555

>  <inchikey>  (1096) 
None

>  <smiles>  (1096) 
None

>  <ref_pdb>  (1096) 
A4706a

>  <alias>  (1096) 
None

>  <HIPPO Pose ID>  (1096) 
500285

>  <name>  (1096) 
P500285

>  <HIPPO Compound ID>  (1096) 
314626

>  <ref_mols>  (1096) 
A4706a,A0875a

>  <distance_score>  (1096) 
1.620438

>  <inspiration_score>  (1096) 
None

$$$$
P500289
     RDKit          3D

 27 29  0  0  0  0  0  0  0  0999 V2000
   11.8026   14.8010   18.2371 C   0  0  0  0  0  0  0  0  0  0  0  0
   10.5457   14.1982   18.5568 N   0  0  0  0  0  0  0  0  0  0  0  0
    9.7200   15.1906   19.1807 C   0  0  0  0  0  0  0  0  0  0  0  0
    9.9903   15.2308   20.6487 C   0  0  2  0  0  0  0  0  0  0  0  0
   11.0666   14.3938   21.0862 O   0  0  0  0  0  0  0  0  0  0  0  0
   11.2606   14.4586   22.4834 C   0  0  0  0  0  0  0  0  0  0  0  0
   10.7228   15.7522   23.0422 C   0  0  0  0  0  0  0  0  0  0  0  0
    9.2279   15.9395   22.6911 C   0  0  0  0  0  0  0  0  0  0  0  0
    8.7472   15.1219   21.5305 C   0  0  2  0  0  0  0  0  0  0  0  0
    8.3473   13.8429   22.0623 O   0  0  0  0  0  0  0  0  0  0  0  0
    7.1106   13.8649   22.6539 C   0  0  0  0  0  0  0  0  0  0  0  0
    6.1810   14.5656   22.2700 O   0  0  0  0  0  0  0  0  0  0  0  0
    6.9841   12.9915   23.9086 C   0  0  0  0  0  0  0  0  0  0  0  0
    8.1386   11.9906   24.0887 C   0  0  0  0  0  0  0  0  0  0  0  0
    8.2661   11.4623   25.4986 C   0  0  0  0  0  0  0  0  0  0  0  0
    8.3602   12.5874   26.4281 N   0  0  0  0  0  0  0  0  0  0  0  0
    9.6504   13.6663   26.3299 S   0  0  0  0  0  0  0  0  0  0  0  0
    9.5711   14.4926   27.5089 O   0  0  0  0  0  0  0  0  0  0  0  0
    9.6369   14.2876   25.0382 O   0  0  0  0  0  0  0  0  0  0  0  0
   11.0851   12.7503   26.4273 N   0  0  0  0  0  0  0  0  0  0  0  0
   11.5820   12.1625   25.1643 C   0  0  0  0  0  0  0  0  0  0  0  0
   12.7779   11.2377   25.4252 C   0  0  0  0  0  0  0  0  0  0  0  0
   13.6212   11.6109   26.6271 C   0  0  0  0  0  0  0  0  0  0  0  0
   13.5795   13.0860   26.7305 C   0  0  0  0  0  0  0  0  0  0  0  0
   12.1618   13.5851   27.0508 C   0  0  0  0  0  0  0  0  0  0  0  0
    7.0336   13.2802   26.4749 C   0  0  0  0  0  0  0  0  0  0  0  0
    6.7090   13.9103   25.1231 C   0  0  0  0  0  0  0  0  0  0  0  0
  1  2  1  0
  2  3  1  0
  4  3  1  6
  4  5  1  0
  5  6  1  0
  6  7  1  0
  7  8  1  0
  8  9  1  0
  9 10  1  1
 10 11  1  0
 11 12  2  0
 11 13  1  0
 13 14  1  0
 14 15  1  0
 15 16  1  0
 16 17  1  0
 17 18  2  0
 17 19  2  0
 17 20  1  0
 20 21  1  0
 21 22  1  0
 22 23  1  0
 23 24  1  0
 24 25  1  0
 16 26  1  0
 26 27  1  0
  9  4  1  0
 27 13  1  0
 25 20  1  0
M  END
>  <energy_score>  (1097) 
-4.369326

>  <inchikey>  (1097) 
None

>  <smiles>  (1097) 
None

>  <ref_pdb>  (1097) 
A4706a

>  <alias>  (1097) 
None

>  <HIPPO Pose ID>  (1097) 
500289

>  <name>  (1097) 
P500289

>  <HIPPO Compound ID>  (1097) 
314629

>  <ref_mols>  (1097) 
A4706a,A0875a

>  <distance_score>  (1097) 
1.47234

>  <inspiration_score>  (1097) 
None

$$$$
P500292
     RDKit          3D

 27 29  0  0  0  0  0  0  0  0999 V2000
   11.6387   15.0635   18.2891 C   0  0  0  0  0  0  0  0  0  0  0  0
   10.3490   14.4787   18.5165 N   0  0  0  0  0  0  0  0  0  0  0  0
    9.3737   15.4103   19.0486 C   0  0  0  0  0  0  0  0  0  0  0  0
    9.6484   16.2389   20.2743 C   0  0  0  0  0  0  0  0  0  0  0  0
   10.3767   15.3644   21.2263 C   0  0  1  0  0  0  0  0  0  0  0  0
   11.0710   16.0432   22.2483 O   0  0  0  0  0  0  0  0  0  0  0  0
   11.4348   14.9891   23.1299 C   0  0  0  0  0  0  0  0  0  0  0  0
   10.6385   13.7460   22.7393 C   0  0  0  0  0  0  0  0  0  0  0  0
    9.5277   14.2923   21.8870 C   0  0  1  0  0  0  0  0  0  0  0  0
    8.4335   14.7785   22.7132 O   0  0  0  0  0  0  0  0  0  0  0  0
    7.3511   13.9751   22.8285 C   0  0  0  0  0  0  0  0  0  0  0  0
    7.0852   13.0709   22.0353 O   0  0  0  0  0  0  0  0  0  0  0  0
    6.4663   14.1263   24.0764 C   0  0  0  0  0  0  0  0  0  0  0  0
    6.5190   12.7754   24.8372 C   0  0  0  0  0  0  0  0  0  0  0  0
    6.9095   12.7809   26.3049 C   0  0  0  0  0  0  0  0  0  0  0  0
    7.6124   13.9903   26.7272 N   0  0  0  0  0  0  0  0  0  0  0  0
    9.2355   14.3330   26.4586 S   0  0  0  0  0  0  0  0  0  0  0  0
    9.3720   14.7096   25.0852 O   0  0  0  0  0  0  0  0  0  0  0  0
    9.6259   15.2578   27.4897 O   0  0  0  0  0  0  0  0  0  0  0  0
   10.1331   12.9242   26.6600 N   0  0  0  0  0  0  0  0  0  0  0  0
   11.5618   13.1528   27.0040 C   0  0  0  0  0  0  0  0  0  0  0  0
   12.4816   13.1621   25.8340 C   0  0  0  0  0  0  0  0  0  0  0  0
   12.3443   11.9374   24.9905 C   0  0  0  0  0  0  0  0  0  0  0  0
   11.0212   11.1764   25.0719 C   0  0  0  0  0  0  0  0  0  0  0  0
    9.8435   11.8457   25.7133 C   0  0  0  0  0  0  0  0  0  0  0  0
    6.7361   15.1614   26.4396 C   0  0  0  0  0  0  0  0  0  0  0  0
    6.6025   15.3894   24.9316 C   0  0  0  0  0  0  0  0  0  0  0  0
  1  2  1  0
  2  3  1  0
  3  4  1  0
  5  4  1  1
  5  6  1  0
  6  7  1  0
  7  8  1  0
  8  9  1  0
  9 10  1  1
 10 11  1  0
 11 12  2  0
 11 13  1  0
 13 14  1  0
 14 15  1  0
 15 16  1  0
 16 17  1  0
 17 18  2  0
 17 19  2  0
 17 20  1  0
 20 21  1  0
 21 22  1  0
 22 23  1  0
 23 24  1  0
 24 25  1  0
 16 26  1  0
 26 27  1  0
  9  5  1  0
 27 13  1  0
 25 20  1  0
M  END
>  <energy_score>  (1098) 
-2.142046

>  <inchikey>  (1098) 
None

>  <smiles>  (1098) 
None

>  <ref_pdb>  (1098) 
A4706a

>  <alias>  (1098) 
None

>  <HIPPO Pose ID>  (1098) 
500292

>  <name>  (1098) 
P500292

>  <HIPPO Compound ID>  (1098) 
314630

>  <ref_mols>  (1098) 
A0875a,A4706a

>  <distance_score>  (1098) 
1.540099

>  <inspiration_score>  (1098) 
None

$$$$
P500293
     RDKit          3D

 27 29  0  0  0  0  0  0  0  0999 V2000
    7.6544   16.6761   22.0269 C   0  0  0  0  0  0  0  0  0  0  0  0
    8.7612   15.7161   21.6204 C   0  0  1  0  0  0  0  0  0  0  0  0
    8.0751   14.4252   21.4477 O   0  0  0  0  0  0  0  0  0  0  0  0
    7.2548   13.8015   22.3297 C   0  0  0  0  0  0  0  0  0  0  0  0
    6.2321   13.2419   21.9347 O   0  0  0  0  0  0  0  0  0  0  0  0
    7.6420   13.6870   23.7863 C   0  0  0  0  0  0  0  0  0  0  0  0
    7.5356   12.2165   24.2409 C   0  0  0  0  0  0  0  0  0  0  0  0
    7.9307   11.9661   25.6870 C   0  0  0  0  0  0  0  0  0  0  0  0
    8.0414   13.2216   26.4223 N   0  0  0  0  0  0  0  0  0  0  0  0
    9.4711   14.0710   26.6136 S   0  0  0  0  0  0  0  0  0  0  0  0
    9.4306   14.5821   27.9604 O   0  0  0  0  0  0  0  0  0  0  0  0
    9.6710   15.0042   25.5380 O   0  0  0  0  0  0  0  0  0  0  0  0
   10.7342   12.9348   26.5238 N   0  0  0  0  0  0  0  0  0  0  0  0
   11.0257   12.3998   25.1587 C   0  0  0  0  0  0  0  0  0  0  0  0
   12.3962   12.8121   24.6742 C   0  0  0  0  0  0  0  0  0  0  0  0
   13.4730   12.2649   25.5940 C   0  0  0  0  0  0  0  0  0  0  0  0
   13.1673   12.6307   27.0362 C   0  0  0  0  0  0  0  0  0  0  0  0
   11.9429   13.5271   27.1763 C   0  0  0  0  0  0  0  0  0  0  0  0
    6.8432   14.0692   26.1992 C   0  0  0  0  0  0  0  0  0  0  0  0
    6.8222   14.5661   24.7479 C   0  0  0  0  0  0  0  0  0  0  0  0
    9.3394   16.3138   20.2888 C   0  0  0  0  0  0  0  0  0  0  0  0
    9.5847   15.3445   19.2450 N   0  0  0  0  0  0  0  0  0  0  0  0
   10.9692   14.9934   19.0441 C   0  0  0  0  0  0  0  0  0  0  0  0
   11.7669   14.7842   20.3243 C   0  0  0  0  0  0  0  0  0  0  0  0
   11.0658   13.9192   21.3596 C   0  0  0  0  0  0  0  0  0  0  0  0
   10.8171   14.5320   22.6098 O   0  0  0  0  0  0  0  0  0  0  0  0
    9.9728   15.6714   22.5809 C   0  0  0  0  0  0  0  0  0  0  0  0
  2  1  1  1
  2  3  1  0
  3  4  1  0
  4  5  2  0
  4  6  1  0
  6  7  1  0
  7  8  1  0
  8  9  1  0
  9 10  1  0
 10 11  2  0
 10 12  2  0
 10 13  1  0
 13 14  1  0
 14 15  1  0
 15 16  1  0
 16 17  1  0
 17 18  1  0
  9 19  1  0
 19 20  1  0
  2 21  1  0
 21 22  1  0
 22 23  1  0
 23 24  1  0
 24 25  1  0
 25 26  1  0
 26 27  1  0
 27  2  1  0
 20  6  1  0
 18 13  1  0
M  END
>  <energy_score>  (1099) 
-21.87379

>  <inchikey>  (1099) 
None

>  <smiles>  (1099) 
None

>  <ref_pdb>  (1099) 
A4706a

>  <alias>  (1099) 
None

>  <HIPPO Pose ID>  (1099) 
500293

>  <name>  (1099) 
P500293

>  <HIPPO Compound ID>  (1099) 
314631

>  <ref_mols>  (1099) 
A4706a,A0875a

>  <distance_score>  (1099) 
1.720096

>  <inspiration_score>  (1099) 
None

$$$$
P500294
     RDKit          3D

 27 29  0  0  0  0  0  0  0  0999 V2000
    9.1977   12.8029   22.8331 C   0  0  0  0  0  0  0  0  0  0  0  0
    8.5692   14.1682   22.6399 C   0  0  2  0  0  0  0  0  0  0  0  0
    9.6801   15.2165   22.8329 C   0  0  0  0  0  0  0  0  0  0  0  0
   10.8409   14.9652   22.0453 O   0  0  0  0  0  0  0  0  0  0  0  0
   10.5022   14.8452   20.6829 C   0  0  2  0  0  0  0  0  0  0  0  0
   11.7073   14.7618   19.8185 C   0  0  0  0  0  0  0  0  0  0  0  0
   11.1030   15.1158   18.4888 C   0  0  0  0  0  0  0  0  0  0  0  0
   10.0359   16.0509   18.7312 O   0  0  0  0  0  0  0  0  0  0  0  0
    9.7713   16.0409   20.1283 C   0  0  0  0  0  0  0  0  0  0  0  0
    7.5076   14.3855   23.5755 O   0  0  0  0  0  0  0  0  0  0  0  0
    6.4003   13.6304   23.3773 C   0  0  0  0  0  0  0  0  0  0  0  0
    6.1725   13.0223   22.3362 O   0  0  0  0  0  0  0  0  0  0  0  0
    5.5119   13.5130   24.6063 C   0  0  0  0  0  0  0  0  0  0  0  0
    6.0266   12.3591   25.4956 C   0  0  0  0  0  0  0  0  0  0  0  0
    6.9052   12.8437   26.6501 C   0  0  0  0  0  0  0  0  0  0  0  0
    7.5792   14.0544   26.1875 N   0  0  0  0  0  0  0  0  0  0  0  0
    9.1375   14.4636   26.5856 S   0  0  0  0  0  0  0  0  0  0  0  0
    9.3889   15.7681   26.0390 O   0  0  0  0  0  0  0  0  0  0  0  0
    9.3350   14.2230   27.9880 O   0  0  0  0  0  0  0  0  0  0  0  0
   10.1536   13.4273   25.7343 N   0  0  0  0  0  0  0  0  0  0  0  0
    9.9162   11.9916   25.8700 C   0  0  0  0  0  0  0  0  0  0  0  0
   10.9822   11.1276   25.2166 C   0  0  0  0  0  0  0  0  0  0  0  0
   12.4053   11.6084   25.4924 C   0  0  0  0  0  0  0  0  0  0  0  0
   12.5194   13.0460   25.0638 C   0  0  0  0  0  0  0  0  0  0  0  0
   11.5663   13.8620   25.9103 C   0  0  0  0  0  0  0  0  0  0  0  0
    6.6351   15.2034   26.1544 C   0  0  0  0  0  0  0  0  0  0  0  0
    5.3722   14.8161   25.3885 C   0  0  0  0  0  0  0  0  0  0  0  0
  2  1  1  1
  2  3  1  0
  3  4  1  0
  5  4  1  1
  5  6  1  0
  6  7  1  0
  7  8  1  0
  8  9  1  0
  2 10  1  0
 10 11  1  0
 11 12  2  0
 11 13  1  0
 13 14  1  0
 14 15  1  0
 15 16  1  0
 16 17  1  0
 17 18  2  0
 17 19  2  0
 17 20  1  0
 20 21  1  0
 21 22  1  0
 22 23  1  0
 23 24  1  0
 24 25  1  0
 16 26  1  0
 26 27  1  0
  9  5  1  0
 27 13  1  0
 25 20  1  0
M  END
>  <energy_score>  (1100) 
-42.619829

>  <inchikey>  (1100) 
None

>  <smiles>  (1100) 
None

>  <ref_pdb>  (1100) 
A4706a

>  <alias>  (1100) 
None

>  <HIPPO Pose ID>  (1100) 
500294

>  <name>  (1100) 
P500294

>  <HIPPO Compound ID>  (1100) 
314633

>  <ref_mols>  (1100) 
A4706a,A0875a

>  <distance_score>  (1100) 
1.729485

>  <inspiration_score>  (1100) 
None

$$$$
P500299
     RDKit          3D

 27 30  0  0  0  0  0  0  0  0999 V2000
    5.7501   13.1209   21.9008 O   0  0  0  0  0  0  0  0  0  0  0  0
    6.6313   13.7761   22.4651 C   0  0  0  0  0  0  0  0  0  0  0  0
    7.5212   14.3905   21.6731 O   0  0  0  0  0  0  0  0  0  0  0  0
    8.8208   14.9163   21.9729 C   0  0  1  0  0  0  0  0  0  0  0  0
    9.7805   13.8073   22.5394 C   0  0  0  0  0  0  0  0  0  0  0  0
   11.3410   14.0212   22.3494 C   0  0  0  0  0  0  0  0  0  0  0  0
   11.7873   15.0821   21.3313 C   0  0  1  0  0  0  0  0  0  0  0  0
   11.9682   14.7656   19.8500 C   0  0  0  0  0  0  0  0  0  0  0  0
   11.0779   15.1720   18.9090 C   0  0  0  0  0  0  0  0  0  0  0  0
    9.7041   15.7448   19.3375 C   0  0  0  0  0  0  0  0  0  0  0  0
    9.6191   15.2746   20.7551 C   0  0  1  0  0  0  0  0  0  0  0  0
   10.7176   15.9942   21.3661 O   0  0  0  0  0  0  0  0  0  0  0  0
    6.6634   13.7053   23.9872 C   0  0  0  0  0  0  0  0  0  0  0  0
    7.3466   12.3970   24.4547 C   0  0  0  0  0  0  0  0  0  0  0  0
    7.7724   12.3549   25.9086 C   0  0  0  0  0  0  0  0  0  0  0  0
    8.2982   13.6371   26.3298 N   0  0  0  0  0  0  0  0  0  0  0  0
    9.8713   14.1722   26.3050 S   0  0  0  0  0  0  0  0  0  0  0  0
   10.0322   14.7890   27.5989 O   0  0  0  0  0  0  0  0  0  0  0  0
   10.1009   14.9712   25.1290 O   0  0  0  0  0  0  0  0  0  0  0  0
   10.9380   12.8681   26.2654 N   0  0  0  0  0  0  0  0  0  0  0  0
   12.3149   13.2492   26.7715 C   0  0  0  0  0  0  0  0  0  0  0  0
   13.4379   12.9965   25.7395 C   0  0  0  0  0  0  0  0  0  0  0  0
   13.5349   11.5518   25.3052 C   0  0  0  0  0  0  0  0  0  0  0  0
   12.1553   10.9782   25.3981 C   0  0  0  0  0  0  0  0  0  0  0  0
   11.0130   11.9410   25.1133 C   0  0  0  0  0  0  0  0  0  0  0  0
    7.2700   14.7020   26.2328 C   0  0  0  0  0  0  0  0  0  0  0  0
    6.9977   14.9768   24.7588 C   0  0  0  0  0  0  0  0  0  0  0  0
  1  2  2  0
  2  3  1  0
  4  3  1  6
  4  5  1  0
  5  6  1  0
  7  6  1  1
  7  8  1  0
  8  9  2  0
  9 10  1  0
 11 10  1  6
 11 12  1  0
  2 13  1  0
 13 14  1  0
 14 15  1  0
 15 16  1  0
 16 17  1  0
 17 18  2  0
 17 19  2  0
 17 20  1  0
 20 21  1  0
 21 22  1  0
 22 23  1  0
 23 24  1  0
 24 25  1  0
 16 26  1  0
 26 27  1  0
 11  4  1  0
 27 13  1  0
 12  7  1  0
 25 20  1  0
M  END
>  <energy_score>  (1101) 
-31.850442

>  <inchikey>  (1101) 
None

>  <smiles>  (1101) 
None

>  <ref_pdb>  (1101) 
A4706a

>  <alias>  (1101) 
None

>  <HIPPO Pose ID>  (1101) 
500299

>  <name>  (1101) 
P500299

>  <HIPPO Compound ID>  (1101) 
314634

>  <ref_mols>  (1101) 
A4706a,A0875a

>  <distance_score>  (1101) 
1.302481

>  <inspiration_score>  (1101) 
None

$$$$
P500301
     RDKit          3D

 27 29  0  0  0  0  0  0  0  0999 V2000
    6.1890   12.9693   22.3170 O   0  0  0  0  0  0  0  0  0  0  0  0
    6.7852   13.6016   23.1879 C   0  0  0  0  0  0  0  0  0  0  0  0
    8.0283   14.0316   22.9252 O   0  0  0  0  0  0  0  0  0  0  0  0
    8.2820   15.4375   22.6534 C   0  0  2  0  0  0  0  0  0  0  0  0
    7.0439   16.1848   22.1944 C   0  0  0  0  0  0  0  0  0  0  0  0
    6.3093   15.3907   21.3849 F   0  0  0  0  0  0  0  0  0  0  0  0
    6.2402   16.4426   23.2612 F   0  0  0  0  0  0  0  0  0  0  0  0
    9.4668   15.6526   21.6819 C   0  0  2  0  0  0  0  0  0  0  0  0
    9.5177   14.7812   20.4533 C   0  0  0  0  0  0  0  0  0  0  0  0
   10.9664   14.8652   20.0571 C   0  0  0  0  0  0  0  0  0  0  0  0
   11.6436   14.8496   21.4106 C   0  0  0  0  0  0  0  0  0  0  0  0
   10.7325   15.4321   22.3448 O   0  0  0  0  0  0  0  0  0  0  0  0
    6.1578   13.7841   24.5726 C   0  0  0  0  0  0  0  0  0  0  0  0
    6.2135   12.4055   25.2450 C   0  0  0  0  0  0  0  0  0  0  0  0
    7.6434   12.0926   25.6476 C   0  0  0  0  0  0  0  0  0  0  0  0
    8.2396   13.1573   26.4754 N   0  0  0  0  0  0  0  0  0  0  0  0
    9.7564   13.7826   26.0979 S   0  0  0  0  0  0  0  0  0  0  0  0
   10.0991   14.6685   27.1836 O   0  0  0  0  0  0  0  0  0  0  0  0
    9.7692   14.2711   24.7519 O   0  0  0  0  0  0  0  0  0  0  0  0
   10.8596   12.4932   26.1460 N   0  0  0  0  0  0  0  0  0  0  0  0
   10.7247   11.4827   25.0612 C   0  0  0  0  0  0  0  0  0  0  0  0
   11.7468   10.3699   25.2550 C   0  0  0  0  0  0  0  0  0  0  0  0
   13.1827   10.9349   25.3633 C   0  0  0  0  0  0  0  0  0  0  0  0
   13.2933   12.0352   26.3984 C   0  0  0  0  0  0  0  0  0  0  0  0
   12.2352   13.0874   26.1551 C   0  0  0  0  0  0  0  0  0  0  0  0
    7.2593   14.2258   26.8313 C   0  0  0  0  0  0  0  0  0  0  0  0
    6.6665   14.8373   25.5619 C   0  0  0  0  0  0  0  0  0  0  0  0
  1  2  2  0
  2  3  1  0
  4  3  1  6
  4  5  1  0
  5  6  1  0
  5  7  1  0
  4  8  1  0
  8  9  1  6
  9 10  1  0
 10 11  1  0
 11 12  1  0
  2 13  1  0
 13 14  1  0
 14 15  1  0
 15 16  1  0
 16 17  1  0
 17 18  2  0
 17 19  2  0
 17 20  1  0
 20 21  1  0
 21 22  1  0
 22 23  1  0
 23 24  1  0
 24 25  1  0
 16 26  1  0
 26 27  1  0
 12  8  1  0
 27 13  1  0
 25 20  1  0
M  END
>  <energy_score>  (1102) 
-36.236796

>  <inchikey>  (1102) 
None

>  <smiles>  (1102) 
None

>  <ref_pdb>  (1102) 
A4706a

>  <alias>  (1102) 
None

>  <HIPPO Pose ID>  (1102) 
500301

>  <name>  (1102) 
P500301

>  <HIPPO Compound ID>  (1102) 
314636

>  <ref_mols>  (1102) 
A4706a,A0875a

>  <distance_score>  (1102) 
1.427471

>  <inspiration_score>  (1102) 
None

$$$$
P500305
     RDKit          3D

 27 29  0  0  0  0  0  0  0  0999 V2000
    5.6874   16.7858   23.5943 C   0  0  0  0  0  0  0  0  0  0  0  0
    6.9926   16.2562   23.4571 O   0  0  0  0  0  0  0  0  0  0  0  0
    7.5207   16.3208   22.1275 C   0  0  0  0  0  0  0  0  0  0  0  0
    8.5414   15.1746   21.9279 C   0  0  0  0  0  0  0  0  0  0  0  0
    7.6419   14.0436   22.2766 O   0  0  0  0  0  0  0  0  0  0  0  0
    7.9124   13.0489   23.1401 C   0  0  0  0  0  0  0  0  0  0  0  0
    8.8968   12.3289   23.0397 O   0  0  0  0  0  0  0  0  0  0  0  0
    6.8008   12.8375   24.2002 C   0  0  0  0  0  0  0  0  0  0  0  0
    7.0293   11.5107   24.9330 C   0  0  0  0  0  0  0  0  0  0  0  0
    8.0180   11.5428   26.0764 C   0  0  0  0  0  0  0  0  0  0  0  0
    8.1408   12.8636   26.6984 N   0  0  0  0  0  0  0  0  0  0  0  0
    9.4633   13.8293   26.3325 S   0  0  0  0  0  0  0  0  0  0  0  0
    9.3822   14.1342   24.9466 O   0  0  0  0  0  0  0  0  0  0  0  0
    9.5079   14.9172   27.2704 O   0  0  0  0  0  0  0  0  0  0  0  0
   10.8076   12.8230   26.5391 N   0  0  0  0  0  0  0  0  0  0  0  0
   11.9354   13.5436   27.1955 C   0  0  0  0  0  0  0  0  0  0  0  0
   13.2271   12.7283   27.1034 C   0  0  0  0  0  0  0  0  0  0  0  0
   13.6316   12.4503   25.6580 C   0  0  0  0  0  0  0  0  0  0  0  0
   12.4673   12.7457   24.7238 C   0  0  0  0  0  0  0  0  0  0  0  0
   11.2262   12.1066   25.2918 C   0  0  0  0  0  0  0  0  0  0  0  0
    6.8487   13.5830   26.6669 C   0  0  0  0  0  0  0  0  0  0  0  0
    6.5204   13.9487   25.2241 C   0  0  0  0  0  0  0  0  0  0  0  0
    8.9315   15.1407   20.4457 C   0  0  0  0  0  0  0  0  0  0  0  0
   10.2947   14.5252   20.2394 C   0  0  0  0  0  0  0  0  0  0  0  0
   11.3227   15.3554   20.7553 O   0  0  0  0  0  0  0  0  0  0  0  0
   10.9310   16.0538   21.9269 C   0  0  0  0  0  0  0  0  0  0  0  0
    9.8565   15.3207   22.7141 C   0  0  0  0  0  0  0  0  0  0  0  0
  1  2  1  0
  2  3  1  0
  3  4  1  0
  4  5  1  0
  5  6  1  0
  6  7  2  0
  6  8  1  0
  8  9  1  0
  9 10  1  0
 10 11  1  0
 11 12  1  0
 12 13  2  0
 12 14  2  0
 12 15  1  0
 15 16  1  0
 16 17  1  0
 17 18  1  0
 18 19  1  0
 19 20  1  0
 11 21  1  0
 21 22  1  0
  4 23  1  0
 23 24  1  0
 24 25  1  0
 25 26  1  0
 26 27  1  0
 27  4  1  0
 22  8  1  0
 20 15  1  0
M  END
>  <energy_score>  (1103) 
-12.80618

>  <inchikey>  (1103) 
None

>  <smiles>  (1103) 
None

>  <ref_pdb>  (1103) 
A4706a

>  <alias>  (1103) 
None

>  <HIPPO Pose ID>  (1103) 
500305

>  <name>  (1103) 
P500305

>  <HIPPO Compound ID>  (1103) 
314637

>  <ref_mols>  (1103) 
A4706a,A0875a

>  <distance_score>  (1103) 
1.750783

>  <inspiration_score>  (1103) 
None

$$$$
P500307
     RDKit          3D

 27 30  0  0  0  0  0  0  0  0999 V2000
    9.8045   15.1730   19.9956 N   0  0  0  0  0  0  0  0  0  0  0  0
    9.6442   15.0587   21.4593 C   0  0  1  0  0  0  0  0  0  0  0  0
   10.9826   15.3828   22.0567 C   0  0  0  0  0  0  0  0  0  0  0  0
   11.8820   14.2443   22.3863 C   0  0  0  0  0  0  0  0  0  0  0  0
   12.2761   15.2112   21.3133 C   0  0  0  0  0  0  0  0  0  0  0  0
    8.5771   15.9906   22.0994 C   0  0  0  0  0  0  0  0  0  0  0  0
    8.1316   15.5986   23.4417 O   0  0  0  0  0  0  0  0  0  0  0  0
    7.3169   14.4852   23.4649 C   0  0  0  0  0  0  0  0  0  0  0  0
    7.2319   13.6506   22.5620 O   0  0  0  0  0  0  0  0  0  0  0  0
    6.4011   14.3857   24.6810 C   0  0  0  0  0  0  0  0  0  0  0  0
    6.2896   12.9004   25.0812 C   0  0  0  0  0  0  0  0  0  0  0  0
    7.6209   12.3695   25.6155 C   0  0  0  0  0  0  0  0  0  0  0  0
    8.3198   13.3992   26.4263 N   0  0  0  0  0  0  0  0  0  0  0  0
    9.7748   14.0452   25.8596 S   0  0  0  0  0  0  0  0  0  0  0  0
    9.7737   14.0914   24.4283 O   0  0  0  0  0  0  0  0  0  0  0  0
   10.0649   15.2141   26.6498 O   0  0  0  0  0  0  0  0  0  0  0  0
   10.8440   12.8362   26.2667 N   0  0  0  0  0  0  0  0  0  0  0  0
   10.8382   11.6608   25.3609 C   0  0  0  0  0  0  0  0  0  0  0  0
   12.1761   10.9780   25.4922 C   0  0  0  0  0  0  0  0  0  0  0  0
   13.2400   11.8480   24.9378 C   0  0  0  0  0  0  0  0  0  0  0  0
   13.3003   13.1019   25.7593 C   0  0  0  0  0  0  0  0  0  0  0  0
   12.1663   13.2907   26.7665 C   0  0  0  0  0  0  0  0  0  0  0  0
    7.3907   14.3936   27.0133 C   0  0  0  0  0  0  0  0  0  0  0  0
    6.7737   15.2348   25.9008 C   0  0  0  0  0  0  0  0  0  0  0  0
    7.3110   16.2309   21.3514 C   0  0  0  0  0  0  0  0  0  0  0  0
    7.9156   17.2969   20.5786 O   0  0  0  0  0  0  0  0  0  0  0  0
    8.8500   17.4775   21.6200 C   0  0  0  0  0  0  0  0  0  0  0  0
  2  1  1  6
  2  3  1  0
  3  4  1  0
  4  5  1  0
  2  6  1  0
  6  7  1  0
  7  8  1  0
  8  9  2  0
  8 10  1  0
 10 11  1  0
 11 12  1  0
 12 13  1  0
 13 14  1  0
 14 15  2  0
 14 16  2  0
 14 17  1  0
 17 18  1  0
 18 19  1  0
 19 20  1  0
 20 21  1  0
 21 22  1  0
 13 23  1  0
 23 24  1  0
  6 25  1  0
 25 26  1  0
 26 27  1  0
  5  3  1  0
 27  6  1  0
 24 10  1  0
 22 17  1  0
M  END
>  <energy_score>  (1104) 
-50.788496

>  <inchikey>  (1104) 
None

>  <smiles>  (1104) 
None

>  <ref_pdb>  (1104) 
A4706a

>  <alias>  (1104) 
None

>  <HIPPO Pose ID>  (1104) 
500307

>  <name>  (1104) 
P500307

>  <HIPPO Compound ID>  (1104) 
314638

>  <ref_mols>  (1104) 
A4706a,A0875a

>  <distance_score>  (1104) 
1.341662

>  <inspiration_score>  (1104) 
None

$$$$
P500309
     RDKit          3D

 27 30  0  0  0  0  0  0  0  0999 V2000
   10.9955   14.3570   18.5030 N   0  0  0  0  0  0  0  0  0  0  0  0
   10.2643   15.4713   19.0864 C   0  0  0  0  0  0  0  0  0  0  0  0
   10.0431   15.3074   20.5694 C   0  0  2  0  0  0  0  0  0  0  0  0
    9.6861   16.5725   21.3291 C   0  0  0  0  0  0  0  0  0  0  0  0
   10.0685   16.2297   22.6770 O   0  0  0  0  0  0  0  0  0  0  0  0
   10.4258   14.8545   22.6637 C   0  0  2  0  0  0  0  0  0  0  0  0
   11.2177   14.7782   21.3859 C   0  0  0  0  0  0  0  0  0  0  0  0
    9.1221   14.0708   22.4098 C   0  0  1  0  0  0  0  0  0  0  0  0
    8.0155   14.5743   23.1862 O   0  0  0  0  0  0  0  0  0  0  0  0
    6.8694   13.8755   23.1772 C   0  0  0  0  0  0  0  0  0  0  0  0
    6.6236   12.9985   22.3529 O   0  0  0  0  0  0  0  0  0  0  0  0
    5.9268   14.1769   24.3485 C   0  0  0  0  0  0  0  0  0  0  0  0
    5.7804   12.8737   25.1417 C   0  0  0  0  0  0  0  0  0  0  0  0
    7.1114   12.5183   25.7881 C   0  0  0  0  0  0  0  0  0  0  0  0
    7.6736   13.6095   26.6084 N   0  0  0  0  0  0  0  0  0  0  0  0
    9.2607   14.1525   26.4706 S   0  0  0  0  0  0  0  0  0  0  0  0
    9.3839   14.8881   25.2457 O   0  0  0  0  0  0  0  0  0  0  0  0
    9.5754   14.8194   27.7096 O   0  0  0  0  0  0  0  0  0  0  0  0
   10.3544   12.8674   26.3605 N   0  0  0  0  0  0  0  0  0  0  0  0
   11.7387   13.4526   26.2619 C   0  0  0  0  0  0  0  0  0  0  0  0
   12.6000   12.8090   25.1887 C   0  0  0  0  0  0  0  0  0  0  0  0
   12.5686   11.3295   25.4290 C   0  0  0  0  0  0  0  0  0  0  0  0
   11.1510   10.7723   25.2288 C   0  0  0  0  0  0  0  0  0  0  0  0
   10.0597   11.7982   25.4097 C   0  0  0  0  0  0  0  0  0  0  0  0
    6.7313   14.7722   26.7156 C   0  0  0  0  0  0  0  0  0  0  0  0
    6.3249   15.2939   25.3253 C   0  0  0  0  0  0  0  0  0  0  0  0
    8.9303   14.3230   20.9299 C   0  0  0  0  0  0  0  0  0  0  0  0
  1  2  1  0
  3  2  1  6
  3  4  1  0
  4  5  1  0
  6  5  1  6
  6  7  1  0
  6  8  1  0
  8  9  1  1
  9 10  1  0
 10 11  2  0
 10 12  1  0
 12 13  1  0
 13 14  1  0
 14 15  1  0
 15 16  1  0
 16 17  2  0
 16 18  2  0
 16 19  1  0
 19 20  1  0
 20 21  1  0
 21 22  1  0
 22 23  1  0
 23 24  1  0
 15 25  1  0
 25 26  1  0
  8 27  1  0
  7  3  1  0
 26 12  1  0
 27  3  1  0
 24 19  1  0
M  END
>  <energy_score>  (1105) 
-23.363966

>  <inchikey>  (1105) 
None

>  <smiles>  (1105) 
None

>  <ref_pdb>  (1105) 
A4706a

>  <alias>  (1105) 
None

>  <HIPPO Pose ID>  (1105) 
500309

>  <name>  (1105) 
P500309

>  <HIPPO Compound ID>  (1105) 
314639

>  <ref_mols>  (1105) 
A0875a,A4706a

>  <distance_score>  (1105) 
1.551432

>  <inspiration_score>  (1105) 
None

$$$$
P500310
     RDKit          3D

 27 29  0  0  0  0  0  0  0  0999 V2000
    7.8406   16.1642   21.6492 C   0  0  0  0  0  0  0  0  0  0  0  0
    9.1540   16.6775   21.0688 C   0  0  0  0  0  0  0  0  0  0  0  0
    8.9472   18.1799   20.8915 C   0  0  0  0  0  0  0  0  0  0  0  0
    9.5954   16.0597   19.7356 C   0  0  0  0  0  0  0  0  0  0  0  0
   10.9245   15.5587   19.7824 O   0  0  0  0  0  0  0  0  0  0  0  0
   10.9349   14.2594   20.3311 C   0  0  0  0  0  0  0  0  0  0  0  0
   10.2928   14.0701   21.7311 C   0  0  2  0  0  0  0  0  0  0  0  0
    8.8714   13.7082   21.5937 O   0  0  0  0  0  0  0  0  0  0  0  0
    7.9223   13.3420   22.4918 C   0  0  0  0  0  0  0  0  0  0  0  0
    6.8001   13.0213   22.0996 O   0  0  0  0  0  0  0  0  0  0  0  0
    8.2245   13.2824   23.9474 C   0  0  0  0  0  0  0  0  0  0  0  0
    8.1967   11.8597   24.4958 C   0  0  0  0  0  0  0  0  0  0  0  0
    8.7616   11.8485   25.9159 C   0  0  0  0  0  0  0  0  0  0  0  0
    8.7123   13.1943   26.5100 N   0  0  0  0  0  0  0  0  0  0  0  0
   10.0325   14.1914   26.8031 S   0  0  0  0  0  0  0  0  0  0  0  0
   10.0985   14.3569   28.2274 O   0  0  0  0  0  0  0  0  0  0  0  0
    9.9214   15.3280   25.9169 O   0  0  0  0  0  0  0  0  0  0  0  0
   11.3658   13.3044   26.3110 N   0  0  0  0  0  0  0  0  0  0  0  0
   12.5270   13.0770   27.1967 C   0  0  0  0  0  0  0  0  0  0  0  0
   13.7380   12.4784   26.4530 C   0  0  0  0  0  0  0  0  0  0  0  0
   13.3270   11.6252   25.2682 C   0  0  0  0  0  0  0  0  0  0  0  0
   12.2505   12.2989   24.4310 C   0  0  0  0  0  0  0  0  0  0  0  0
   11.8092   13.5923   24.9746 C   0  0  0  0  0  0  0  0  0  0  0  0
    7.4162   13.8721   26.2837 C   0  0  0  0  0  0  0  0  0  0  0  0
    7.2868   14.1750   24.7898 C   0  0  0  0  0  0  0  0  0  0  0  0
   10.5201   15.3260   22.5602 C   0  0  0  0  0  0  0  0  0  0  0  0
   10.2628   16.5564   21.9542 O   0  0  0  0  0  0  0  0  0  0  0  0
  1  2  1  0
  2  3  1  0
  2  4  1  0
  4  5  1  0
  5  6  1  0
  6  7  1  0
  7  8  1  6
  8  9  1  0
  9 10  2  0
  9 11  1  0
 11 12  1  0
 12 13  1  0
 13 14  1  0
 14 15  1  0
 15 16  2  0
 15 17  2  0
 15 18  1  0
 18 19  1  0
 19 20  1  0
 20 21  1  0
 21 22  1  0
 22 23  1  0
 14 24  1  0
 24 25  1  0
  7 26  1  0
 26 27  1  0
 27  2  1  0
 25 11  1  0
 23 18  1  0
M  END
>  <energy_score>  (1106) 
-1.397797

>  <inchikey>  (1106) 
None

>  <smiles>  (1106) 
None

>  <ref_pdb>  (1106) 
A4706a

>  <alias>  (1106) 
None

>  <HIPPO Pose ID>  (1106) 
500310

>  <name>  (1106) 
P500310

>  <HIPPO Compound ID>  (1106) 
314640

>  <ref_mols>  (1106) 
A4706a,A0875a

>  <distance_score>  (1106) 
1.572159

>  <inspiration_score>  (1106) 
None

$$$$
P500313
     RDKit          3D

 27 30  0  0  0  0  0  0  0  0999 V2000
   11.5162   13.8021   22.4398 N   0  0  0  0  0  0  0  0  0  0  0  0
   11.6161   14.9673   21.5331 C   0  0  1  0  0  0  0  0  0  0  0  0
   11.5223   14.5237   20.0707 C   0  0  0  0  0  0  0  0  0  0  0  0
   10.1267   14.1844   19.9122 O   0  0  0  0  0  0  0  0  0  0  0  0
    9.4164   15.1721   20.6173 C   0  0  2  0  0  0  0  0  0  0  0  0
   10.3766   15.8424   21.5719 C   0  0  1  0  0  0  0  0  0  0  0  0
    9.6596   15.9617   22.7818 O   0  0  0  0  0  0  0  0  0  0  0  0
    8.2683   16.0494   22.3575 C   0  0  0  0  0  0  0  0  0  0  0  0
    8.1280   14.8762   21.4152 C   0  0  2  0  0  0  0  0  0  0  0  0
    7.8757   13.7266   22.2691 O   0  0  0  0  0  0  0  0  0  0  0  0
    6.6185   13.8338   22.8322 C   0  0  0  0  0  0  0  0  0  0  0  0
    5.7230   14.5161   22.3298 O   0  0  0  0  0  0  0  0  0  0  0  0
    6.3381   13.1114   24.1516 C   0  0  0  0  0  0  0  0  0  0  0  0
    7.2612   11.9857   24.5995 C   0  0  0  0  0  0  0  0  0  0  0  0
    7.5957   12.0618   26.0754 C   0  0  0  0  0  0  0  0  0  0  0  0
    8.1452   13.3726   26.3969 N   0  0  0  0  0  0  0  0  0  0  0  0
    9.6371   13.8487   25.7878 S   0  0  0  0  0  0  0  0  0  0  0  0
   10.0423   14.9731   26.5946 O   0  0  0  0  0  0  0  0  0  0  0  0
    9.4976   13.9759   24.3655 O   0  0  0  0  0  0  0  0  0  0  0  0
   10.7289   12.5589   26.0587 N   0  0  0  0  0  0  0  0  0  0  0  0
   12.1081   13.1483   26.1376 C   0  0  0  0  0  0  0  0  0  0  0  0
   13.1670   12.1033   26.4218 C   0  0  0  0  0  0  0  0  0  0  0  0
   13.1122   10.9975   25.3884 C   0  0  0  0  0  0  0  0  0  0  0  0
   11.6963   10.3960   25.2604 C   0  0  0  0  0  0  0  0  0  0  0  0
   10.6625   11.4831   25.0140 C   0  0  0  0  0  0  0  0  0  0  0  0
    7.1270   14.4598   26.2403 C   0  0  0  0  0  0  0  0  0  0  0  0
    5.9885   14.0910   25.2901 C   0  0  0  0  0  0  0  0  0  0  0  0
  2  1  1  1
  2  3  1  0
  3  4  1  0
  5  4  1  1
  5  6  1  0
  6  7  1  1
  7  8  1  0
  8  9  1  0
  9 10  1  1
 10 11  1  0
 11 12  2  0
 11 13  1  0
 13 14  1  0
 14 15  1  0
 15 16  1  0
 16 17  1  0
 17 18  2  0
 17 19  2  0
 17 20  1  0
 20 21  1  0
 21 22  1  0
 22 23  1  0
 23 24  1  0
 24 25  1  0
 16 26  1  0
 26 27  1  0
  6  2  1  0
 27 13  1  0
  9  5  1  0
 25 20  1  0
M  END
>  <energy_score>  (1107) 
-34.402184

>  <inchikey>  (1107) 
None

>  <smiles>  (1107) 
None

>  <ref_pdb>  (1107) 
A4706a

>  <alias>  (1107) 
None

>  <HIPPO Pose ID>  (1107) 
500313

>  <name>  (1107) 
P500313

>  <HIPPO Compound ID>  (1107) 
314641

>  <ref_mols>  (1107) 
A4706a,A0875a

>  <distance_score>  (1107) 
1.396465

>  <inspiration_score>  (1107) 
None

$$$$
P500323
     RDKit          3D

 27 29  0  0  0  0  0  0  0  0999 V2000
    8.7947   14.9793   20.2563 C   0  0  0  0  0  0  0  0  0  0  0  0
    9.5737   15.9882   21.0426 C   0  0  0  0  0  0  0  0  0  0  0  0
    9.2203   17.3973   20.5659 C   0  0  0  0  0  0  0  0  0  0  0  0
   11.0660   15.6999   20.8205 C   0  0  0  0  0  0  0  0  0  0  0  0
   11.4767   14.3106   20.9264 N   0  0  0  0  0  0  0  0  0  0  0  0
   11.3608   13.7282   22.2486 C   0  0  0  0  0  0  0  0  0  0  0  0
   10.0673   13.8561   23.0792 C   0  0  2  0  0  0  0  0  0  0  0  0
    8.9656   13.1074   22.5324 O   0  0  0  0  0  0  0  0  0  0  0  0
    7.6723   13.1461   22.8956 C   0  0  0  0  0  0  0  0  0  0  0  0
    6.7955   13.3571   22.0567 O   0  0  0  0  0  0  0  0  0  0  0  0
    7.2310   12.8217   24.3021 C   0  0  0  0  0  0  0  0  0  0  0  0
    7.9684   11.6042   24.8637 C   0  0  0  0  0  0  0  0  0  0  0  0
    8.8079   11.9121   26.0850 C   0  0  0  0  0  0  0  0  0  0  0  0
    9.2427   13.3053   25.9916 N   0  0  0  0  0  0  0  0  0  0  0  0
   10.6548   13.8845   26.6653 S   0  0  0  0  0  0  0  0  0  0  0  0
   11.0934   14.9773   25.8290 O   0  0  0  0  0  0  0  0  0  0  0  0
   10.3612   14.1036   28.0559 O   0  0  0  0  0  0  0  0  0  0  0  0
   11.8459   12.6595   26.5694 N   0  0  0  0  0  0  0  0  0  0  0  0
   13.0117   12.9283   27.4862 C   0  0  0  0  0  0  0  0  0  0  0  0
   14.3878   12.7298   26.8581 C   0  0  0  0  0  0  0  0  0  0  0  0
   14.5127   11.3836   26.2262 C   0  0  0  0  0  0  0  0  0  0  0  0
   13.3732   11.1912   25.2530 C   0  0  0  0  0  0  0  0  0  0  0  0
   12.2770   12.2616   25.2269 C   0  0  0  0  0  0  0  0  0  0  0  0
    8.0776   14.2022   26.2761 C   0  0  0  0  0  0  0  0  0  0  0  0
    7.0414   14.0503   25.1820 C   0  0  0  0  0  0  0  0  0  0  0  0
    9.8149   15.3116   23.3472 C   0  0  0  0  0  0  0  0  0  0  0  0
    9.0638   15.9440   22.3603 O   0  0  0  0  0  0  0  0  0  0  0  0
  1  2  1  0
  2  3  1  0
  2  4  1  0
  4  5  1  0
  5  6  1  0
  6  7  1  0
  7  8  1  6
  8  9  1  0
  9 10  2  0
  9 11  1  0
 11 12  1  0
 12 13  1  0
 13 14  1  0
 14 15  1  0
 15 16  2  0
 15 17  2  0
 15 18  1  0
 18 19  1  0
 19 20  1  0
 20 21  1  0
 21 22  1  0
 22 23  1  0
 14 24  1  0
 24 25  1  0
  7 26  1  0
 26 27  1  0
 27  2  1  0
 25 11  1  0
 23 18  1  0
M  END
>  <energy_score>  (1108) 
-22.094357

>  <inchikey>  (1108) 
None

>  <smiles>  (1108) 
None

>  <ref_pdb>  (1108) 
A4706a

>  <alias>  (1108) 
None

>  <HIPPO Pose ID>  (1108) 
500323

>  <name>  (1108) 
P500323

>  <HIPPO Compound ID>  (1108) 
314642

>  <ref_mols>  (1108) 
A0875a,A4706a

>  <distance_score>  (1108) 
1.878302

>  <inspiration_score>  (1108) 
None

$$$$
P500327
     RDKit          3D

 28 30  0  0  0  0  0  0  0  0999 V2000
    8.2216   18.8181   20.1783 C   0  0  0  0  0  0  0  0  0  0  0  0
    7.8681   17.6137   20.8411 O   0  0  0  0  0  0  0  0  0  0  0  0
    8.9764   16.8074   21.1062 C   0  0  0  0  0  0  0  0  0  0  0  0
    8.5516   15.4121   21.5897 C   0  0  1  0  0  0  0  0  0  0  0  0
    9.8467   14.6598   21.9005 C   0  0  0  0  0  0  0  0  0  0  0  0
   10.7057   14.6133   20.7509 N   0  0  0  0  0  0  0  0  0  0  0  0
   12.0349   14.8002   20.7091 C   0  0  0  0  0  0  0  0  0  0  0  0
   12.4296   14.6958   19.4650 N   0  0  0  0  0  0  0  0  0  0  0  0
   11.2735   14.6495   18.7690 C   0  0  0  0  0  0  0  0  0  0  0  0
   10.1863   14.5727   19.5216 N   0  0  0  0  0  0  0  0  0  0  0  0
    7.6673   15.4721   22.7411 O   0  0  0  0  0  0  0  0  0  0  0  0
    7.0441   14.3123   23.0797 C   0  0  0  0  0  0  0  0  0  0  0  0
    7.1834   13.2460   22.4797 O   0  0  0  0  0  0  0  0  0  0  0  0
    6.0928   14.4506   24.2718 C   0  0  0  0  0  0  0  0  0  0  0  0
    5.8705   13.0727   24.9195 C   0  0  0  0  0  0  0  0  0  0  0  0
    7.0816   12.5545   25.6956 C   0  0  0  0  0  0  0  0  0  0  0  0
    7.8505   13.6399   26.3283 N   0  0  0  0  0  0  0  0  0  0  0  0
    9.4226   14.0599   25.9275 S   0  0  0  0  0  0  0  0  0  0  0  0
    9.9913   14.6406   27.1198 O   0  0  0  0  0  0  0  0  0  0  0  0
    9.4382   14.8139   24.7044 O   0  0  0  0  0  0  0  0  0  0  0  0
   10.2363   12.6317   25.6309 N   0  0  0  0  0  0  0  0  0  0  0  0
   11.6628   12.6890   26.0295 C   0  0  0  0  0  0  0  0  0  0  0  0
   12.4283   11.4729   25.5210 C   0  0  0  0  0  0  0  0  0  0  0  0
   11.5417   10.2346   25.2176 C   0  0  0  0  0  0  0  0  0  0  0  0
   10.2246   10.5381   24.4995 C   0  0  0  0  0  0  0  0  0  0  0  0
   10.0845   12.0292   24.2872 C   0  0  0  0  0  0  0  0  0  0  0  0
    6.9919   14.8075   26.6482 C   0  0  0  0  0  0  0  0  0  0  0  0
    6.4921   15.4623   25.3572 C   0  0  0  0  0  0  0  0  0  0  0  0
  1  2  1  0
  2  3  1  0
  4  3  1  1
  4  5  1  0
  5  6  1  0
  6  7  1  0
  7  8  2  0
  8  9  1  0
  9 10  2  0
  4 11  1  0
 11 12  1  0
 12 13  2  0
 12 14  1  0
 14 15  1  0
 15 16  1  0
 16 17  1  0
 17 18  1  0
 18 19  2  0
 18 20  2  0
 18 21  1  0
 21 22  1  0
 22 23  1  0
 23 24  1  0
 24 25  1  0
 25 26  1  0
 17 27  1  0
 27 28  1  0
 10  6  1  0
 28 14  1  0
 26 21  1  0
M  END
>  <energy_score>  (1109) 
-42.21937

>  <inchikey>  (1109) 
None

>  <smiles>  (1109) 
None

>  <ref_pdb>  (1109) 
A4706a

>  <alias>  (1109) 
None

>  <HIPPO Pose ID>  (1109) 
500327

>  <name>  (1109) 
P500327

>  <HIPPO Compound ID>  (1109) 
314646

>  <ref_mols>  (1109) 
A4706a,A0875a

>  <distance_score>  (1109) 
1.895289

>  <inspiration_score>  (1109) 
None

$$$$
P500329
     RDKit          3D

 28 30  0  0  0  0  0  0  0  0999 V2000
    6.9748   13.5329   21.8175 O   0  0  0  0  0  0  0  0  0  0  0  0
    7.1931   14.3214   22.7385 C   0  0  0  0  0  0  0  0  0  0  0  0
    7.9344   15.4538   22.6075 O   0  0  0  0  0  0  0  0  0  0  0  0
    8.6157   15.6516   21.3223 C   0  0  2  0  0  0  0  0  0  0  0  0
    9.8555   14.7687   21.1849 C   0  0  1  0  0  0  0  0  0  0  0  0
   10.5790   14.8617   19.8454 C   0  0  0  0  0  0  0  0  0  0  0  0
   11.9786   14.5318   20.2553 C   0  0  0  0  0  0  0  0  0  0  0  0
   12.0932   15.2458   21.5784 C   0  0  0  0  0  0  0  0  0  0  0  0
   10.8210   15.1288   22.1923 O   0  0  0  0  0  0  0  0  0  0  0  0
    8.9911   17.1177   21.0316 C   0  0  0  0  0  0  0  0  0  0  0  0
    8.9524   17.3871   19.7015 F   0  0  0  0  0  0  0  0  0  0  0  0
   10.2533   17.4192   21.3811 F   0  0  0  0  0  0  0  0  0  0  0  0
    8.1657   17.9861   21.6240 F   0  0  0  0  0  0  0  0  0  0  0  0
    6.6559   14.0195   24.1529 C   0  0  0  0  0  0  0  0  0  0  0  0
    7.1130   12.5761   24.5280 C   0  0  0  0  0  0  0  0  0  0  0  0
    7.7349   12.3416   25.8966 C   0  0  0  0  0  0  0  0  0  0  0  0
    8.4065   13.5463   26.4063 N   0  0  0  0  0  0  0  0  0  0  0  0
    9.8191   14.0903   25.6333 S   0  0  0  0  0  0  0  0  0  0  0  0
   10.2071   15.2984   26.3164 O   0  0  0  0  0  0  0  0  0  0  0  0
    9.5681   14.0573   24.2221 O   0  0  0  0  0  0  0  0  0  0  0  0
   10.9402   12.8832   25.9622 N   0  0  0  0  0  0  0  0  0  0  0  0
   12.2090   13.2906   26.6347 C   0  0  0  0  0  0  0  0  0  0  0  0
   13.4513   13.0055   25.7596 C   0  0  0  0  0  0  0  0  0  0  0  0
   13.6104   11.5476   25.3824 C   0  0  0  0  0  0  0  0  0  0  0  0
   12.2369   10.9516   25.3471 C   0  0  0  0  0  0  0  0  0  0  0  0
   11.1314   11.8881   24.8792 C   0  0  0  0  0  0  0  0  0  0  0  0
    7.3728   14.6083   26.5676 C   0  0  0  0  0  0  0  0  0  0  0  0
    6.9015   15.1116   25.2089 C   0  0  0  0  0  0  0  0  0  0  0  0
  1  2  2  0
  2  3  1  0
  4  3  1  1
  4  5  1  0
  5  6  1  6
  6  7  1  0
  7  8  1  0
  8  9  1  0
  4 10  1  0
 10 11  1  0
 10 12  1  0
 10 13  1  0
  2 14  1  0
 14 15  1  0
 15 16  1  0
 16 17  1  0
 17 18  1  0
 18 19  2  0
 18 20  2  0
 18 21  1  0
 21 22  1  0
 22 23  1  0
 23 24  1  0
 24 25  1  0
 25 26  1  0
 17 27  1  0
 27 28  1  0
  9  5  1  0
 28 14  1  0
 26 21  1  0
M  END
>  <energy_score>  (1110) 
-34.528897

>  <inchikey>  (1110) 
None

>  <smiles>  (1110) 
None

>  <ref_pdb>  (1110) 
A4706a

>  <alias>  (1110) 
None

>  <HIPPO Pose ID>  (1110) 
500329

>  <name>  (1110) 
P500329

>  <HIPPO Compound ID>  (1110) 
314647

>  <ref_mols>  (1110) 
A0875a,A4706a

>  <distance_score>  (1110) 
1.309317

>  <inspiration_score>  (1110) 
None

$$$$
P500331
     RDKit          3D

 28 29  0  0  0  0  0  0  0  0999 V2000
   10.5068   15.1007   19.5548 C   0  0  0  0  0  0  0  0  0  0  0  0
    9.5155   15.6907   20.3837 O   0  0  0  0  0  0  0  0  0  0  0  0
    9.3136   15.0856   21.6773 C   0  0  0  0  0  0  0  0  0  0  0  0
   10.2612   15.5705   22.6197 O   0  0  0  0  0  0  0  0  0  0  0  0
   11.5323   14.9641   22.5282 C   0  0  0  0  0  0  0  0  0  0  0  0
    7.8370   15.4400   22.1532 C   0  0  2  0  0  0  0  0  0  0  0  0
    7.5799   15.3023   23.5855 O   0  0  0  0  0  0  0  0  0  0  0  0
    6.3035   15.5274   24.0053 C   0  0  0  0  0  0  0  0  0  0  0  0
    5.4567   16.1380   23.3679 O   0  0  0  0  0  0  0  0  0  0  0  0
    5.9827   14.8370   25.3321 C   0  0  0  0  0  0  0  0  0  0  0  0
    5.8878   13.3005   25.1508 C   0  0  0  0  0  0  0  0  0  0  0  0
    6.8430   12.4352   25.9677 C   0  0  0  0  0  0  0  0  0  0  0  0
    8.0311   13.2000   26.3728 N   0  0  0  0  0  0  0  0  0  0  0  0
    9.1937   13.4946   25.1870 S   0  0  0  0  0  0  0  0  0  0  0  0
    8.6986   12.9543   23.9453 O   0  0  0  0  0  0  0  0  0  0  0  0
    9.6673   14.8458   25.3367 O   0  0  0  0  0  0  0  0  0  0  0  0
   10.3971   12.4410   25.7179 N   0  0  0  0  0  0  0  0  0  0  0  0
   11.6801   13.0780   26.0749 C   0  0  0  0  0  0  0  0  0  0  0  0
   12.7781   12.5852   25.1645 C   0  0  0  0  0  0  0  0  0  0  0  0
   12.9614   11.1099   25.4304 C   0  0  0  0  0  0  0  0  0  0  0  0
   11.6371   10.3120   25.2678 C   0  0  0  0  0  0  0  0  0  0  0  0
   10.4288   11.1729   24.9426 C   0  0  0  0  0  0  0  0  0  0  0  0
    7.6544   14.3350   27.2315 C   0  0  0  0  0  0  0  0  0  0  0  0
    6.8744   15.3785   26.4521 C   0  0  0  0  0  0  0  0  0  0  0  0
    6.9689   14.4175   21.4468 C   0  0  0  0  0  0  0  0  0  0  0  0
    6.9735   13.2023   22.0565 F   0  0  0  0  0  0  0  0  0  0  0  0
    7.4383   14.1801   20.2170 F   0  0  0  0  0  0  0  0  0  0  0  0
    5.6698   14.7527   21.3269 F   0  0  0  0  0  0  0  0  0  0  0  0
  1  2  1  0
  2  3  1  0
  3  4  1  0
  4  5  1  0
  3  6  1  0
  6  7  1  1
  7  8  1  0
  8  9  2  0
  8 10  1  0
 10 11  1  0
 11 12  1  0
 12 13  1  0
 13 14  1  0
 14 15  2  0
 14 16  2  0
 14 17  1  0
 17 18  1  0
 18 19  1  0
 19 20  1  0
 20 21  1  0
 21 22  1  0
 13 23  1  0
 23 24  1  0
  6 25  1  0
 25 26  1  0
 25 27  1  0
 25 28  1  0
 24 10  1  0
 22 17  1  0
M  END
>  <energy_score>  (1111) 
-29.045926

>  <inchikey>  (1111) 
None

>  <smiles>  (1111) 
None

>  <ref_pdb>  (1111) 
A4706a

>  <alias>  (1111) 
None

>  <HIPPO Pose ID>  (1111) 
500331

>  <name>  (1111) 
P500331

>  <HIPPO Compound ID>  (1111) 
314648

>  <ref_mols>  (1111) 
A4706a,A0875a

>  <distance_score>  (1111) 
1.652444

>  <inspiration_score>  (1111) 
None

$$$$
P500334
     RDKit          3D

 28 29  0  0  0  0  0  0  0  0999 V2000
   18.0775   12.9267   32.5810 C   0  0  0  0  0  0  0  0  0  0  0  0
   17.7509   12.3941   31.2000 C   0  0  0  0  0  0  0  0  0  0  0  0
   16.6474   11.4976   31.3138 O   0  0  0  0  0  0  0  0  0  0  0  0
   16.2361   10.9577   30.0596 C   0  0  0  0  0  0  0  0  0  0  0  0
   15.2227   11.8718   29.3690 C   0  0  0  0  0  0  0  0  0  0  0  0
   14.8191   11.3561   28.0992 O   0  0  0  0  0  0  0  0  0  0  0  0
   15.7031   11.7306   27.0354 C   0  0  0  0  0  0  0  0  0  0  0  0
   15.2584   11.0223   25.7260 C   0  0  1  0  0  0  0  0  0  0  0  0
   15.5499    9.5413   25.8754 C   0  0  0  0  0  0  0  0  0  0  0  0
   16.0006    8.6158   24.8941 N   0  0  0  0  0  0  0  0  0  0  0  0
   13.8131   11.1720   25.5241 O   0  0  0  0  0  0  0  0  0  0  0  0
   13.4921   12.4510   25.2799 C   0  0  0  0  0  0  0  0  0  0  0  0
   14.3565   13.3033   25.1464 O   0  0  0  0  0  0  0  0  0  0  0  0
   12.0588   12.8033   25.0914 C   0  0  0  0  0  0  0  0  0  0  0  0
   11.8598   13.5536   23.7768 C   0  0  0  0  0  0  0  0  0  0  0  0
   10.4522   14.1093   23.6137 C   0  0  0  0  0  0  0  0  0  0  0  0
    9.4643   13.3963   24.4790 N   0  0  0  0  0  0  0  0  0  0  0  0
    9.1183   14.2073   25.9324 S   0  0  0  0  0  0  0  0  0  0  0  0
    9.1597   15.6120   25.6274 O   0  0  0  0  0  0  0  0  0  0  0  0
    9.9382   13.6769   26.9906 O   0  0  0  0  0  0  0  0  0  0  0  0
    7.5537   13.8401   26.3229 N   0  0  0  0  0  0  0  0  0  0  0  0
    6.4837   14.7770   25.9706 C   0  0  0  0  0  0  0  0  0  0  0  0
    6.0719   14.5214   24.5379 C   0  0  0  0  0  0  0  0  0  0  0  0
    6.1888   13.0459   24.1622 C   0  0  0  0  0  0  0  0  0  0  0  0
    6.1518   12.0935   25.3622 C   0  0  0  0  0  0  0  0  0  0  0  0
    7.0949   12.4700   26.4993 C   0  0  0  0  0  0  0  0  0  0  0  0
    9.7627   11.9469   24.4586 C   0  0  0  0  0  0  0  0  0  0  0  0
   11.0334   11.6881   25.2466 C   0  0  0  0  0  0  0  0  0  0  0  0
  1  2  1  0
  2  3  1  0
  3  4  1  0
  4  5  1  0
  5  6  1  0
  6  7  1  0
  8  7  1  1
  8  9  1  0
  9 10  1  0
  8 11  1  0
 11 12  1  0
 12 13  2  0
 12 14  1  0
 14 15  1  0
 15 16  1  0
 16 17  1  0
 17 18  1  0
 18 19  2  0
 18 20  2  0
 18 21  1  0
 21 22  1  0
 22 23  1  0
 23 24  1  0
 24 25  1  0
 25 26  1  0
 17 27  1  0
 27 28  1  0
 28 14  1  0
 26 21  1  0
M  END
>  <energy_score>  (1112) 
-67.630939

>  <inchikey>  (1112) 
None

>  <smiles>  (1112) 
None

>  <ref_pdb>  (1112) 
A4706a

>  <alias>  (1112) 
None

>  <HIPPO Pose ID>  (1112) 
500334

>  <name>  (1112) 
P500334

>  <HIPPO Compound ID>  (1112) 
314650

>  <ref_mols>  (1112) 
A4706a,A0875a

>  <distance_score>  (1112) 
1.877138

>  <inspiration_score>  (1112) 
None

$$$$
P500335
     RDKit          3D

 28 31  0  0  0  0  0  0  0  0999 V2000
    6.1811   15.7639   22.2379 O   0  0  0  0  0  0  0  0  0  0  0  0
    6.8366   14.7342   22.3088 C   0  0  0  0  0  0  0  0  0  0  0  0
    7.7930   14.3720   21.3941 O   0  0  0  0  0  0  0  0  0  0  0  0
    8.5470   15.4623   20.7781 C   0  0  2  0  0  0  0  0  0  0  0  0
    9.3351   15.0625   19.5038 C   0  0  0  0  0  0  0  0  0  0  0  0
   10.5984   15.7109   19.4112 O   0  0  0  0  0  0  0  0  0  0  0  0
   10.8999   15.6264   20.7285 C   0  0  0  0  0  0  0  0  0  0  0  0
   12.1340   15.4468   21.2344 C   0  0  0  0  0  0  0  0  0  0  0  0
   12.1669   15.2968   22.5890 C   0  0  0  0  0  0  0  0  0  0  0  0
   13.2901   14.9932   23.1919 F   0  0  0  0  0  0  0  0  0  0  0  0
   11.0810   15.4403   23.4213 C   0  0  0  0  0  0  0  0  0  0  0  0
    9.8569   15.6162   22.8841 C   0  0  0  0  0  0  0  0  0  0  0  0
    9.7841   15.6068   21.5402 C   0  0  0  0  0  0  0  0  0  0  0  0
    6.6485   13.7204   23.4654 C   0  0  0  0  0  0  0  0  0  0  0  0
    7.8529   12.7950   23.6488 C   0  0  0  0  0  0  0  0  0  0  0  0
    7.8153   11.9856   24.9332 C   0  0  0  0  0  0  0  0  0  0  0  0
    7.8183   12.8836   26.0918 N   0  0  0  0  0  0  0  0  0  0  0  0
    9.1611   13.8424   26.4602 S   0  0  0  0  0  0  0  0  0  0  0  0
    8.9863   14.3062   27.8130 O   0  0  0  0  0  0  0  0  0  0  0  0
    9.2939   14.8361   25.4382 O   0  0  0  0  0  0  0  0  0  0  0  0
   10.5583   12.8566   26.4287 N   0  0  0  0  0  0  0  0  0  0  0  0
   11.6968   13.5473   27.1355 C   0  0  0  0  0  0  0  0  0  0  0  0
   12.9791   12.6928   27.1545 C   0  0  0  0  0  0  0  0  0  0  0  0
   13.3964   12.1659   25.7887 C   0  0  0  0  0  0  0  0  0  0  0  0
   12.4045   12.6499   24.7709 C   0  0  0  0  0  0  0  0  0  0  0  0
   10.9816   12.2821   25.1245 C   0  0  0  0  0  0  0  0  0  0  0  0
    6.5306   13.6615   26.0816 C   0  0  0  0  0  0  0  0  0  0  0  0
    6.3534   14.4792   24.7884 C   0  0  0  0  0  0  0  0  0  0  0  0
  1  2  2  0
  2  3  1  0
  4  3  1  1
  4  5  1  0
  5  6  1  0
  6  7  1  0
  7  8  2  0
  8  9  1  0
  9 10  1  0
  9 11  2  0
 11 12  1  0
 12 13  2  0
  2 14  1  0
 14 15  1  0
 15 16  1  0
 16 17  1  0
 17 18  1  0
 18 19  2  0
 18 20  2  0
 18 21  1  0
 21 22  1  0
 22 23  1  0
 23 24  1  0
 24 25  1  0
 25 26  1  0
 17 27  1  0
 27 28  1  0
 13  4  1  0
 28 14  1  0
 13  7  1  0
 26 21  1  0
M  END
>  <energy_score>  (1113) 
-27.967399

>  <inchikey>  (1113) 
None

>  <smiles>  (1113) 
None

>  <ref_pdb>  (1113) 
A4706a

>  <alias>  (1113) 
None

>  <HIPPO Pose ID>  (1113) 
500335

>  <name>  (1113) 
P500335

>  <HIPPO Compound ID>  (1113) 
314651

>  <ref_mols>  (1113) 
A0875a,A4706a

>  <distance_score>  (1113) 
1.70173

>  <inspiration_score>  (1113) 
None

$$$$
P500339
     RDKit          3D

 28 31  0  0  0  0  0  0  0  0999 V2000
    6.7610   13.3160   22.4558 O   0  0  0  0  0  0  0  0  0  0  0  0
    6.9879   14.2170   23.2631 C   0  0  0  0  0  0  0  0  0  0  0  0
    7.7272   15.3432   23.0139 O   0  0  0  0  0  0  0  0  0  0  0  0
    8.1673   15.6560   21.6704 C   0  0  2  0  0  0  0  0  0  0  0  0
    8.2454   14.5442   20.6693 C   0  0  0  0  0  0  0  0  0  0  0  0
    8.9408   15.0661   19.5138 O   0  0  0  0  0  0  0  0  0  0  0  0
    9.6775   16.2110   19.9084 C   0  0  0  0  0  0  0  0  0  0  0  0
    9.5611   16.2342   21.4128 C   0  0  2  0  0  0  0  0  0  0  0  0
   10.6356   15.4438   21.9401 N   0  0  0  0  0  0  0  0  0  0  0  0
   11.2609   15.6236   23.1084 C   0  0  0  0  0  0  0  0  0  0  0  0
   12.1414   14.5901   23.1482 C   0  0  0  0  0  0  0  0  0  0  0  0
   12.0141   13.8107   22.0599 N   0  0  0  0  0  0  0  0  0  0  0  0
   11.1417   14.3941   21.2743 N   0  0  0  0  0  0  0  0  0  0  0  0
    6.3613   14.1589   24.6659 C   0  0  0  0  0  0  0  0  0  0  0  0
    6.3534   12.7070   25.1969 C   0  0  0  0  0  0  0  0  0  0  0  0
    7.7023   12.2223   25.7402 C   0  0  0  0  0  0  0  0  0  0  0  0
    8.4629   13.3068   26.4342 N   0  0  0  0  0  0  0  0  0  0  0  0
    9.8022   13.9262   25.5985 S   0  0  0  0  0  0  0  0  0  0  0  0
    9.4555   13.8442   24.2077 O   0  0  0  0  0  0  0  0  0  0  0  0
   10.1628   15.1710   26.2283 O   0  0  0  0  0  0  0  0  0  0  0  0
   11.0243   12.8276   25.8810 N   0  0  0  0  0  0  0  0  0  0  0  0
   11.2148   11.7891   24.8697 C   0  0  0  0  0  0  0  0  0  0  0  0
   12.3245   10.8784   25.3481 C   0  0  0  0  0  0  0  0  0  0  0  0
   13.6977   11.4553   25.4772 C   0  0  0  0  0  0  0  0  0  0  0  0
   13.5779   12.8427   26.0647 C   0  0  0  0  0  0  0  0  0  0  0  0
   12.2081   13.2146   26.6837 C   0  0  0  0  0  0  0  0  0  0  0  0
    7.5405   14.3764   26.9186 C   0  0  0  0  0  0  0  0  0  0  0  0
    6.9028   15.1137   25.7373 C   0  0  0  0  0  0  0  0  0  0  0  0
  1  2  2  0
  2  3  1  0
  4  3  1  1
  4  5  1  0
  5  6  1  0
  6  7  1  0
  7  8  1  0
  8  9  1  1
  9 10  1  0
 10 11  2  0
 11 12  1  0
 12 13  2  0
  2 14  1  0
 14 15  1  0
 15 16  1  0
 16 17  1  0
 17 18  1  0
 18 19  2  0
 18 20  2  0
 18 21  1  0
 21 22  1  0
 22 23  1  0
 23 24  1  0
 24 25  1  0
 25 26  1  0
 17 27  1  0
 27 28  1  0
  8  4  1  0
 13  9  1  0
 28 14  1  0
 26 21  1  0
M  END
>  <energy_score>  (1114) 
-25.293868

>  <inchikey>  (1114) 
None

>  <smiles>  (1114) 
None

>  <ref_pdb>  (1114) 
A4706a

>  <alias>  (1114) 
None

>  <HIPPO Pose ID>  (1114) 
500339

>  <name>  (1114) 
P500339

>  <HIPPO Compound ID>  (1114) 
314658

>  <ref_mols>  (1114) 
A4706a,A0875a

>  <distance_score>  (1114) 
1.309659

>  <inspiration_score>  (1114) 
None

$$$$
P500342
     RDKit          3D

 28 31  0  0  0  0  0  0  0  0999 V2000
    5.9549   12.9628   22.5372 O   0  0  0  0  0  0  0  0  0  0  0  0
    6.2234   13.9536   23.2106 C   0  0  0  0  0  0  0  0  0  0  0  0
    7.0255   14.9508   22.7631 O   0  0  0  0  0  0  0  0  0  0  0  0
    7.6911   14.6590   21.5059 C   0  0  0  0  0  0  0  0  0  0  0  0
    8.7909   15.6862   21.2384 C   0  0  2  0  0  0  0  0  0  0  0  0
    9.4551   15.7195   19.8658 C   0  0  0  0  0  0  0  0  0  0  0  0
   10.7506   14.9828   19.9699 C   0  0  0  0  0  0  0  0  0  0  0  0
   10.9385   14.8072   21.4514 C   0  0  2  0  0  0  0  0  0  0  0  0
   12.1037   15.4969   22.0592 C   0  0  0  0  0  0  0  0  0  0  0  0
   12.1987   14.7182   23.3484 C   0  0  0  0  0  0  0  0  0  0  0  0
   11.8374   13.3744   23.1121 O   0  0  0  0  0  0  0  0  0  0  0  0
   11.1867   13.3749   21.8539 C   0  0  0  0  0  0  0  0  0  0  0  0
    9.8295   15.3631   22.1440 O   0  0  0  0  0  0  0  0  0  0  0  0
    5.6606   14.1786   24.6200 C   0  0  0  0  0  0  0  0  0  0  0  0
    5.5681   12.8500   25.3959 C   0  0  0  0  0  0  0  0  0  0  0  0
    6.8947   12.2877   25.9135 C   0  0  0  0  0  0  0  0  0  0  0  0
    7.8814   13.3695   26.1340 N   0  0  0  0  0  0  0  0  0  0  0  0
    9.0501   13.5750   24.9191 S   0  0  0  0  0  0  0  0  0  0  0  0
    9.3054   14.9884   24.8224 O   0  0  0  0  0  0  0  0  0  0  0  0
    8.6552   12.7397   23.8148 O   0  0  0  0  0  0  0  0  0  0  0  0
   10.3570   12.8825   25.6488 N   0  0  0  0  0  0  0  0  0  0  0  0
   10.8148   11.5644   25.2368 C   0  0  0  0  0  0  0  0  0  0  0  0
   12.3374   11.4027   25.4028 C   0  0  0  0  0  0  0  0  0  0  0  0
   12.9812   12.0666   26.5989 C   0  0  0  0  0  0  0  0  0  0  0  0
   12.4219   13.4501   26.7418 C   0  0  0  0  0  0  0  0  0  0  0  0
   10.9246   13.5313   26.8072 C   0  0  0  0  0  0  0  0  0  0  0  0
    7.2357   14.6222   26.5969 C   0  0  0  0  0  0  0  0  0  0  0  0
    6.3624   15.2302   25.4944 C   0  0  0  0  0  0  0  0  0  0  0  0
  1  2  2  0
  2  3  1  0
  3  4  1  0
  5  4  1  6
  5  6  1  0
  6  7  1  0
  8  7  1  6
  8  9  1  0
  9 10  1  0
 10 11  1  0
 11 12  1  0
  8 13  1  0
  2 14  1  0
 14 15  1  0
 15 16  1  0
 16 17  1  0
 17 18  1  0
 18 19  2  0
 18 20  2  0
 18 21  1  0
 21 22  1  0
 22 23  1  0
 23 24  1  0
 24 25  1  0
 25 26  1  0
 17 27  1  0
 27 28  1  0
 13  5  1  0
 28 14  1  0
 12  8  1  0
 26 21  1  0
M  END
>  <energy_score>  (1115) 
-37.164503

>  <inchikey>  (1115) 
None

>  <smiles>  (1115) 
None

>  <ref_pdb>  (1115) 
A4706a

>  <alias>  (1115) 
None

>  <HIPPO Pose ID>  (1115) 
500342

>  <name>  (1115) 
P500342

>  <HIPPO Compound ID>  (1115) 
314660

>  <ref_mols>  (1115) 
A0875a,A4706a

>  <distance_score>  (1115) 
1.789268

>  <inspiration_score>  (1115) 
None

$$$$
P500344
     RDKit          3D

 28 31  0  0  0  0  0  0  0  0999 V2000
    5.7268   15.1905   22.2555 O   0  0  0  0  0  0  0  0  0  0  0  0
    6.5399   15.1343   23.1743 C   0  0  0  0  0  0  0  0  0  0  0  0
    7.8474   15.5320   23.0650 O   0  0  0  0  0  0  0  0  0  0  0  0
    8.2868   15.8284   21.7275 C   0  0  2  0  0  0  0  0  0  0  0  0
    8.2472   14.6138   20.8351 C   0  0  0  0  0  0  0  0  0  0  0  0
    9.0197   14.9472   19.6649 O   0  0  0  0  0  0  0  0  0  0  0  0
    9.7984   16.1012   19.9375 C   0  0  0  0  0  0  0  0  0  0  0  0
    9.7500   16.2256   21.4424 C   0  0  2  0  0  0  0  0  0  0  0  0
   10.7444   15.3705   22.0393 N   0  0  0  0  0  0  0  0  0  0  0  0
   11.1730   15.4546   23.3089 C   0  0  0  0  0  0  0  0  0  0  0  0
   11.9551   14.4451   23.5849 N   0  0  0  0  0  0  0  0  0  0  0  0
   12.0269   13.6684   22.4719 N   0  0  0  0  0  0  0  0  0  0  0  0
   11.3707   14.2827   21.5219 C   0  0  0  0  0  0  0  0  0  0  0  0
    6.1644   14.4914   24.5189 C   0  0  0  0  0  0  0  0  0  0  0  0
    6.4667   12.9724   24.4626 C   0  0  0  0  0  0  0  0  0  0  0  0
    7.2089   12.3262   25.6350 C   0  0  0  0  0  0  0  0  0  0  0  0
    8.0513   13.3046   26.3495 N   0  0  0  0  0  0  0  0  0  0  0  0
    9.4263   13.8672   25.5240 S   0  0  0  0  0  0  0  0  0  0  0  0
    9.7149   15.1655   26.0849 O   0  0  0  0  0  0  0  0  0  0  0  0
    9.1740   13.6648   24.1210 O   0  0  0  0  0  0  0  0  0  0  0  0
   10.6367   12.8132   25.9994 N   0  0  0  0  0  0  0  0  0  0  0  0
   11.8970   13.4521   26.4864 C   0  0  0  0  0  0  0  0  0  0  0  0
   13.2257   13.0284   25.8333 C   0  0  0  0  0  0  0  0  0  0  0  0
   13.2185   11.7785   25.0132 C   0  0  0  0  0  0  0  0  0  0  0  0
   12.0945   10.9469   25.4914 C   0  0  0  0  0  0  0  0  0  0  0  0
   10.7623   11.5943   25.1883 C   0  0  0  0  0  0  0  0  0  0  0  0
    7.1755   14.3898   26.8728 C   0  0  0  0  0  0  0  0  0  0  0  0
    6.6682   15.2691   25.7364 C   0  0  0  0  0  0  0  0  0  0  0  0
  1  2  2  0
  2  3  1  0
  4  3  1  1
  4  5  1  0
  5  6  1  0
  6  7  1  0
  7  8  1  0
  8  9  1  1
  9 10  1  0
 10 11  2  0
 11 12  1  0
 12 13  2  0
  2 14  1  0
 14 15  1  0
 15 16  1  0
 16 17  1  0
 17 18  1  0
 18 19  2  0
 18 20  2  0
 18 21  1  0
 21 22  1  0
 22 23  1  0
 23 24  1  0
 24 25  1  0
 25 26  1  0
 17 27  1  0
 27 28  1  0
  8  4  1  0
 13  9  1  0
 28 14  1  0
 26 21  1  0
M  END
>  <energy_score>  (1116) 
-35.440249

>  <inchikey>  (1116) 
None

>  <smiles>  (1116) 
None

>  <ref_pdb>  (1116) 
A4706a

>  <alias>  (1116) 
None

>  <HIPPO Pose ID>  (1116) 
500344

>  <name>  (1116) 
P500344

>  <HIPPO Compound ID>  (1116) 
314665

>  <ref_mols>  (1116) 
A4706a,A0875a

>  <distance_score>  (1116) 
1.494909

>  <inspiration_score>  (1116) 
None

$$$$
P500346
     RDKit          3D

 28 30  0  0  0  0  0  0  0  0999 V2000
    8.6006   18.3567   20.9758 C   0  0  0  0  0  0  0  0  0  0  0  0
    8.6877   16.9445   20.9299 O   0  0  0  0  0  0  0  0  0  0  0  0
    7.8854   16.2308   21.7449 C   0  0  0  0  0  0  0  0  0  0  0  0
    6.9567   16.6566   22.4243 O   0  0  0  0  0  0  0  0  0  0  0  0
    8.2300   14.7675   21.6896 C   0  0  2  0  0  0  0  0  0  0  0  0
    7.8152   14.3664   23.0265 O   0  0  0  0  0  0  0  0  0  0  0  0
    6.6945   13.6410   23.1763 C   0  0  0  0  0  0  0  0  0  0  0  0
    6.1313   13.0697   22.2493 O   0  0  0  0  0  0  0  0  0  0  0  0
    6.2403   13.5130   24.6383 C   0  0  0  0  0  0  0  0  0  0  0  0
    6.5815   12.1160   25.1908 C   0  0  0  0  0  0  0  0  0  0  0  0
    7.6641   12.0054   26.2612 C   0  0  0  0  0  0  0  0  0  0  0  0
    8.4745   13.2357   26.3788 N   0  0  0  0  0  0  0  0  0  0  0  0
    9.6216   13.4731   25.1693 S   0  0  0  0  0  0  0  0  0  0  0  0
    9.8491   14.8894   25.0288 O   0  0  0  0  0  0  0  0  0  0  0  0
    9.2548   12.5834   24.0919 O   0  0  0  0  0  0  0  0  0  0  0  0
   11.0493   12.8114   25.8057 N   0  0  0  0  0  0  0  0  0  0  0  0
   11.6700   13.5804   26.9081 C   0  0  0  0  0  0  0  0  0  0  0  0
   12.9710   12.8973   27.3846 C   0  0  0  0  0  0  0  0  0  0  0  0
   13.8981   12.3631   26.3023 C   0  0  0  0  0  0  0  0  0  0  0  0
   13.1026   11.6965   25.2086 C   0  0  0  0  0  0  0  0  0  0  0  0
   12.0416   12.6616   24.7049 C   0  0  0  0  0  0  0  0  0  0  0  0
    7.5904   14.3846   26.6780 C   0  0  0  0  0  0  0  0  0  0  0  0
    6.6356   14.6994   25.5332 C   0  0  0  0  0  0  0  0  0  0  0  0
    9.7081   14.4344   21.4592 C   0  0  1  0  0  0  0  0  0  0  0  0
   10.3167   14.7452   20.0935 C   0  0  0  0  0  0  0  0  0  0  0  0
   11.7736   14.6970   20.4327 C   0  0  0  0  0  0  0  0  0  0  0  0
   11.7954   15.4140   21.7591 C   0  0  0  0  0  0  0  0  0  0  0  0
   10.5840   15.0568   22.4224 O   0  0  0  0  0  0  0  0  0  0  0  0
  1  2  1  0
  2  3  1  0
  3  4  2  0
  3  5  1  0
  5  6  1  1
  6  7  1  0
  7  8  2  0
  7  9  1  0
  9 10  1  0
 10 11  1  0
 11 12  1  0
 12 13  1  0
 13 14  2  0
 13 15  2  0
 13 16  1  0
 16 17  1  0
 17 18  1  0
 18 19  1  0
 19 20  1  0
 20 21  1  0
 12 22  1  0
 22 23  1  0
  5 24  1  0
 24 25  1  6
 25 26  1  0
 26 27  1  0
 27 28  1  0
 23  9  1  0
 28 24  1  0
 21 16  1  0
M  END
>  <energy_score>  (1117) 
-62.95534

>  <inchikey>  (1117) 
None

>  <smiles>  (1117) 
None

>  <ref_pdb>  (1117) 
A4706a

>  <alias>  (1117) 
None

>  <HIPPO Pose ID>  (1117) 
500346

>  <name>  (1117) 
P500346

>  <HIPPO Compound ID>  (1117) 
314667

>  <ref_mols>  (1117) 
A4706a,A0875a

>  <distance_score>  (1117) 
1.541882

>  <inspiration_score>  (1117) 
None

$$$$
P500350
     RDKit          3D

 28 31  0  0  0  0  0  0  0  0999 V2000
   11.1792   13.7116   21.8919 C   0  0  0  0  0  0  0  0  0  0  0  0
   11.2799   15.1820   21.5906 C   0  0  0  0  0  0  0  0  0  0  0  0
   12.6481   15.6803   21.8005 C   0  0  0  0  0  0  0  0  0  0  0  0
   10.3717   15.8827   22.4125 O   0  0  0  0  0  0  0  0  0  0  0  0
    9.4068   16.4532   21.5332 C   0  0  1  0  0  0  0  0  0  0  0  0
    9.9163   16.1950   20.1406 C   0  0  2  0  0  0  0  0  0  0  0  0
    9.0783   15.1410   19.6340 C   0  0  0  0  0  0  0  0  0  0  0  0
    8.1438   14.7920   20.5250 C   0  0  0  0  0  0  0  0  0  0  0  0
    8.0344   15.7699   21.6345 C   0  0  1  0  0  0  0  0  0  0  0  0
    7.8145   15.2016   22.9135 O   0  0  0  0  0  0  0  0  0  0  0  0
    7.2534   13.9778   23.0768 C   0  0  0  0  0  0  0  0  0  0  0  0
    6.4828   13.3654   22.3552 O   0  0  0  0  0  0  0  0  0  0  0  0
    7.8612   13.4473   24.3201 C   0  0  0  0  0  0  0  0  0  0  0  0
    7.8324   11.9545   24.5523 C   0  0  0  0  0  0  0  0  0  0  0  0
    8.8732   11.6202   25.6207 C   0  0  0  0  0  0  0  0  0  0  0  0
    9.1377   12.7635   26.5241 N   0  0  0  0  0  0  0  0  0  0  0  0
   10.5171   13.7523   26.4321 S   0  0  0  0  0  0  0  0  0  0  0  0
   10.5539   14.4707   25.1849 O   0  0  0  0  0  0  0  0  0  0  0  0
   10.5164   14.4647   27.6841 O   0  0  0  0  0  0  0  0  0  0  0  0
   11.8294   12.6470   26.4467 N   0  0  0  0  0  0  0  0  0  0  0  0
   12.9309   12.9641   27.4144 C   0  0  0  0  0  0  0  0  0  0  0  0
   14.3443   12.7307   26.8764 C   0  0  0  0  0  0  0  0  0  0  0  0
   14.4900   11.4013   26.2063 C   0  0  0  0  0  0  0  0  0  0  0  0
   13.3846   11.2168   25.1971 C   0  0  0  0  0  0  0  0  0  0  0  0
   12.3528   12.3398   25.1117 C   0  0  0  0  0  0  0  0  0  0  0  0
    7.8758   13.5304   26.8088 C   0  0  0  0  0  0  0  0  0  0  0  0
    7.3992   14.2248   25.5472 C   0  0  0  0  0  0  0  0  0  0  0  0
   11.1184   15.4896   20.2170 O   0  0  0  0  0  0  0  0  0  0  0  0
  1  2  1  0
  2  3  1  0
  2  4  1  0
  5  4  1  1
  5  6  1  0
  6  7  1  0
  7  8  2  0
  8  9  1  0
  9 10  1  1
 10 11  1  0
 11 12  2  0
 11 13  1  0
 13 14  1  0
 14 15  1  0
 15 16  1  0
 16 17  1  0
 17 18  2  0
 17 19  2  0
 17 20  1  0
 20 21  1  0
 21 22  1  0
 22 23  1  0
 23 24  1  0
 24 25  1  0
 16 26  1  0
 26 27  1  0
  6 28  1  1
 28  2  1  0
  9  5  1  0
 27 13  1  0
 25 20  1  0
M  END
>  <energy_score>  (1118) 
-50.621719

>  <inchikey>  (1118) 
None

>  <smiles>  (1118) 
None

>  <ref_pdb>  (1118) 
A4706a

>  <alias>  (1118) 
None

>  <HIPPO Pose ID>  (1118) 
500350

>  <name>  (1118) 
P500350

>  <HIPPO Compound ID>  (1118) 
314669

>  <ref_mols>  (1118) 
A4706a,A0875a

>  <distance_score>  (1118) 
1.594802

>  <inspiration_score>  (1118) 
None

$$$$
P500354
     RDKit          3D

 28 30  0  0  0  0  0  0  0  0999 V2000
    7.9385   19.3337   19.3342 C   0  0  0  0  0  0  0  0  0  0  0  0
    8.4539   18.0513   19.6890 O   0  0  0  0  0  0  0  0  0  0  0  0
    8.4778   17.8332   21.0330 C   0  0  0  0  0  0  0  0  0  0  0  0
    8.4306   18.7672   21.8110 O   0  0  0  0  0  0  0  0  0  0  0  0
    8.4767   16.3230   21.3925 C   0  0  2  0  0  0  0  0  0  0  0  0
    7.9997   15.9384   22.6990 O   0  0  0  0  0  0  0  0  0  0  0  0
    7.2800   14.7919   22.7699 C   0  0  0  0  0  0  0  0  0  0  0  0
    7.3725   13.8672   21.9615 O   0  0  0  0  0  0  0  0  0  0  0  0
    6.2261   14.7631   23.8977 C   0  0  0  0  0  0  0  0  0  0  0  0
    5.8647   13.3080   24.2278 C   0  0  0  0  0  0  0  0  0  0  0  0
    7.0295   12.5795   24.8910 C   0  0  0  0  0  0  0  0  0  0  0  0
    7.7151   13.4302   25.8879 N   0  0  0  0  0  0  0  0  0  0  0  0
    9.3257   13.8734   25.6941 S   0  0  0  0  0  0  0  0  0  0  0  0
    9.3547   15.1557   25.0397 O   0  0  0  0  0  0  0  0  0  0  0  0
    9.9725   13.7055   26.9718 O   0  0  0  0  0  0  0  0  0  0  0  0
    9.9292   12.7522   24.6119 N   0  0  0  0  0  0  0  0  0  0  0  0
   10.8749   13.3107   23.6366 C   0  0  0  0  0  0  0  0  0  0  0  0
   12.1501   13.6987   24.3566 C   0  0  0  0  0  0  0  0  0  0  0  0
   12.8050   12.4858   24.9721 C   0  0  0  0  0  0  0  0  0  0  0  0
   11.8124   11.6108   25.6861 C   0  0  0  0  0  0  0  0  0  0  0  0
   10.3968   11.4754   25.1186 C   0  0  0  0  0  0  0  0  0  0  0  0
    6.8747   14.5532   26.3767 C   0  0  0  0  0  0  0  0  0  0  0  0
    6.5047   15.4952   25.2176 C   0  0  0  0  0  0  0  0  0  0  0  0
    9.8121   15.7656   21.0446 C   0  0  0  0  0  0  0  0  0  0  0  0
   10.2635   15.1500   19.8924 C   0  0  0  0  0  0  0  0  0  0  0  0
   11.6295   14.8862   20.0849 C   0  0  0  0  0  0  0  0  0  0  0  0
   11.9485   15.4392   21.3023 C   0  0  0  0  0  0  0  0  0  0  0  0
   10.8542   15.9724   21.8952 O   0  0  0  0  0  0  0  0  0  0  0  0
  1  2  1  0
  2  3  1  0
  3  4  2  0
  3  5  1  0
  5  6  1  1
  6  7  1  0
  7  8  2  0
  7  9  1  0
  9 10  1  0
 10 11  1  0
 11 12  1  0
 12 13  1  0
 13 14  2  0
 13 15  2  0
 13 16  1  0
 16 17  1  0
 17 18  1  0
 18 19  1  0
 19 20  1  0
 20 21  1  0
 12 22  1  0
 22 23  1  0
  5 24  1  0
 24 25  2  0
 25 26  1  0
 26 27  2  0
 27 28  1  0
 23  9  1  0
 28 24  1  0
 21 16  1  0
M  END
>  <energy_score>  (1119) 
-50.631901

>  <inchikey>  (1119) 
None

>  <smiles>  (1119) 
None

>  <ref_pdb>  (1119) 
A4706a

>  <alias>  (1119) 
None

>  <HIPPO Pose ID>  (1119) 
500354

>  <name>  (1119) 
P500354

>  <HIPPO Compound ID>  (1119) 
314670

>  <ref_mols>  (1119) 
A0875a,A4706a

>  <distance_score>  (1119) 
1.766179

>  <inspiration_score>  (1119) 
None

$$$$
P500356
     RDKit          3D

 28 31  0  0  0  0  0  0  0  0999 V2000
    5.9849   13.0140   22.2238 O   0  0  0  0  0  0  0  0  0  0  0  0
    6.9259   13.6331   22.7036 C   0  0  0  0  0  0  0  0  0  0  0  0
    7.6616   14.4691   21.9461 O   0  0  0  0  0  0  0  0  0  0  0  0
    8.4445   15.5697   22.4961 C   0  0  2  0  0  0  0  0  0  0  0  0
    8.2799   16.7444   21.5443 C   0  0  0  0  0  0  0  0  0  0  0  0
    8.8581   16.5644   20.2825 O   0  0  0  0  0  0  0  0  0  0  0  0
    9.8629   15.6889   20.1964 C   0  0  0  0  0  0  0  0  0  0  0  0
   10.1990   15.3634   18.9125 C   0  0  0  0  0  0  0  0  0  0  0  0
   11.3750   14.7218   18.6734 C   0  0  0  0  0  0  0  0  0  0  0  0
   12.1397   14.3558   19.7578 C   0  0  0  0  0  0  0  0  0  0  0  0
   11.7208   14.5318   21.0633 C   0  0  0  0  0  0  0  0  0  0  0  0
   10.5312   15.1678   21.2778 C   0  0  0  0  0  0  0  0  0  0  0  0
    9.9281   15.2261   22.6220 C   0  0  0  0  0  0  0  0  0  0  0  0
    7.3713   13.4099   24.1155 C   0  0  0  0  0  0  0  0  0  0  0  0
    7.4624   11.9424   24.5237 C   0  0  0  0  0  0  0  0  0  0  0  0
    8.1392   11.7866   25.8782 C   0  0  0  0  0  0  0  0  0  0  0  0
    8.2688   13.0810   26.5578 N   0  0  0  0  0  0  0  0  0  0  0  0
    9.6304   14.0550   26.5326 S   0  0  0  0  0  0  0  0  0  0  0  0
    9.6682   14.8898   25.3581 O   0  0  0  0  0  0  0  0  0  0  0  0
    9.6333   14.7009   27.8215 O   0  0  0  0  0  0  0  0  0  0  0  0
   10.9796   13.0285   26.4720 N   0  0  0  0  0  0  0  0  0  0  0  0
   11.3905   12.5065   25.1493 C   0  0  0  0  0  0  0  0  0  0  0  0
   12.4803   11.4395   25.3707 C   0  0  0  0  0  0  0  0  0  0  0  0
   13.4009   11.6701   26.5519 C   0  0  0  0  0  0  0  0  0  0  0  0
   13.5033   13.1290   26.7308 C   0  0  0  0  0  0  0  0  0  0  0  0
   12.1393   13.7081   27.1403 C   0  0  0  0  0  0  0  0  0  0  0  0
    6.9740   13.8176   26.5775 C   0  0  0  0  0  0  0  0  0  0  0  0
    6.5699   14.1991   25.1511 C   0  0  0  0  0  0  0  0  0  0  0  0
  1  2  2  0
  2  3  1  0
  4  3  1  6
  4  5  1  0
  5  6  1  0
  6  7  1  0
  7  8  2  0
  8  9  1  0
  9 10  2  0
 10 11  1  0
 11 12  2  0
 12 13  1  0
  2 14  1  0
 14 15  1  0
 15 16  1  0
 16 17  1  0
 17 18  1  0
 18 19  2  0
 18 20  2  0
 18 21  1  0
 21 22  1  0
 22 23  1  0
 23 24  1  0
 24 25  1  0
 25 26  1  0
 17 27  1  0
 27 28  1  0
 13  4  1  0
 28 14  1  0
 12  7  1  0
 26 21  1  0
M  END
>  <energy_score>  (1120) 
-17.245499

>  <inchikey>  (1120) 
None

>  <smiles>  (1120) 
None

>  <ref_pdb>  (1120) 
A4706a

>  <alias>  (1120) 
None

>  <HIPPO Pose ID>  (1120) 
500356

>  <name>  (1120) 
P500356

>  <HIPPO Compound ID>  (1120) 
314671

>  <ref_mols>  (1120) 
A0875a,A4706a

>  <distance_score>  (1120) 
1.979928

>  <inspiration_score>  (1120) 
None

$$$$
P500357
     RDKit          3D

 28 30  0  0  0  0  0  0  0  0999 V2000
    7.9155   19.3474   19.3559 C   0  0  0  0  0  0  0  0  0  0  0  0
    8.3650   18.0522   19.7433 O   0  0  0  0  0  0  0  0  0  0  0  0
    8.3569   17.8505   21.0899 C   0  0  0  0  0  0  0  0  0  0  0  0
    8.3927   18.7959   21.8537 O   0  0  0  0  0  0  0  0  0  0  0  0
    8.2818   16.3319   21.4741 C   0  0  2  0  0  0  0  0  0  0  0  0
    7.6924   15.9262   22.7369 O   0  0  0  0  0  0  0  0  0  0  0  0
    6.9248   14.8008   22.7105 C   0  0  0  0  0  0  0  0  0  0  0  0
    6.6879   14.1351   21.7006 O   0  0  0  0  0  0  0  0  0  0  0  0
    6.3418   14.3456   24.0654 C   0  0  0  0  0  0  0  0  0  0  0  0
    6.7086   12.8432   24.2465 C   0  0  0  0  0  0  0  0  0  0  0  0
    7.2960   12.3621   25.5638 C   0  0  0  0  0  0  0  0  0  0  0  0
    7.9888   13.4491   26.2622 N   0  0  0  0  0  0  0  0  0  0  0  0
    9.4041   14.0750   25.5840 S   0  0  0  0  0  0  0  0  0  0  0  0
    9.6559   15.3036   26.3022 O   0  0  0  0  0  0  0  0  0  0  0  0
    9.3016   14.0614   24.1511 O   0  0  0  0  0  0  0  0  0  0  0  0
   10.6421   13.0183   25.9902 N   0  0  0  0  0  0  0  0  0  0  0  0
   11.9467   13.7432   26.0300 C   0  0  0  0  0  0  0  0  0  0  0  0
   12.8692   13.2925   24.9078 C   0  0  0  0  0  0  0  0  0  0  0  0
   13.3168   11.8777   25.1451 C   0  0  0  0  0  0  0  0  0  0  0  0
   12.1045   11.1158   25.5722 C   0  0  0  0  0  0  0  0  0  0  0  0
   10.7420   11.7422   25.2356 C   0  0  0  0  0  0  0  0  0  0  0  0
    6.9740   14.5101   26.5542 C   0  0  0  0  0  0  0  0  0  0  0  0
    6.6017   15.2550   25.2746 C   0  0  0  0  0  0  0  0  0  0  0  0
    9.6405   15.7456   21.2224 C   0  0  0  0  0  0  0  0  0  0  0  0
   10.0911   15.2693   19.9427 C   0  0  0  0  0  0  0  0  0  0  0  0
   11.3900   14.8309   19.9782 C   0  0  0  0  0  0  0  0  0  0  0  0
   12.0531   15.0193   21.5349 S   0  0  0  0  0  0  0  0  0  0  0  0
   10.6464   15.6878   22.1555 C   0  0  0  0  0  0  0  0  0  0  0  0
  1  2  1  0
  2  3  1  0
  3  4  2  0
  3  5  1  0
  5  6  1  1
  6  7  1  0
  7  8  2  0
  7  9  1  0
  9 10  1  0
 10 11  1  0
 11 12  1  0
 12 13  1  0
 13 14  2  0
 13 15  2  0
 13 16  1  0
 16 17  1  0
 17 18  1  0
 18 19  1  0
 19 20  1  0
 20 21  1  0
 12 22  1  0
 22 23  1  0
  5 24  1  0
 24 25  1  0
 25 26  2  0
 26 27  1  0
 27 28  1  0
 23  9  1  0
 28 24  2  0
 21 16  1  0
M  END
>  <energy_score>  (1121) 
-37.969832

>  <inchikey>  (1121) 
None

>  <smiles>  (1121) 
None

>  <ref_pdb>  (1121) 
A4706a

>  <alias>  (1121) 
None

>  <HIPPO Pose ID>  (1121) 
500357

>  <name>  (1121) 
P500357

>  <HIPPO Compound ID>  (1121) 
314672

>  <ref_mols>  (1121) 
A4706a,A0875a

>  <distance_score>  (1121) 
1.392567

>  <inspiration_score>  (1121) 
None

$$$$
P500358
     RDKit          3D

 28 30  0  0  0  0  0  0  0  0999 V2000
    8.3226   18.5590   20.2946 C   0  0  0  0  0  0  0  0  0  0  0  0
    8.8796   17.2852   20.6020 O   0  0  0  0  0  0  0  0  0  0  0  0
    8.1344   16.4750   21.3966 C   0  0  0  0  0  0  0  0  0  0  0  0
    7.1292   16.7850   22.0235 O   0  0  0  0  0  0  0  0  0  0  0  0
    8.6508   15.0491   21.3881 C   0  0  2  0  0  0  0  0  0  0  0  0
    8.1876   14.6366   22.7211 O   0  0  0  0  0  0  0  0  0  0  0  0
    7.0120   13.9529   22.8298 C   0  0  0  0  0  0  0  0  0  0  0  0
    6.5347   13.2873   21.9135 O   0  0  0  0  0  0  0  0  0  0  0  0
    6.3210   14.0071   24.2223 C   0  0  0  0  0  0  0  0  0  0  0  0
    6.2808   12.6267   24.9289 C   0  0  0  0  0  0  0  0  0  0  0  0
    7.2481   12.3706   26.0960 C   0  0  0  0  0  0  0  0  0  0  0  0
    8.1883   13.4992   26.2885 N   0  0  0  0  0  0  0  0  0  0  0  0
    9.4222   13.5854   25.1341 S   0  0  0  0  0  0  0  0  0  0  0  0
    9.7511   14.9779   24.9617 O   0  0  0  0  0  0  0  0  0  0  0  0
    8.9949   12.7037   24.0734 O   0  0  0  0  0  0  0  0  0  0  0  0
   10.7059   12.8003   25.8910 N   0  0  0  0  0  0  0  0  0  0  0  0
   11.9349   13.6273   26.0487 C   0  0  0  0  0  0  0  0  0  0  0  0
   12.9795   13.2283   25.0038 C   0  0  0  0  0  0  0  0  0  0  0  0
   13.5283   11.8528   25.2467 C   0  0  0  0  0  0  0  0  0  0  0  0
   12.3638   11.0155   25.6430 C   0  0  0  0  0  0  0  0  0  0  0  0
   10.9818   11.4941   25.2367 C   0  0  0  0  0  0  0  0  0  0  0  0
    7.4046   14.7502   26.4510 C   0  0  0  0  0  0  0  0  0  0  0  0
    6.7164   15.1630   25.1502 C   0  0  0  0  0  0  0  0  0  0  0  0
   10.1684   14.9369   21.1491 C   0  0  0  0  0  0  0  0  0  0  0  0
   10.5819   15.0781   19.6748 C   0  0  0  0  0  0  0  0  0  0  0  0
   11.0134   15.7946   22.0977 C   0  0  0  0  0  0  0  0  0  0  0  0
   11.5283   14.6365   22.7717 O   0  0  0  0  0  0  0  0  0  0  0  0
   10.9517   13.7781   21.7699 C   0  0  0  0  0  0  0  0  0  0  0  0
  1  2  1  0
  2  3  1  0
  3  4  2  0
  3  5  1  0
  5  6  1  1
  6  7  1  0
  7  8  2  0
  7  9  1  0
  9 10  1  0
 10 11  1  0
 11 12  1  0
 12 13  1  0
 13 14  2  0
 13 15  2  0
 13 16  1  0
 16 17  1  0
 17 18  1  0
 18 19  1  0
 19 20  1  0
 20 21  1  0
 12 22  1  0
 22 23  1  0
  5 24  1  0
 24 25  1  0
 24 26  1  0
 26 27  1  0
 27 28  1  0
 23  9  1  0
 28 24  1  0
 21 16  1  0
M  END
>  <energy_score>  (1122) 
-15.886093

>  <inchikey>  (1122) 
None

>  <smiles>  (1122) 
None

>  <ref_pdb>  (1122) 
A4706a

>  <alias>  (1122) 
None

>  <HIPPO Pose ID>  (1122) 
500358

>  <name>  (1122) 
P500358

>  <HIPPO Compound ID>  (1122) 
314673

>  <ref_mols>  (1122) 
A4706a,A0875a

>  <distance_score>  (1122) 
1.157274

>  <inspiration_score>  (1122) 
None

$$$$
P500361
     RDKit          3D

 28 29  0  0  0  0  0  0  0  0999 V2000
   11.0137   15.8347   23.5412 C   0  0  0  0  0  0  0  0  0  0  0  0
   11.6041   14.7941   22.6663 C   0  0  0  0  0  0  0  0  0  0  0  0
   11.3645   15.2582   21.3726 O   0  0  0  0  0  0  0  0  0  0  0  0
   10.2498   14.6480   20.7346 C   0  0  2  0  0  0  0  0  0  0  0  0
   10.7978   14.5891   19.2977 C   0  0  0  0  0  0  0  0  0  0  0  0
    8.8932   15.3948   20.9087 C   0  0  1  0  0  0  0  0  0  0  0  0
    8.1909   15.3755   22.2020 O   0  0  0  0  0  0  0  0  0  0  0  0
    7.3716   14.3298   22.5013 C   0  0  0  0  0  0  0  0  0  0  0  0
    7.2994   13.3123   21.8153 O   0  0  0  0  0  0  0  0  0  0  0  0
    6.4115   14.5061   23.7130 C   0  0  0  0  0  0  0  0  0  0  0  0
    6.0206   13.1360   24.3228 C   0  0  0  0  0  0  0  0  0  0  0  0
    7.0820   12.4953   25.2325 C   0  0  0  0  0  0  0  0  0  0  0  0
    7.7520   13.5090   26.1018 N   0  0  0  0  0  0  0  0  0  0  0  0
    9.3158   13.9516   25.6492 S   0  0  0  0  0  0  0  0  0  0  0  0
    9.6146   15.1707   26.3632 O   0  0  0  0  0  0  0  0  0  0  0  0
    9.3468   13.8823   24.2153 O   0  0  0  0  0  0  0  0  0  0  0  0
   10.3691   12.7830   26.1983 N   0  0  0  0  0  0  0  0  0  0  0  0
   10.4672   11.5546   25.3663 C   0  0  0  0  0  0  0  0  0  0  0  0
   11.8889   11.0264   25.4172 C   0  0  0  0  0  0  0  0  0  0  0  0
   12.8282   12.0254   24.8226 C   0  0  0  0  0  0  0  0  0  0  0  0
   12.8075   13.2520   25.6812 C   0  0  0  0  0  0  0  0  0  0  0  0
   11.6746   13.3256   26.6947 C   0  0  0  0  0  0  0  0  0  0  0  0
    6.8815   14.7290   26.2292 C   0  0  0  0  0  0  0  0  0  0  0  0
    6.7778   15.4475   24.8661 C   0  0  0  0  0  0  0  0  0  0  0  0
    9.0520   16.7962   20.3331 C   0  0  0  0  0  0  0  0  0  0  0  0
    9.6428   17.0082   19.2825 O   0  0  0  0  0  0  0  0  0  0  0  0
    8.4106   17.7649   21.0155 O   0  0  0  0  0  0  0  0  0  0  0  0
    8.1644   18.9285   20.2145 C   0  0  0  0  0  0  0  0  0  0  0  0
  1  2  1  0
  2  3  1  0
  3  4  1  0
  4  5  1  6
  4  6  1  0
  6  7  1  1
  7  8  1  0
  8  9  2  0
  8 10  1  0
 10 11  1  0
 11 12  1  0
 12 13  1  0
 13 14  1  0
 14 15  2  0
 14 16  2  0
 14 17  1  0
 17 18  1  0
 18 19  1  0
 19 20  1  0
 20 21  1  0
 21 22  1  0
 13 23  1  0
 23 24  1  0
  6 25  1  0
 25 26  2  0
 25 27  1  0
 27 28  1  0
 24 10  1  0
 22 17  1  0
M  END
>  <energy_score>  (1123) 
-27.673318

>  <inchikey>  (1123) 
None

>  <smiles>  (1123) 
None

>  <ref_pdb>  (1123) 
A4706a

>  <alias>  (1123) 
None

>  <HIPPO Pose ID>  (1123) 
500361

>  <name>  (1123) 
P500361

>  <HIPPO Compound ID>  (1123) 
314675

>  <ref_mols>  (1123) 
A4706a,A0875a

>  <distance_score>  (1123) 
1.436501

>  <inspiration_score>  (1123) 
None

$$$$
P500363
     RDKit          3D

 28 30  0  0  0  0  0  0  0  0999 V2000
   11.2081   15.1148   18.3435 C   0  0  0  0  0  0  0  0  0  0  0  0
   11.4193   15.1074   19.7356 O   0  0  0  0  0  0  0  0  0  0  0  0
   10.4317   15.7775   20.3968 C   0  0  0  0  0  0  0  0  0  0  0  0
    9.7871   16.7079   19.9379 O   0  0  0  0  0  0  0  0  0  0  0  0
   10.1888   15.1158   21.7485 C   0  0  2  0  0  0  0  0  0  0  0  0
   11.0593   13.9222   21.8419 N   0  0  0  0  0  0  0  0  0  0  0  0
    8.7201   14.7564   21.9989 C   0  0  0  0  0  0  0  0  0  0  0  0
    8.5497   13.5779   22.8278 O   0  0  0  0  0  0  0  0  0  0  0  0
    7.2432   13.2810   23.1440 C   0  0  0  0  0  0  0  0  0  0  0  0
    6.3578   12.9425   22.3803 O   0  0  0  0  0  0  0  0  0  0  0  0
    7.1175   13.3431   24.5960 C   0  0  0  0  0  0  0  0  0  0  0  0
    7.1865   11.9577   25.2020 C   0  0  0  0  0  0  0  0  0  0  0  0
    7.5098   12.1051   26.6721 C   0  0  0  0  0  0  0  0  0  0  0  0
    7.8692   13.5086   26.9654 N   0  0  0  0  0  0  0  0  0  0  0  0
    9.4186   14.1625   26.7267 S   0  0  0  0  0  0  0  0  0  0  0  0
    9.2362   15.5336   26.2931 O   0  0  0  0  0  0  0  0  0  0  0  0
   10.2313   13.8654   27.8750 O   0  0  0  0  0  0  0  0  0  0  0  0
   10.2171   13.4305   25.4359 N   0  0  0  0  0  0  0  0  0  0  0  0
   11.3597   14.2980   25.0418 C   0  0  0  0  0  0  0  0  0  0  0  0
   12.4999   13.5504   24.3945 C   0  0  0  0  0  0  0  0  0  0  0  0
   13.1026   12.5246   25.3045 C   0  0  0  0  0  0  0  0  0  0  0  0
   11.9795   11.7253   25.8827 C   0  0  0  0  0  0  0  0  0  0  0  0
   10.5715   12.0120   25.3655 C   0  0  0  0  0  0  0  0  0  0  0  0
    6.6788   14.4150   26.7401 C   0  0  0  0  0  0  0  0  0  0  0  0
    6.1197   14.2146   25.3165 C   0  0  0  0  0  0  0  0  0  0  0  0
    7.8412   14.6682   20.7859 C   0  0  0  0  0  0  0  0  0  0  0  0
    6.8226   15.4702   21.4351 O   0  0  0  0  0  0  0  0  0  0  0  0
    7.8399   15.9865   22.3129 C   0  0  0  0  0  0  0  0  0  0  0  0
  1  2  1  0
  2  3  1  0
  3  4  2  0
  3  5  1  0
  5  6  1  6
  5  7  1  0
  7  8  1  0
  8  9  1  0
  9 10  2  0
  9 11  1  0
 11 12  1  0
 12 13  1  0
 13 14  1  0
 14 15  1  0
 15 16  2  0
 15 17  2  0
 15 18  1  0
 18 19  1  0
 19 20  1  0
 20 21  1  0
 21 22  1  0
 22 23  1  0
 14 24  1  0
 24 25  1  0
  7 26  1  0
 26 27  1  0
 27 28  1  0
 28  7  1  0
 25 11  1  0
 23 18  1  0
M  END
>  <energy_score>  (1124) 
-13.358066

>  <inchikey>  (1124) 
None

>  <smiles>  (1124) 
None

>  <ref_pdb>  (1124) 
A4706a

>  <alias>  (1124) 
None

>  <HIPPO Pose ID>  (1124) 
500363

>  <name>  (1124) 
P500363

>  <HIPPO Compound ID>  (1124) 
314678

>  <ref_mols>  (1124) 
A4706a,A0875a

>  <distance_score>  (1124) 
1.471283

>  <inspiration_score>  (1124) 
None

$$$$
P500365
     RDKit          3D

 28 30  0  0  0  0  0  0  0  0999 V2000
    4.7068   15.1244   21.8338 C   0  0  0  0  0  0  0  0  0  0  0  0
    5.5911   15.6572   22.8017 O   0  0  0  0  0  0  0  0  0  0  0  0
    6.9098   16.0136   22.3345 C   0  0  0  0  0  0  0  0  0  0  0  0
    7.8224   14.8077   22.0417 C   0  0  2  0  0  0  0  0  0  0  0  0
    7.8272   14.0254   23.2694 O   0  0  0  0  0  0  0  0  0  0  0  0
    6.7053   13.2890   23.4040 C   0  0  0  0  0  0  0  0  0  0  0  0
    6.1318   12.8001   22.4364 O   0  0  0  0  0  0  0  0  0  0  0  0
    6.2055   13.0279   24.8033 C   0  0  0  0  0  0  0  0  0  0  0  0
    6.8296   11.7428   25.3402 C   0  0  0  0  0  0  0  0  0  0  0  0
    8.2578   11.9854   25.7648 C   0  0  0  0  0  0  0  0  0  0  0  0
    8.3678   13.1375   26.6691 N   0  0  0  0  0  0  0  0  0  0  0  0
    9.6347   14.2043   26.4457 S   0  0  0  0  0  0  0  0  0  0  0  0
    9.6778   15.0226   27.6302 O   0  0  0  0  0  0  0  0  0  0  0  0
    9.5062   14.8248   25.1617 O   0  0  0  0  0  0  0  0  0  0  0  0
   10.9957   13.1699   26.4456 N   0  0  0  0  0  0  0  0  0  0  0  0
   11.5755   12.9347   25.0954 C   0  0  0  0  0  0  0  0  0  0  0  0
   12.6921   11.9125   25.2182 C   0  0  0  0  0  0  0  0  0  0  0  0
   13.8072   12.3535   26.1330 C   0  0  0  0  0  0  0  0  0  0  0  0
   13.2550   12.7879   27.4707 C   0  0  0  0  0  0  0  0  0  0  0  0
   12.0227   13.6860   27.3897 C   0  0  0  0  0  0  0  0  0  0  0  0
    7.0851   13.8032   27.0184 C   0  0  0  0  0  0  0  0  0  0  0  0
    6.3495   14.2128   25.7565 C   0  0  0  0  0  0  0  0  0  0  0  0
    9.2346   15.0834   21.5205 C   0  0  0  0  0  0  0  0  0  0  0  0
    9.4821   15.0510   20.1431 C   0  0  0  0  0  0  0  0  0  0  0  0
   10.7630   14.9928   19.6067 C   0  0  0  0  0  0  0  0  0  0  0  0
   11.8392   15.0167   20.4701 C   0  0  0  0  0  0  0  0  0  0  0  0
   11.6397   15.2211   21.8267 C   0  0  0  0  0  0  0  0  0  0  0  0
   10.3452   15.2854   22.3306 C   0  0  0  0  0  0  0  0  0  0  0  0
  1  2  1  0
  2  3  1  0
  4  3  1  1
  4  5  1  0
  5  6  1  0
  6  7  2  0
  6  8  1  0
  8  9  1  0
  9 10  1  0
 10 11  1  0
 11 12  1  0
 12 13  2  0
 12 14  2  0
 12 15  1  0
 15 16  1  0
 16 17  1  0
 17 18  1  0
 18 19  1  0
 19 20  1  0
 11 21  1  0
 21 22  1  0
  4 23  1  0
 23 24  2  0
 24 25  1  0
 25 26  2  0
 26 27  1  0
 27 28  2  0
 22  8  1  0
 28 23  1  0
 20 15  1  0
M  END
>  <energy_score>  (1125) 
-70.442618

>  <inchikey>  (1125) 
None

>  <smiles>  (1125) 
None

>  <ref_pdb>  (1125) 
A4706a

>  <alias>  (1125) 
None

>  <HIPPO Pose ID>  (1125) 
500365

>  <name>  (1125) 
P500365

>  <HIPPO Compound ID>  (1125) 
314679

>  <ref_mols>  (1125) 
A4706a,A0875a

>  <distance_score>  (1125) 
1.687648

>  <inspiration_score>  (1125) 
None

$$$$
P500368
     RDKit          3D

 28 31  0  0  0  0  0  0  0  0999 V2000
    4.8479   15.3991   23.4311 O   0  0  0  0  0  0  0  0  0  0  0  0
    5.8052   15.0917   24.1260 C   0  0  0  0  0  0  0  0  0  0  0  0
    7.1072   15.3152   23.8120 O   0  0  0  0  0  0  0  0  0  0  0  0
    7.3648   15.6033   22.4400 C   0  0  2  0  0  0  0  0  0  0  0  0
    6.9506   14.4551   21.5287 C   0  0  0  0  0  0  0  0  0  0  0  0
    7.8380   14.4297   20.3899 O   0  0  0  0  0  0  0  0  0  0  0  0
    8.9887   14.9838   20.8529 C   0  0  0  0  0  0  0  0  0  0  0  0
   10.2253   14.7597   20.3028 C   0  0  0  0  0  0  0  0  0  0  0  0
   11.2778   14.9289   21.1865 C   0  0  0  0  0  0  0  0  0  0  0  0
   11.6849   13.2845   22.1031 Br  0  0  0  0  0  0  0  0  0  0  0  0
   11.1835   15.8102   22.2388 C   0  0  0  0  0  0  0  0  0  0  0  0
    9.9329   15.9022   22.8041 C   0  0  0  0  0  0  0  0  0  0  0  0
    8.8151   15.5648   22.0857 C   0  0  0  0  0  0  0  0  0  0  0  0
    5.6842   14.3016   25.4209 C   0  0  0  0  0  0  0  0  0  0  0  0
    5.9879   12.8186   25.0984 C   0  0  0  0  0  0  0  0  0  0  0  0
    6.9973   12.0862   25.9708 C   0  0  0  0  0  0  0  0  0  0  0  0
    7.9808   13.0130   26.5431 N   0  0  0  0  0  0  0  0  0  0  0  0
    9.2309   13.5821   25.5619 S   0  0  0  0  0  0  0  0  0  0  0  0
    9.6435   14.8624   26.0872 O   0  0  0  0  0  0  0  0  0  0  0  0
    8.8651   13.3889   24.1837 O   0  0  0  0  0  0  0  0  0  0  0  0
   10.4768   12.4648   25.9174 N   0  0  0  0  0  0  0  0  0  0  0  0
   10.4341   11.2752   25.0179 C   0  0  0  0  0  0  0  0  0  0  0  0
   11.5982   10.3279   25.2468 C   0  0  0  0  0  0  0  0  0  0  0  0
   12.9618   11.0562   25.3728 C   0  0  0  0  0  0  0  0  0  0  0  0
   12.9173   12.2073   26.3518 C   0  0  0  0  0  0  0  0  0  0  0  0
   11.7952   13.1572   25.9835 C   0  0  0  0  0  0  0  0  0  0  0  0
    7.2987   14.0181   27.3886 C   0  0  0  0  0  0  0  0  0  0  0  0
    6.4876   14.9743   26.5390 C   0  0  0  0  0  0  0  0  0  0  0  0
  1  2  2  0
  2  3  1  0
  4  3  1  1
  4  5  1  0
  5  6  1  0
  6  7  1  0
  7  8  2  0
  8  9  1  0
  9 10  1  0
  9 11  2  0
 11 12  1  0
 12 13  2  0
  2 14  1  0
 14 15  1  0
 15 16  1  0
 16 17  1  0
 17 18  1  0
 18 19  2  0
 18 20  2  0
 18 21  1  0
 21 22  1  0
 22 23  1  0
 23 24  1  0
 24 25  1  0
 25 26  1  0
 17 27  1  0
 27 28  1  0
 13  4  1  0
 28 14  1  0
 13  7  1  0
 26 21  1  0
M  END
>  <energy_score>  (1126) 
-2.435088

>  <inchikey>  (1126) 
None

>  <smiles>  (1126) 
None

>  <ref_pdb>  (1126) 
A4706a

>  <alias>  (1126) 
None

>  <HIPPO Pose ID>  (1126) 
500368

>  <name>  (1126) 
P500368

>  <HIPPO Compound ID>  (1126) 
314681

>  <ref_mols>  (1126) 
A0875a,A4706a

>  <distance_score>  (1126) 
1.884681

>  <inspiration_score>  (1126) 
None

$$$$
P500369
     RDKit          3D

 28 31  0  0  0  0  0  0  0  0999 V2000
    6.3128   12.9963   22.4874 O   0  0  0  0  0  0  0  0  0  0  0  0
    6.4311   14.0515   23.1089 C   0  0  0  0  0  0  0  0  0  0  0  0
    7.0987   15.1345   22.6160 O   0  0  0  0  0  0  0  0  0  0  0  0
    7.8884   14.8189   21.4421 C   0  0  0  0  0  0  0  0  0  0  0  0
    8.7236   16.0205   20.9299 C   0  0  2  0  0  0  0  0  0  0  0  0
    9.5661   15.7097   19.6507 C   0  0  0  0  0  0  0  0  0  0  0  0
   10.5433   14.6812   19.8373 O   0  0  0  0  0  0  0  0  0  0  0  0
   11.0001   14.7195   21.1023 C   0  0  0  0  0  0  0  0  0  0  0  0
   11.7471   13.7316   21.6478 C   0  0  0  0  0  0  0  0  0  0  0  0
   12.0460   13.9987   23.2883 S   0  0  0  0  0  0  0  0  0  0  0  0
   11.1545   15.4221   23.3045 C   0  0  0  0  0  0  0  0  0  0  0  0
   10.5918   15.6191   22.0914 C   0  0  0  0  0  0  0  0  0  0  0  0
    9.6085   16.4982   21.9341 O   0  0  0  0  0  0  0  0  0  0  0  0
    5.7957   14.2680   24.4896 C   0  0  0  0  0  0  0  0  0  0  0  0
    5.6038   12.9202   25.2199 C   0  0  0  0  0  0  0  0  0  0  0  0
    6.8763   12.3019   25.8129 C   0  0  0  0  0  0  0  0  0  0  0  0
    7.7969   13.3428   26.3451 N   0  0  0  0  0  0  0  0  0  0  0  0
    9.1819   13.6406   25.4227 S   0  0  0  0  0  0  0  0  0  0  0  0
    8.8348   13.3337   24.0618 O   0  0  0  0  0  0  0  0  0  0  0  0
    9.6742   14.9370   25.8176 O   0  0  0  0  0  0  0  0  0  0  0  0
   10.2836   12.4448   25.9635 N   0  0  0  0  0  0  0  0  0  0  0  0
   11.5499   13.0609   26.4700 C   0  0  0  0  0  0  0  0  0  0  0  0
   12.7740   12.1630   26.5289 C   0  0  0  0  0  0  0  0  0  0  0  0
   12.8286   11.1280   25.4265 C   0  0  0  0  0  0  0  0  0  0  0  0
   11.5043   10.3623   25.2592 C   0  0  0  0  0  0  0  0  0  0  0  0
   10.3574   11.3077   25.0010 C   0  0  0  0  0  0  0  0  0  0  0  0
    7.0567   14.5914   26.6932 C   0  0  0  0  0  0  0  0  0  0  0  0
    6.5032   15.2588   25.4267 C   0  0  0  0  0  0  0  0  0  0  0  0
  1  2  2  0
  2  3  1  0
  3  4  1  0
  5  4  1  1
  5  6  1  0
  6  7  1  0
  7  8  1  0
  8  9  2  0
  9 10  1  0
 10 11  1  0
 11 12  2  0
 12 13  1  0
  2 14  1  0
 14 15  1  0
 15 16  1  0
 16 17  1  0
 17 18  1  0
 18 19  2  0
 18 20  2  0
 18 21  1  0
 21 22  1  0
 22 23  1  0
 23 24  1  0
 24 25  1  0
 25 26  1  0
 17 27  1  0
 27 28  1  0
 13  5  1  0
 28 14  1  0
 12  8  1  0
 26 21  1  0
M  END
>  <energy_score>  (1127) 
-61.940827

>  <inchikey>  (1127) 
None

>  <smiles>  (1127) 
None

>  <ref_pdb>  (1127) 
A4706a

>  <alias>  (1127) 
None

>  <HIPPO Pose ID>  (1127) 
500369

>  <name>  (1127) 
P500369

>  <HIPPO Compound ID>  (1127) 
314682

>  <ref_mols>  (1127) 
A4706a,A0875a

>  <distance_score>  (1127) 
1.561574

>  <inspiration_score>  (1127) 
None

$$$$
P500371
     RDKit          3D

 28 30  0  0  0  0  0  0  0  0999 V2000
   12.1405   13.9479   19.6673 C   0  0  0  0  0  0  0  0  0  0  0  0
   11.0782   14.2180   18.7755 O   0  0  0  0  0  0  0  0  0  0  0  0
   10.0158   14.9732   19.1135 C   0  0  0  0  0  0  0  0  0  0  0  0
    9.3036   15.4291   18.2194 O   0  0  0  0  0  0  0  0  0  0  0  0
    9.6422   15.2184   20.5691 C   0  0  1  0  0  0  0  0  0  0  0  0
    8.4943   14.3532   21.1166 C   0  0  0  0  0  0  0  0  0  0  0  0
    7.8531   14.7789   22.3657 O   0  0  0  0  0  0  0  0  0  0  0  0
    6.9674   13.8640   22.8381 C   0  0  0  0  0  0  0  0  0  0  0  0
    6.5968   12.9086   22.1602 O   0  0  0  0  0  0  0  0  0  0  0  0
    6.4271   14.0322   24.2623 C   0  0  0  0  0  0  0  0  0  0  0  0
    6.4595   12.6787   25.0226 C   0  0  0  0  0  0  0  0  0  0  0  0
    7.7937   12.3114   25.6878 C   0  0  0  0  0  0  0  0  0  0  0  0
    8.5199   13.5118   26.1996 N   0  0  0  0  0  0  0  0  0  0  0  0
    9.8729   13.9645   25.2991 S   0  0  0  0  0  0  0  0  0  0  0  0
   10.2349   15.3104   25.6709 O   0  0  0  0  0  0  0  0  0  0  0  0
    9.6093   13.6081   23.9308 O   0  0  0  0  0  0  0  0  0  0  0  0
   11.1189   12.9420   25.8513 N   0  0  0  0  0  0  0  0  0  0  0  0
   11.8122   13.5101   27.0433 C   0  0  0  0  0  0  0  0  0  0  0  0
   13.0775   12.7412   27.4461 C   0  0  0  0  0  0  0  0  0  0  0  0
   13.9590   12.2699   26.3084 C   0  0  0  0  0  0  0  0  0  0  0  0
   13.1068   11.6688   25.2230 C   0  0  0  0  0  0  0  0  0  0  0  0
   12.0819   12.6842   24.7493 C   0  0  0  0  0  0  0  0  0  0  0  0
    7.5768   14.6397   26.4551 C   0  0  0  0  0  0  0  0  0  0  0  0
    6.9875   15.1537   25.1374 C   0  0  0  0  0  0  0  0  0  0  0  0
   10.7821   15.3425   21.5365 C   0  0  0  0  0  0  0  0  0  0  0  0
   10.3003   16.3767   22.4356 C   0  0  0  0  0  0  0  0  0  0  0  0
    9.5378   17.3110   21.4903 C   0  0  0  0  0  0  0  0  0  0  0  0
    9.0957   16.5373   20.4258 O   0  0  0  0  0  0  0  0  0  0  0  0
  1  2  1  0
  2  3  1  0
  3  4  2  0
  3  5  1  0
  5  6  1  1
  6  7  1  0
  7  8  1  0
  8  9  2  0
  8 10  1  0
 10 11  1  0
 11 12  1  0
 12 13  1  0
 13 14  1  0
 14 15  2  0
 14 16  2  0
 14 17  1  0
 17 18  1  0
 18 19  1  0
 19 20  1  0
 20 21  1  0
 21 22  1  0
 13 23  1  0
 23 24  1  0
  5 25  1  0
 25 26  1  0
 26 27  1  0
 27 28  1  0
 28  5  1  0
 24 10  1  0
 22 17  1  0
M  END
>  <energy_score>  (1128) 
-42.098536

>  <inchikey>  (1128) 
None

>  <smiles>  (1128) 
None

>  <ref_pdb>  (1128) 
A4706a

>  <alias>  (1128) 
None

>  <HIPPO Pose ID>  (1128) 
500371

>  <name>  (1128) 
P500371

>  <HIPPO Compound ID>  (1128) 
314683

>  <ref_mols>  (1128) 
A4706a,A0875a

>  <distance_score>  (1128) 
1.573861

>  <inspiration_score>  (1128) 
None

$$$$
P500373
     RDKit          3D

 28 30  0  0  0  0  0  0  0  0999 V2000
    7.2937   15.7881   22.8768 O   0  0  0  0  0  0  0  0  0  0  0  0
    7.5804   14.6680   23.2624 C   0  0  0  0  0  0  0  0  0  0  0  0
    8.7252   14.0255   22.9803 O   0  0  0  0  0  0  0  0  0  0  0  0
    9.7756   14.4576   22.0596 C   0  0  1  0  0  0  0  0  0  0  0  0
   10.9032   13.4474   22.3328 C   0  0  0  0  0  0  0  0  0  0  0  0
   11.5782   13.7734   23.4659 F   0  0  0  0  0  0  0  0  0  0  0  0
   11.8474   13.3154   21.3966 F   0  0  0  0  0  0  0  0  0  0  0  0
   10.3784   12.2060   22.5393 F   0  0  0  0  0  0  0  0  0  0  0  0
    9.1581   14.3652   20.6706 C   0  0  0  0  0  0  0  0  0  0  0  0
    9.7180   15.3466   19.6641 C   0  0  0  0  0  0  0  0  0  0  0  0
   11.1898   15.4066   19.8830 C   0  0  0  0  0  0  0  0  0  0  0  0
   11.4952   15.9338   21.1863 O   0  0  0  0  0  0  0  0  0  0  0  0
   10.4404   15.8143   22.1735 C   0  0  0  0  0  0  0  0  0  0  0  0
    6.6290   13.7539   24.0506 C   0  0  0  0  0  0  0  0  0  0  0  0
    7.2189   12.4098   24.5314 C   0  0  0  0  0  0  0  0  0  0  0  0
    7.5846   12.3754   26.0025 C   0  0  0  0  0  0  0  0  0  0  0  0
    7.9817   13.6835   26.4909 N   0  0  0  0  0  0  0  0  0  0  0  0
    9.5152   14.3281   26.4102 S   0  0  0  0  0  0  0  0  0  0  0  0
    9.7536   14.8509   25.0913 O   0  0  0  0  0  0  0  0  0  0  0  0
    9.5803   15.2310   27.5328 O   0  0  0  0  0  0  0  0  0  0  0  0
   10.6422   13.0730   26.7020 N   0  0  0  0  0  0  0  0  0  0  0  0
   11.8640   13.7039   27.2761 C   0  0  0  0  0  0  0  0  0  0  0  0
   13.0705   12.7920   27.3634 C   0  0  0  0  0  0  0  0  0  0  0  0
   13.4778   12.3483   25.9970 C   0  0  0  0  0  0  0  0  0  0  0  0
   12.3093   11.7525   25.2625 C   0  0  0  0  0  0  0  0  0  0  0  0
   10.8679   12.1480   25.5727 C   0  0  0  0  0  0  0  0  0  0  0  0
    6.9019   14.7088   26.4058 C   0  0  0  0  0  0  0  0  0  0  0  0
    5.9668   14.4776   25.2213 C   0  0  0  0  0  0  0  0  0  0  0  0
  1  2  2  0
  2  3  1  0
  4  3  1  1
  4  5  1  0
  5  6  1  0
  5  7  1  0
  5  8  1  0
  4  9  1  0
  9 10  1  0
 10 11  1  0
 11 12  1  0
 12 13  1  0
  2 14  1  0
 14 15  1  0
 15 16  1  0
 16 17  1  0
 17 18  1  0
 18 19  2  0
 18 20  2  0
 18 21  1  0
 21 22  1  0
 22 23  1  0
 23 24  1  0
 24 25  1  0
 25 26  1  0
 17 27  1  0
 27 28  1  0
 13  4  1  0
 28 14  1  0
 26 21  1  0
M  END
>  <energy_score>  (1129) 
-8.685983

>  <inchikey>  (1129) 
None

>  <smiles>  (1129) 
None

>  <ref_pdb>  (1129) 
A4706a

>  <alias>  (1129) 
None

>  <HIPPO Pose ID>  (1129) 
500373

>  <name>  (1129) 
P500373

>  <HIPPO Compound ID>  (1129) 
314685

>  <ref_mols>  (1129) 
A4706a,A0875a

>  <distance_score>  (1129) 
1.829935

>  <inspiration_score>  (1129) 
None

$$$$
P500374
     RDKit          3D

 28 31  0  0  0  0  0  0  0  0999 V2000
    5.5466   16.1199   23.1616 O   0  0  0  0  0  0  0  0  0  0  0  0
    6.3382   15.5310   23.8831 C   0  0  0  0  0  0  0  0  0  0  0  0
    7.6843   15.5229   23.6950 O   0  0  0  0  0  0  0  0  0  0  0  0
    8.1869   15.7850   22.3534 C   0  0  2  0  0  0  0  0  0  0  0  0
    7.6266   14.7009   21.4279 C   0  0  0  0  0  0  0  0  0  0  0  0
    8.1459   14.7021   20.1064 O   0  0  0  0  0  0  0  0  0  0  0  0
    9.3269   15.4532   19.8323 C   0  0  0  0  0  0  0  0  0  0  0  0
   10.2083   15.2366   20.9780 C   0  0  0  0  0  0  0  0  0  0  0  0
   11.3271   14.4606   20.8422 C   0  0  0  0  0  0  0  0  0  0  0  0
   11.8803   14.0031   22.0026 C   0  0  0  0  0  0  0  0  0  0  0  0
   11.6427   14.6217   23.2032 C   0  0  0  0  0  0  0  0  0  0  0  0
   10.5544   15.4533   23.3229 C   0  0  0  0  0  0  0  0  0  0  0  0
    9.7085   15.5816   22.2431 C   0  0  0  0  0  0  0  0  0  0  0  0
    5.8961   14.6404   25.0544 C   0  0  0  0  0  0  0  0  0  0  0  0
    6.0422   13.1391   24.6936 C   0  0  0  0  0  0  0  0  0  0  0  0
    6.7793   12.2217   25.6762 C   0  0  0  0  0  0  0  0  0  0  0  0
    7.7569   12.9677   26.4935 N   0  0  0  0  0  0  0  0  0  0  0  0
    9.1404   13.5147   25.6936 S   0  0  0  0  0  0  0  0  0  0  0  0
    8.8957   13.3958   24.2807 O   0  0  0  0  0  0  0  0  0  0  0  0
    9.5442   14.7456   26.3326 O   0  0  0  0  0  0  0  0  0  0  0  0
   10.3286   12.3500   26.0721 N   0  0  0  0  0  0  0  0  0  0  0  0
   10.4165   11.3202   24.9973 C   0  0  0  0  0  0  0  0  0  0  0  0
   11.5444   10.3497   25.2467 C   0  0  0  0  0  0  0  0  0  0  0  0
   12.8737   11.1252   25.3857 C   0  0  0  0  0  0  0  0  0  0  0  0
   12.8397   12.1384   26.5096 C   0  0  0  0  0  0  0  0  0  0  0  0
   11.6066   13.0213   26.4722 C   0  0  0  0  0  0  0  0  0  0  0  0
    7.0348   14.0063   27.2740 C   0  0  0  0  0  0  0  0  0  0  0  0
    6.5181   15.1160   26.3698 C   0  0  0  0  0  0  0  0  0  0  0  0
  1  2  2  0
  2  3  1  0
  4  3  1  1
  4  5  1  0
  5  6  1  0
  6  7  1  0
  7  8  1  0
  8  9  2  0
  9 10  1  0
 10 11  2  0
 11 12  1  0
 12 13  2  0
  2 14  1  0
 14 15  1  0
 15 16  1  0
 16 17  1  0
 17 18  1  0
 18 19  2  0
 18 20  2  0
 18 21  1  0
 21 22  1  0
 22 23  1  0
 23 24  1  0
 24 25  1  0
 25 26  1  0
 17 27  1  0
 27 28  1  0
 13  4  1  0
 28 14  1  0
 13  8  1  0
 26 21  1  0
M  END
>  <energy_score>  (1130) 
-21.402914

>  <inchikey>  (1130) 
None

>  <smiles>  (1130) 
None

>  <ref_pdb>  (1130) 
A4706a

>  <alias>  (1130) 
None

>  <HIPPO Pose ID>  (1130) 
500374

>  <name>  (1130) 
P500374

>  <HIPPO Compound ID>  (1130) 
314688

>  <ref_mols>  (1130) 
A4706a,A0875a

>  <distance_score>  (1130) 
1.832479

>  <inspiration_score>  (1130) 
None

$$$$
P500379
     RDKit          3D

 28 30  0  0  0  0  0  0  0  0999 V2000
    9.4649   10.7200   23.2043 C   0  0  0  0  0  0  0  0  0  0  0  0
    9.0915   12.0827   22.9524 O   0  0  0  0  0  0  0  0  0  0  0  0
   10.0561   12.9772   22.5816 C   0  0  0  0  0  0  0  0  0  0  0  0
   11.2489   12.7073   22.6180 O   0  0  0  0  0  0  0  0  0  0  0  0
    9.4883   14.3598   22.1629 C   0  0  2  0  0  0  0  0  0  0  0  0
    8.3430   14.7468   22.9984 O   0  0  0  0  0  0  0  0  0  0  0  0
    7.2316   13.9673   23.0378 C   0  0  0  0  0  0  0  0  0  0  0  0
    6.8864   13.1957   22.1424 O   0  0  0  0  0  0  0  0  0  0  0  0
    6.4381   13.9979   24.3444 C   0  0  0  0  0  0  0  0  0  0  0  0
    6.5298   12.6207   25.0375 C   0  0  0  0  0  0  0  0  0  0  0  0
    7.7722   12.4254   25.9060 C   0  0  0  0  0  0  0  0  0  0  0  0
    8.1411   13.6263   26.6707 N   0  0  0  0  0  0  0  0  0  0  0  0
    9.6482   14.3506   26.4567 S   0  0  0  0  0  0  0  0  0  0  0  0
    9.7884   14.7194   25.0775 O   0  0  0  0  0  0  0  0  0  0  0  0
    9.7321   15.3637   27.4769 O   0  0  0  0  0  0  0  0  0  0  0  0
   10.8285   13.1601   26.7988 N   0  0  0  0  0  0  0  0  0  0  0  0
   11.9642   13.7704   27.5580 C   0  0  0  0  0  0  0  0  0  0  0  0
   13.2117   12.8846   27.5937 C   0  0  0  0  0  0  0  0  0  0  0  0
   13.7157   12.4626   26.2294 C   0  0  0  0  0  0  0  0  0  0  0  0
   12.6746   12.7130   25.1630 C   0  0  0  0  0  0  0  0  0  0  0  0
   11.2784   12.3753   25.6270 C   0  0  0  0  0  0  0  0  0  0  0  0
    7.0301   14.6199   26.7356 C   0  0  0  0  0  0  0  0  0  0  0  0
    6.6965   15.1357   25.3340 C   0  0  0  0  0  0  0  0  0  0  0  0
    9.1359   14.3326   20.6733 C   0  0  0  0  0  0  0  0  0  0  0  0
    9.7360   15.4278   19.8116 C   0  0  0  0  0  0  0  0  0  0  0  0
    9.5893   16.6953   20.6029 C   0  0  0  0  0  0  0  0  0  0  0  0
   10.5852   16.6433   21.6509 N   0  0  0  0  0  0  0  0  0  0  0  0
   10.6800   15.3600   22.3458 C   0  0  0  0  0  0  0  0  0  0  0  0
  1  2  1  0
  2  3  1  0
  3  4  2  0
  3  5  1  0
  5  6  1  1
  6  7  1  0
  7  8  2  0
  7  9  1  0
  9 10  1  0
 10 11  1  0
 11 12  1  0
 12 13  1  0
 13 14  2  0
 13 15  2  0
 13 16  1  0
 16 17  1  0
 17 18  1  0
 18 19  1  0
 19 20  1  0
 20 21  1  0
 12 22  1  0
 22 23  1  0
  5 24  1  0
 24 25  1  0
 25 26  1  0
 26 27  1  0
 27 28  1  0
 28  5  1  0
 23  9  1  0
 21 16  1  0
M  END
>  <energy_score>  (1131) 
-33.564912

>  <inchikey>  (1131) 
None

>  <smiles>  (1131) 
None

>  <ref_pdb>  (1131) 
A4706a

>  <alias>  (1131) 
None

>  <HIPPO Pose ID>  (1131) 
500379

>  <name>  (1131) 
P500379

>  <HIPPO Compound ID>  (1131) 
314693

>  <ref_mols>  (1131) 
A4706a,A0875a

>  <distance_score>  (1131) 
1.963641

>  <inspiration_score>  (1131) 
None

$$$$
P500380
     RDKit          3D

 28 31  0  0  0  0  0  0  0  0999 V2000
   12.1069   14.0124   20.3125 C   0  0  0  0  0  0  0  0  0  0  0  0
   11.0179   14.9105   19.8394 C   0  0  0  0  0  0  0  0  0  0  0  0
   11.3086   15.3037   18.4308 C   0  0  0  0  0  0  0  0  0  0  0  0
    9.7103   14.3497   19.8030 O   0  0  0  0  0  0  0  0  0  0  0  0
    9.3149   14.4344   21.1184 C   0  0  2  0  0  0  0  0  0  0  0  0
    7.8976   14.4352   21.6375 C   0  0  0  0  0  0  0  0  0  0  0  0
    8.0107   15.4678   22.7916 C   0  0  0  0  0  0  0  0  0  0  0  0
    7.4228   15.1260   24.0442 O   0  0  0  0  0  0  0  0  0  0  0  0
    6.1654   14.6246   24.0478 C   0  0  0  0  0  0  0  0  0  0  0  0
    5.4656   14.4713   23.0554 O   0  0  0  0  0  0  0  0  0  0  0  0
    5.7202   14.1889   25.4377 C   0  0  0  0  0  0  0  0  0  0  0  0
    5.6857   12.6584   25.5387 C   0  0  0  0  0  0  0  0  0  0  0  0
    7.0275   11.9652   25.7779 C   0  0  0  0  0  0  0  0  0  0  0  0
    7.9979   12.8510   26.4567 N   0  0  0  0  0  0  0  0  0  0  0  0
    9.2836   13.4362   25.5449 S   0  0  0  0  0  0  0  0  0  0  0  0
    9.6542   14.7328   26.0587 O   0  0  0  0  0  0  0  0  0  0  0  0
    8.9951   13.1882   24.1554 O   0  0  0  0  0  0  0  0  0  0  0  0
   10.5535   12.3636   25.9142 N   0  0  0  0  0  0  0  0  0  0  0  0
   11.8600   13.0872   25.9045 C   0  0  0  0  0  0  0  0  0  0  0  0
   12.9895   12.1660   26.3230 C   0  0  0  0  0  0  0  0  0  0  0  0
   13.0515   10.9738   25.3916 C   0  0  0  0  0  0  0  0  0  0  0  0
   11.6862   10.2436   25.2511 C   0  0  0  0  0  0  0  0  0  0  0  0
   10.5346   11.1938   24.9797 C   0  0  0  0  0  0  0  0  0  0  0  0
    7.3437   13.8254   27.3649 C   0  0  0  0  0  0  0  0  0  0  0  0
    6.4866   14.8245   26.6003 C   0  0  0  0  0  0  0  0  0  0  0  0
    9.5597   15.6719   22.8815 C   0  0  0  0  0  0  0  0  0  0  0  0
    9.7941   15.8215   21.4279 C   0  0  1  0  0  0  0  0  0  0  0  0
   11.0587   15.9302   20.8512 O   0  0  0  0  0  0  0  0  0  0  0  0
  1  2  1  0
  2  3  1  0
  2  4  1  0
  4  5  1  0
  5  6  1  6
  6  7  1  0
  7  8  1  0
  8  9  1  0
  9 10  2  0
  9 11  1  0
 11 12  1  0
 12 13  1  0
 13 14  1  0
 14 15  1  0
 15 16  2  0
 15 17  2  0
 15 18  1  0
 18 19  1  0
 19 20  1  0
 20 21  1  0
 21 22  1  0
 22 23  1  0
 14 24  1  0
 24 25  1  0
  7 26  1  0
 27 26  1  1
 27 28  1  0
 28  2  1  0
 27  5  1  0
 25 11  1  0
 23 18  1  0
M  END
>  <energy_score>  (1132) 
-56.57509

>  <inchikey>  (1132) 
None

>  <smiles>  (1132) 
None

>  <ref_pdb>  (1132) 
A4706a

>  <alias>  (1132) 
None

>  <HIPPO Pose ID>  (1132) 
500380

>  <name>  (1132) 
P500380

>  <HIPPO Compound ID>  (1132) 
314695

>  <ref_mols>  (1132) 
A0875a,A4706a

>  <distance_score>  (1132) 
1.565362

>  <inspiration_score>  (1132) 
None

$$$$
P500381
     RDKit          3D

 28 30  0  0  0  0  0  0  0  0999 V2000
   16.5800    6.0193   30.3016 C   0  0  0  0  0  0  0  0  0  0  0  0
   17.2953    7.3091   30.6863 C   0  0  0  0  0  0  0  0  0  0  0  0
   17.0434    7.6720   32.1430 C   0  0  0  0  0  0  0  0  0  0  0  0
   18.7084    7.1531   30.4873 O   0  0  0  0  0  0  0  0  0  0  0  0
   18.9715    7.8379   29.2651 C   0  0  0  0  0  0  0  0  0  0  0  0
   17.9884    8.9844   29.2945 C   0  0  1  0  0  0  0  0  0  0  0  0
   17.6832    9.6126   27.9187 C   0  0  2  0  0  0  0  0  0  0  0  0
   18.8835   10.1529   27.2580 N   0  0  0  0  0  0  0  0  0  0  0  0
   16.6081   10.7179   28.0764 C   0  0  0  0  0  0  0  0  0  0  0  0
   15.8588   10.8943   26.8492 O   0  0  0  0  0  0  0  0  0  0  0  0
   14.5826   11.3171   27.0282 C   0  0  0  0  0  0  0  0  0  0  0  0
   14.0262   11.4489   28.1123 O   0  0  0  0  0  0  0  0  0  0  0  0
   13.9137   11.7308   25.7238 C   0  0  0  0  0  0  0  0  0  0  0  0
   13.5976   13.1765   25.9589 C   0  0  0  0  0  0  0  0  0  0  0  0
   12.2028   13.4440   26.5861 C   0  0  0  0  0  0  0  0  0  0  0  0
   11.1644   13.0453   25.6331 N   0  0  0  0  0  0  0  0  0  0  0  0
    9.8675   14.0489   25.3135 S   0  0  0  0  0  0  0  0  0  0  0  0
    9.5610   14.0047   23.9054 O   0  0  0  0  0  0  0  0  0  0  0  0
   10.0932   15.2974   25.9983 O   0  0  0  0  0  0  0  0  0  0  0  0
    8.6403   13.2364   26.1537 N   0  0  0  0  0  0  0  0  0  0  0  0
    7.5106   14.1111   26.5861 C   0  0  0  0  0  0  0  0  0  0  0  0
    6.4589   14.2013   25.4935 C   0  0  0  0  0  0  0  0  0  0  0  0
    5.9667   12.8212   25.0643 C   0  0  0  0  0  0  0  0  0  0  0  0
    6.7298   11.6899   25.7444 C   0  0  0  0  0  0  0  0  0  0  0  0
    8.2239   11.9166   25.6143 C   0  0  0  0  0  0  0  0  0  0  0  0
   11.5520   12.0151   24.6859 C   0  0  0  0  0  0  0  0  0  0  0  0
   12.5902   11.0919   25.3798 C   0  0  0  0  0  0  0  0  0  0  0  0
   16.8123    8.3702   29.8443 O   0  0  0  0  0  0  0  0  0  0  0  0
  1  2  1  0
  2  3  1  0
  2  4  1  0
  4  5  1  0
  6  5  1  6
  6  7  1  0
  7  8  1  1
  7  9  1  0
  9 10  1  0
 10 11  1  0
 11 12  2  0
 11 13  1  0
 13 14  1  0
 14 15  1  0
 15 16  1  0
 16 17  1  0
 17 18  2  0
 17 19  2  0
 17 20  1  0
 20 21  1  0
 21 22  1  0
 22 23  1  0
 23 24  1  0
 24 25  1  0
 16 26  1  0
 26 27  1  0
  6 28  1  0
 28  2  1  0
 27 13  1  0
 25 20  1  0
M  END
>  <energy_score>  (1133) 
-79.094207

>  <inchikey>  (1133) 
None

>  <smiles>  (1133) 
None

>  <ref_pdb>  (1133) 
A4706a

>  <alias>  (1133) 
None

>  <HIPPO Pose ID>  (1133) 
500381

>  <name>  (1133) 
P500381

>  <HIPPO Compound ID>  (1133) 
314698

>  <ref_mols>  (1133) 
A4706a,A0875a

>  <distance_score>  (1133) 
1.872045

>  <inspiration_score>  (1133) 
None

$$$$
P500382
     RDKit          3D

 28 30  0  0  0  0  0  0  0  0999 V2000
   10.7189   15.8062   22.1813 C   0  0  0  0  0  0  0  0  0  0  0  0
    9.4365   15.9981   21.3600 C   0  0  0  0  0  0  0  0  0  0  0  0
    9.1449   17.4942   21.1060 C   0  0  0  0  0  0  0  0  0  0  0  0
    9.8683   15.4452   19.9633 C   0  0  0  0  0  0  0  0  0  0  0  0
    9.6632   16.1711   18.9553 O   0  0  0  0  0  0  0  0  0  0  0  0
   10.3813   14.2996   19.9701 O   0  0  0  0  0  0  0  0  0  0  0  0
    8.1957   15.2870   22.0293 C   0  0  0  0  0  0  0  0  0  0  0  0
    8.4059   14.7916   23.3912 O   0  0  0  0  0  0  0  0  0  0  0  0
    7.6128   13.7439   23.7692 C   0  0  0  0  0  0  0  0  0  0  0  0
    7.7795   12.5894   23.3739 O   0  0  0  0  0  0  0  0  0  0  0  0
    6.4606   14.0685   24.7066 C   0  0  0  0  0  0  0  0  0  0  0  0
    6.1656   12.8074   25.5445 C   0  0  0  0  0  0  0  0  0  0  0  0
    7.2855   12.4935   26.5407 C   0  0  0  0  0  0  0  0  0  0  0  0
    8.0628   13.6966   26.8358 N   0  0  0  0  0  0  0  0  0  0  0  0
    9.6789   14.0025   26.6035 S   0  0  0  0  0  0  0  0  0  0  0  0
    9.8555   14.9060   25.4978 O   0  0  0  0  0  0  0  0  0  0  0  0
   10.1331   14.4459   27.9027 O   0  0  0  0  0  0  0  0  0  0  0  0
   10.5265   12.5735   26.3003 N   0  0  0  0  0  0  0  0  0  0  0  0
   12.0120   12.8000   26.4880 C   0  0  0  0  0  0  0  0  0  0  0  0
   12.8358   12.4873   25.2508 C   0  0  0  0  0  0  0  0  0  0  0  0
   12.1350   13.0678   24.0405 C   0  0  0  0  0  0  0  0  0  0  0  0
   10.7423   12.5219   23.8504 C   0  0  0  0  0  0  0  0  0  0  0  0
   10.2436   11.8016   25.0646 C   0  0  0  0  0  0  0  0  0  0  0  0
    7.2171   14.8935   26.9861 C   0  0  0  0  0  0  0  0  0  0  0  0
    6.6724   15.2816   25.6184 C   0  0  0  0  0  0  0  0  0  0  0  0
    7.4250   14.3483   21.1111 C   0  0  0  0  0  0  0  0  0  0  0  0
    6.1419   14.8688   21.5641 O   0  0  0  0  0  0  0  0  0  0  0  0
    6.8438   16.0529   22.0356 C   0  0  0  0  0  0  0  0  0  0  0  0
  1  2  1  0
  2  3  1  0
  2  4  1  0
  4  5  2  0
  4  6  1  0
  2  7  1  0
  7  8  1  0
  8  9  1  0
  9 10  2  0
  9 11  1  0
 11 12  1  0
 12 13  1  0
 13 14  1  0
 14 15  1  0
 15 16  2  0
 15 17  2  0
 15 18  1  0
 18 19  1  0
 19 20  1  0
 20 21  1  0
 21 22  1  0
 22 23  1  0
 14 24  1  0
 24 25  1  0
  7 26  1  0
 26 27  1  0
 27 28  1  0
 28  7  1  0
 25 11  1  0
 23 18  1  0
M  CHG  1   6  -1
M  END
>  <energy_score>  (1134) 
-41.361306

>  <inchikey>  (1134) 
None

>  <smiles>  (1134) 
None

>  <ref_pdb>  (1134) 
A4706a

>  <alias>  (1134) 
None

>  <HIPPO Pose ID>  (1134) 
500382

>  <name>  (1134) 
P500382

>  <HIPPO Compound ID>  (1134) 
314700

>  <ref_mols>  (1134) 
A0875a,A4706a

>  <distance_score>  (1134) 
1.782906

>  <inspiration_score>  (1134) 
None

$$$$
P500386
     RDKit          3D

 28 31  0  0  0  0  0  0  0  0999 V2000
   14.9232   10.4687   26.3861 O   0  0  0  0  0  0  0  0  0  0  0  0
   14.8904   11.6704   26.6006 C   0  0  0  0  0  0  0  0  0  0  0  0
   15.8014   12.3752   27.3174 O   0  0  0  0  0  0  0  0  0  0  0  0
   16.5968   11.6193   28.2860 C   0  0  0  0  0  0  0  0  0  0  0  0
   15.7359   11.3888   29.5614 C   0  0  1  0  0  0  0  0  0  0  0  0
   16.4499   10.6050   30.6803 C   0  0  0  0  0  0  0  0  0  0  0  0
   15.7297   10.7009   32.0312 C   0  0  0  0  0  0  0  0  0  0  0  0
   14.2858   11.1503   31.8614 C   0  0  0  0  0  0  0  0  0  0  0  0
   14.2120   12.4894   31.1237 C   0  0  0  0  0  0  0  0  0  0  0  0
   15.2368   12.6836   30.0851 N   0  0  0  0  0  0  0  0  0  0  0  0
   18.0063   12.2267   28.5138 C   0  0  0  0  0  0  0  0  0  0  0  0
   18.6363   10.9348   28.3427 O   0  0  0  0  0  0  0  0  0  0  0  0
   17.4133   10.4002   27.7799 C   0  0  0  0  0  0  0  0  0  0  0  0
   13.7796   12.5686   26.1129 C   0  0  0  0  0  0  0  0  0  0  0  0
   12.9532   13.0489   27.2860 C   0  0  0  0  0  0  0  0  0  0  0  0
   11.6881   13.8043   26.8933 C   0  0  0  0  0  0  0  0  0  0  0  0
   10.9070   13.0999   25.8454 N   0  0  0  0  0  0  0  0  0  0  0  0
    9.5162   14.0043   25.4356 S   0  0  0  0  0  0  0  0  0  0  0  0
    9.8818   14.9450   24.4060 O   0  0  0  0  0  0  0  0  0  0  0  0
    8.9170   14.4423   26.6733 O   0  0  0  0  0  0  0  0  0  0  0  0
    8.5222   12.8180   24.7787 N   0  0  0  0  0  0  0  0  0  0  0  0
    8.3061   11.6055   25.6084 C   0  0  0  0  0  0  0  0  0  0  0  0
    6.8448   11.3544   25.9467 C   0  0  0  0  0  0  0  0  0  0  0  0
    6.1189   12.6330   26.3185 C   0  0  0  0  0  0  0  0  0  0  0  0
    6.1969   13.6604   25.1933 C   0  0  0  0  0  0  0  0  0  0  0  0
    7.2858   13.3678   24.1669 C   0  0  0  0  0  0  0  0  0  0  0  0
   11.7258   12.7294   24.6713 C   0  0  0  0  0  0  0  0  0  0  0  0
   12.8580   11.8308   25.1580 C   0  0  0  0  0  0  0  0  0  0  0  0
  1  2  2  0
  2  3  1  0
  3  4  1  0
  5  4  1  6
  5  6  1  0
  6  7  1  0
  7  8  1  0
  8  9  1  0
  9 10  1  0
  4 11  1  0
 11 12  1  0
 12 13  1  0
  2 14  1  0
 14 15  1  0
 15 16  1  0
 16 17  1  0
 17 18  1  0
 18 19  2  0
 18 20  2  0
 18 21  1  0
 21 22  1  0
 22 23  1  0
 23 24  1  0
 24 25  1  0
 25 26  1  0
 17 27  1  0
 27 28  1  0
 13  4  1  0
 28 14  1  0
 10  5  1  0
 26 21  1  0
M  END
>  <energy_score>  (1135) 
-80.981962

>  <inchikey>  (1135) 
None

>  <smiles>  (1135) 
None

>  <ref_pdb>  (1135) 
A4706a

>  <alias>  (1135) 
None

>  <HIPPO Pose ID>  (1135) 
500386

>  <name>  (1135) 
P500386

>  <HIPPO Compound ID>  (1135) 
314704

>  <ref_mols>  (1135) 
A4706a,A0875a

>  <distance_score>  (1135) 
1.864618

>  <inspiration_score>  (1135) 
None

$$$$
P500391
     RDKit          3D

 28 31  0  0  0  0  0  0  0  0999 V2000
    6.6144   13.1253   22.5742 O   0  0  0  0  0  0  0  0  0  0  0  0
    6.5466   14.0463   23.3868 C   0  0  0  0  0  0  0  0  0  0  0  0
    6.9353   15.3238   23.1431 O   0  0  0  0  0  0  0  0  0  0  0  0
    7.3764   15.6317   21.8010 C   0  0  0  0  0  0  0  0  0  0  0  0
    8.8096   15.1987   21.4775 C   0  0  1  0  0  0  0  0  0  0  0  0
    9.2824   15.4965   20.0490 C   0  0  0  0  0  0  0  0  0  0  0  0
   10.5444   14.9185   19.7230 O   0  0  0  0  0  0  0  0  0  0  0  0
   11.4094   14.8933   20.8379 C   0  0  2  0  0  0  0  0  0  0  0  0
   11.3899   13.5556   21.5587 C   0  0  0  0  0  0  0  0  0  0  0  0
   11.5881   13.7755   22.9833 N   0  0  0  0  0  0  0  0  0  0  0  0
   11.8120   15.2128   23.0831 C   0  0  0  0  0  0  0  0  0  0  0  0
   11.0535   15.8481   21.9608 C   0  0  2  0  0  0  0  0  0  0  0  0
    9.6866   15.8827   22.3631 O   0  0  0  0  0  0  0  0  0  0  0  0
    5.9028   13.8993   24.7709 C   0  0  0  0  0  0  0  0  0  0  0  0
    6.0472   12.4607   25.2858 C   0  0  0  0  0  0  0  0  0  0  0  0
    7.4498   12.1061   25.7612 C   0  0  0  0  0  0  0  0  0  0  0  0
    8.0985   13.2370   26.4658 N   0  0  0  0  0  0  0  0  0  0  0  0
    9.4200   13.9578   25.6914 S   0  0  0  0  0  0  0  0  0  0  0  0
    9.6852   15.1985   26.3736 O   0  0  0  0  0  0  0  0  0  0  0  0
    9.1727   13.8963   24.2764 O   0  0  0  0  0  0  0  0  0  0  0  0
   10.6568   12.8901   26.0325 N   0  0  0  0  0  0  0  0  0  0  0  0
   10.7308   11.6238   25.2909 C   0  0  0  0  0  0  0  0  0  0  0  0
   12.0940   10.9996   25.5194 C   0  0  0  0  0  0  0  0  0  0  0  0
   13.1937   11.8399   24.9967 C   0  0  0  0  0  0  0  0  0  0  0  0
   13.1694   13.1460   25.7270 C   0  0  0  0  0  0  0  0  0  0  0  0
   11.9183   13.4604   26.5548 C   0  0  0  0  0  0  0  0  0  0  0  0
    7.1101   14.2134   26.9952 C   0  0  0  0  0  0  0  0  0  0  0  0
    6.3733   14.8961   25.8444 C   0  0  0  0  0  0  0  0  0  0  0  0
  1  2  2  0
  2  3  1  0
  3  4  1  0
  5  4  1  6
  5  6  1  0
  6  7  1  0
  7  8  1  0
  8  9  1  1
  9 10  1  0
 10 11  1  0
 12 11  1  1
 12 13  1  0
  2 14  1  0
 14 15  1  0
 15 16  1  0
 16 17  1  0
 17 18  1  0
 18 19  2  0
 18 20  2  0
 18 21  1  0
 21 22  1  0
 22 23  1  0
 23 24  1  0
 24 25  1  0
 25 26  1  0
 17 27  1  0
 27 28  1  0
 13  5  1  0
 28 14  1  0
 12  8  1  0
 26 21  1  0
M  END
>  <energy_score>  (1136) 
-37.056203

>  <inchikey>  (1136) 
None

>  <smiles>  (1136) 
None

>  <ref_pdb>  (1136) 
A4706a

>  <alias>  (1136) 
None

>  <HIPPO Pose ID>  (1136) 
500391

>  <name>  (1136) 
P500391

>  <HIPPO Compound ID>  (1136) 
314705

>  <ref_mols>  (1136) 
A4706a,A0875a

>  <distance_score>  (1136) 
1.430185

>  <inspiration_score>  (1136) 
None

$$$$
P500393
     RDKit          3D

 28 31  0  0  0  0  0  0  0  0999 V2000
   15.6647   11.7735   26.1851 O   0  0  0  0  0  0  0  0  0  0  0  0
   14.9151   11.9940   27.1171 C   0  0  0  0  0  0  0  0  0  0  0  0
   15.2509   12.0502   28.4349 O   0  0  0  0  0  0  0  0  0  0  0  0
   16.6037   11.7494   28.8912 C   0  0  0  0  0  0  0  0  0  0  0  0
   16.5506   11.7694   30.4460 C   0  0  2  0  0  0  0  0  0  0  0  0
   15.9775   13.1194   30.9334 C   0  0  0  0  0  0  0  0  0  0  0  0
   16.3936   13.4609   32.3640 C   0  0  0  0  0  0  0  0  0  0  0  0
   16.6854   12.2041   33.1729 C   0  0  0  0  0  0  0  0  0  0  0  0
   17.7819   11.4265   32.6032 N   0  0  0  0  0  0  0  0  0  0  0  0
   17.8917   11.4859   31.1435 C   0  0  0  0  0  0  0  0  0  0  0  0
   17.7892   12.5164   28.2584 C   0  0  0  0  0  0  0  0  0  0  0  0
   18.5321   11.2797   28.0899 O   0  0  0  0  0  0  0  0  0  0  0  0
   17.3197   10.5086   28.2925 C   0  0  0  0  0  0  0  0  0  0  0  0
   13.4093   12.1522   26.9833 C   0  0  0  0  0  0  0  0  0  0  0  0
   12.8998   13.3947   27.6836 C   0  0  0  0  0  0  0  0  0  0  0  0
   11.6143   14.0201   27.1614 C   0  0  0  0  0  0  0  0  0  0  0  0
   10.9859   13.2688   26.0395 N   0  0  0  0  0  0  0  0  0  0  0  0
    9.6427   14.1396   25.4451 S   0  0  0  0  0  0  0  0  0  0  0  0
   10.1299   15.0604   24.4478 O   0  0  0  0  0  0  0  0  0  0  0  0
    8.9091   14.6088   26.5951 O   0  0  0  0  0  0  0  0  0  0  0  0
    8.7281   12.9532   24.6870 N   0  0  0  0  0  0  0  0  0  0  0  0
    8.3262   11.7601   25.4672 C   0  0  0  0  0  0  0  0  0  0  0  0
    7.1235   12.0252   26.3645 C   0  0  0  0  0  0  0  0  0  0  0  0
    5.9595   12.6327   25.5957 C   0  0  0  0  0  0  0  0  0  0  0  0
    6.3899   13.8375   24.7733 C   0  0  0  0  0  0  0  0  0  0  0  0
    7.5954   13.5150   23.8963 C   0  0  0  0  0  0  0  0  0  0  0  0
   11.9675   12.9239   24.9956 C   0  0  0  0  0  0  0  0  0  0  0  0
   12.8824   11.8549   25.5662 C   0  0  0  0  0  0  0  0  0  0  0  0
  1  2  2  0
  2  3  1  0
  3  4  1  0
  5  4  1  6
  5  6  1  0
  6  7  1  0
  7  8  1  0
  8  9  1  0
  9 10  1  0
  4 11  1  0
 11 12  1  0
 12 13  1  0
  2 14  1  0
 14 15  1  0
 15 16  1  0
 16 17  1  0
 17 18  1  0
 18 19  2  0
 18 20  2  0
 18 21  1  0
 21 22  1  0
 22 23  1  0
 23 24  1  0
 24 25  1  0
 25 26  1  0
 17 27  1  0
 27 28  1  0
 13  4  1  0
 28 14  1  0
 10  5  1  0
 26 21  1  0
M  END
>  <energy_score>  (1137) 
-72.628769

>  <inchikey>  (1137) 
None

>  <smiles>  (1137) 
None

>  <ref_pdb>  (1137) 
A4706a

>  <alias>  (1137) 
None

>  <HIPPO Pose ID>  (1137) 
500393

>  <name>  (1137) 
P500393

>  <HIPPO Compound ID>  (1137) 
314706

>  <ref_mols>  (1137) 
A4706a,A0875a

>  <distance_score>  (1137) 
1.823847

>  <inspiration_score>  (1137) 
None

$$$$
P500404
     RDKit          3D

 28 31  0  0  0  0  0  0  0  0999 V2000
   12.3807   14.3423   19.2450 N   0  0  0  0  0  0  0  0  0  0  0  0
   11.3869   14.6982   20.0488 C   0  0  0  0  0  0  0  0  0  0  0  0
   10.3192   15.4722   19.5813 C   0  0  0  0  0  0  0  0  0  0  0  0
    9.5775   15.6976   20.6978 C   0  0  0  0  0  0  0  0  0  0  0  0
   10.1473   14.9644   21.6784 N   0  0  0  0  0  0  0  0  0  0  0  0
   11.3263   14.4322   21.3528 N   0  0  0  0  0  0  0  0  0  0  0  0
    9.4991   14.7209   22.9343 C   0  0  0  0  0  0  0  0  0  0  0  0
    7.9858   15.0772   22.9155 C   0  0  2  0  0  0  0  0  0  0  0  0
    7.1844   13.9358   23.3210 O   0  0  0  0  0  0  0  0  0  0  0  0
    5.9291   14.2563   23.7461 C   0  0  0  0  0  0  0  0  0  0  0  0
    5.1954   15.0683   23.2003 O   0  0  0  0  0  0  0  0  0  0  0  0
    5.5565   13.5784   25.0510 C   0  0  0  0  0  0  0  0  0  0  0  0
    6.3024   12.2550   25.2629 C   0  0  0  0  0  0  0  0  0  0  0  0
    6.9043   12.0574   26.6247 C   0  0  0  0  0  0  0  0  0  0  0  0
    7.4714   13.2854   27.1683 N   0  0  0  0  0  0  0  0  0  0  0  0
    8.8604   14.0801   26.6774 S   0  0  0  0  0  0  0  0  0  0  0  0
    8.6198   14.6931   25.4072 O   0  0  0  0  0  0  0  0  0  0  0  0
    9.2435   14.9162   27.7801 O   0  0  0  0  0  0  0  0  0  0  0  0
   10.1210   12.9996   26.4530 N   0  0  0  0  0  0  0  0  0  0  0  0
    9.8432   11.8797   25.5640 C   0  0  0  0  0  0  0  0  0  0  0  0
   11.0239   11.2404   24.9178 C   0  0  0  0  0  0  0  0  0  0  0  0
   12.3838   11.6887   25.4153 C   0  0  0  0  0  0  0  0  0  0  0  0
   12.3907   13.1773   25.2954 C   0  0  0  0  0  0  0  0  0  0  0  0
   11.4247   13.7431   26.3160 C   0  0  0  0  0  0  0  0  0  0  0  0
    6.3467   14.2178   27.4502 C   0  0  0  0  0  0  0  0  0  0  0  0
    5.6881   14.6556   26.1505 C   0  0  0  0  0  0  0  0  0  0  0  0
    7.4992   15.6128   21.5953 C   0  0  0  0  0  0  0  0  0  0  0  0
    8.4840   16.3941   20.9366 O   0  0  0  0  0  0  0  0  0  0  0  0
  1  2  1  0
  2  3  1  0
  3  4  2  0
  4  5  1  0
  5  6  1  0
  5  7  1  0
  7  8  1  0
  8  9  1  6
  9 10  1  0
 10 11  2  0
 10 12  1  0
 12 13  1  0
 13 14  1  0
 14 15  1  0
 15 16  1  0
 16 17  2  0
 16 18  2  0
 16 19  1  0
 19 20  1  0
 20 21  1  0
 21 22  1  0
 22 23  1  0
 23 24  1  0
 15 25  1  0
 25 26  1  0
  8 27  1  0
 27 28  1  0
  6  2  2  0
 26 12  1  0
 28  4  1  0
 24 19  1  0
M  END
>  <energy_score>  (1138) 
-46.379446

>  <inchikey>  (1138) 
None

>  <smiles>  (1138) 
None

>  <ref_pdb>  (1138) 
A4706a

>  <alias>  (1138) 
None

>  <HIPPO Pose ID>  (1138) 
500404

>  <name>  (1138) 
P500404

>  <HIPPO Compound ID>  (1138) 
314712

>  <ref_mols>  (1138) 
A0875a,A4706a

>  <distance_score>  (1138) 
1.904776

>  <inspiration_score>  (1138) 
None

$$$$
P500412
     RDKit          3D

 28 31  0  0  0  0  0  0  0  0999 V2000
   11.9243   14.2633   19.6796 C   0  0  0  0  0  0  0  0  0  0  0  0
   11.9641   14.9062   20.9780 N   0  0  0  0  0  0  0  0  0  0  0  0
   10.9754   15.9794   21.1288 C   0  0  1  0  0  0  0  0  0  0  0  0
   10.1684   16.3595   19.8669 C   0  0  0  0  0  0  0  0  0  0  0  0
    9.0202   15.5598   19.9413 O   0  0  0  0  0  0  0  0  0  0  0  0
    8.5911   15.7591   21.2943 C   0  0  2  0  0  0  0  0  0  0  0  0
    9.8614   15.6626   22.1236 C   0  0  1  0  0  0  0  0  0  0  0  0
    9.9153   14.3507   22.6755 O   0  0  0  0  0  0  0  0  0  0  0  0
    8.9044   13.6206   21.9964 C   0  0  0  0  0  0  0  0  0  0  0  0
    7.7691   14.5729   21.6477 C   0  0  1  0  0  0  0  0  0  0  0  0
    6.9085   14.8870   22.7322 O   0  0  0  0  0  0  0  0  0  0  0  0
    6.2728   13.7698   23.1658 C   0  0  0  0  0  0  0  0  0  0  0  0
    5.6772   12.9893   22.4473 O   0  0  0  0  0  0  0  0  0  0  0  0
    6.5256   13.6309   24.6243 C   0  0  0  0  0  0  0  0  0  0  0  0
    6.3807   12.2792   25.2904 C   0  0  0  0  0  0  0  0  0  0  0  0
    7.2568   12.2582   26.5515 C   0  0  0  0  0  0  0  0  0  0  0  0
    7.7542   13.6102   26.9132 N   0  0  0  0  0  0  0  0  0  0  0  0
    9.2282   14.3022   26.4355 S   0  0  0  0  0  0  0  0  0  0  0  0
    9.0519   15.1062   25.2499 O   0  0  0  0  0  0  0  0  0  0  0  0
    9.7415   14.9397   27.6231 O   0  0  0  0  0  0  0  0  0  0  0  0
   10.3084   13.0758   26.0567 N   0  0  0  0  0  0  0  0  0  0  0  0
   11.6984   13.6550   25.9685 C   0  0  0  0  0  0  0  0  0  0  0  0
   12.6455   12.7702   25.1586 C   0  0  0  0  0  0  0  0  0  0  0  0
   12.3230   11.3234   25.4701 C   0  0  0  0  0  0  0  0  0  0  0  0
   10.8540   10.9619   25.0983 C   0  0  0  0  0  0  0  0  0  0  0  0
   10.0553   12.2264   24.8850 C   0  0  0  0  0  0  0  0  0  0  0  0
    6.6285   14.5929   26.9400 C   0  0  0  0  0  0  0  0  0  0  0  0
    6.0567   14.7647   25.5256 C   0  0  0  0  0  0  0  0  0  0  0  0
  1  2  1  0
  3  2  1  6
  3  4  1  0
  4  5  1  0
  6  5  1  6
  6  7  1  0
  7  8  1  6
  8  9  1  0
  9 10  1  0
 10 11  1  1
 11 12  1  0
 12 13  2  0
 12 14  1  0
 14 15  1  0
 15 16  1  0
 16 17  1  0
 17 18  1  0
 18 19  2  0
 18 20  2  0
 18 21  1  0
 21 22  1  0
 22 23  1  0
 23 24  1  0
 24 25  1  0
 25 26  1  0
 17 27  1  0
 27 28  1  0
  7  3  1  0
 28 14  1  0
 10  6  1  0
 26 21  1  0
M  END
>  <energy_score>  (1139) 
-13.96316

>  <inchikey>  (1139) 
None

>  <smiles>  (1139) 
None

>  <ref_pdb>  (1139) 
A4706a

>  <alias>  (1139) 
None

>  <HIPPO Pose ID>  (1139) 
500412

>  <name>  (1139) 
P500412

>  <HIPPO Compound ID>  (1139) 
314713

>  <ref_mols>  (1139) 
A4706a,A0875a

>  <distance_score>  (1139) 
1.649244

>  <inspiration_score>  (1139) 
None

$$$$
P500414
     RDKit          3D

 28 31  0  0  0  0  0  0  0  0999 V2000
    6.1800   13.2475   22.6747 O   0  0  0  0  0  0  0  0  0  0  0  0
    6.3996   14.1475   23.4821 C   0  0  0  0  0  0  0  0  0  0  0  0
    7.0719   15.3011   23.2069 O   0  0  0  0  0  0  0  0  0  0  0  0
    7.4351   15.5477   21.8273 C   0  0  0  0  0  0  0  0  0  0  0  0
    8.7928   16.2676   21.6913 C   0  0  2  0  0  0  0  0  0  0  0  0
    9.3920   16.5171   20.3161 C   0  0  0  0  0  0  0  0  0  0  0  0
    9.7759   15.2260   19.6065 C   0  0  1  0  0  0  0  0  0  0  0  0
   11.2292   15.1417   19.1775 C   0  0  0  0  0  0  0  0  0  0  0  0
   12.0741   15.3271   20.3208 O   0  0  0  0  0  0  0  0  0  0  0  0
   11.8009   14.3467   21.3179 C   0  0  0  0  0  0  0  0  0  0  0  0
   10.3338   14.2974   21.7032 C   0  0  1  0  0  0  0  0  0  0  0  0
    9.9095   15.5603   22.4463 C   0  0  0  0  0  0  0  0  0  0  0  0
    9.5350   14.1391   20.5185 O   0  0  0  0  0  0  0  0  0  0  0  0
    5.8585   14.1269   24.9242 C   0  0  0  0  0  0  0  0  0  0  0  0
    5.7728   12.6970   25.4886 C   0  0  0  0  0  0  0  0  0  0  0  0
    7.0729   12.0985   26.0330 C   0  0  0  0  0  0  0  0  0  0  0  0
    8.0220   13.1480   26.4934 N   0  0  0  0  0  0  0  0  0  0  0  0
    9.2545   13.5337   25.4092 S   0  0  0  0  0  0  0  0  0  0  0  0
    9.7187   14.8708   25.6906 O   0  0  0  0  0  0  0  0  0  0  0  0
    8.7829   13.1402   24.1096 O   0  0  0  0  0  0  0  0  0  0  0  0
   10.5021   12.4483   25.8323 N   0  0  0  0  0  0  0  0  0  0  0  0
   10.5098   11.2637   24.9214 C   0  0  0  0  0  0  0  0  0  0  0  0
   11.6489   10.3102   25.2403 C   0  0  0  0  0  0  0  0  0  0  0  0
   13.0090   11.0415   25.3883 C   0  0  0  0  0  0  0  0  0  0  0  0
   12.9298   12.2218   26.3323 C   0  0  0  0  0  0  0  0  0  0  0  0
   11.8145   13.1559   25.9021 C   0  0  0  0  0  0  0  0  0  0  0  0
    7.2937   14.3206   27.0404 C   0  0  0  0  0  0  0  0  0  0  0  0
    6.5445   15.0637   25.9340 C   0  0  0  0  0  0  0  0  0  0  0  0
  1  2  2  0
  2  3  1  0
  3  4  1  0
  5  4  1  6
  5  6  1  0
  7  6  1  1
  7  8  1  0
  8  9  1  0
  9 10  1  0
 11 10  1  6
 11 12  1  0
 11 13  1  0
  2 14  1  0
 14 15  1  0
 15 16  1  0
 16 17  1  0
 17 18  1  0
 18 19  2  0
 18 20  2  0
 18 21  1  0
 21 22  1  0
 22 23  1  0
 23 24  1  0
 24 25  1  0
 25 26  1  0
 17 27  1  0
 27 28  1  0
 12  5  1  0
 28 14  1  0
 13  7  1  0
 26 21  1  0
M  END
>  <energy_score>  (1140) 
-47.149054

>  <inchikey>  (1140) 
None

>  <smiles>  (1140) 
None

>  <ref_pdb>  (1140) 
A4706a

>  <alias>  (1140) 
None

>  <HIPPO Pose ID>  (1140) 
500414

>  <name>  (1140) 
P500414

>  <HIPPO Compound ID>  (1140) 
314714

>  <ref_mols>  (1140) 
A4706a,A0875a

>  <distance_score>  (1140) 
1.552325

>  <inspiration_score>  (1140) 
None

$$$$
P500419
     RDKit          3D

 28 31  0  0  0  0  0  0  0  0999 V2000
    6.2409   13.3344   22.7437 O   0  0  0  0  0  0  0  0  0  0  0  0
    6.5708   14.0578   23.6789 C   0  0  0  0  0  0  0  0  0  0  0  0
    7.5353   15.0184   23.6294 O   0  0  0  0  0  0  0  0  0  0  0  0
    8.4758   14.8254   22.5711 C   0  0  1  0  0  0  0  0  0  0  0  0
    8.0099   15.5128   21.3324 C   0  0  0  0  0  0  0  0  0  0  0  0
    8.8010   15.0442   20.2539 O   0  0  0  0  0  0  0  0  0  0  0  0
   10.0109   15.7702   20.0834 C   0  0  2  0  0  0  0  0  0  0  0  0
   10.5128   15.3757   18.7059 C   0  0  0  0  0  0  0  0  0  0  0  0
   11.2599   14.1386   18.9233 N   0  0  0  0  0  0  0  0  0  0  0  0
   11.9698   14.3938   20.1724 C   0  0  0  0  0  0  0  0  0  0  0  0
   11.1571   15.3505   21.0108 C   0  0  2  0  0  0  0  0  0  0  0  0
   10.8630   14.6971   22.2356 O   0  0  0  0  0  0  0  0  0  0  0  0
    9.8495   15.3404   22.9726 C   0  0  0  0  0  0  0  0  0  0  0  0
    5.9941   13.9207   25.0782 C   0  0  0  0  0  0  0  0  0  0  0  0
    6.1403   12.4600   25.5378 C   0  0  0  0  0  0  0  0  0  0  0  0
    7.1287   12.2859   26.6804 C   0  0  0  0  0  0  0  0  0  0  0  0
    8.3552   13.1085   26.4818 N   0  0  0  0  0  0  0  0  0  0  0  0
    9.4532   12.4383   25.4067 S   0  0  0  0  0  0  0  0  0  0  0  0
    9.6715   11.0824   25.8249 O   0  0  0  0  0  0  0  0  0  0  0  0
    8.9629   12.6629   24.0802 O   0  0  0  0  0  0  0  0  0  0  0  0
   10.8967   13.2551   25.5540 N   0  0  0  0  0  0  0  0  0  0  0  0
   11.4659   13.6902   26.8326 C   0  0  0  0  0  0  0  0  0  0  0  0
   12.7536   12.9702   27.2657 C   0  0  0  0  0  0  0  0  0  0  0  0
   13.6835   12.4715   26.1849 C   0  0  0  0  0  0  0  0  0  0  0  0
   12.8583   11.8547   25.0971 C   0  0  0  0  0  0  0  0  0  0  0  0
   11.9019   12.8970   24.5280 C   0  0  0  0  0  0  0  0  0  0  0  0
    8.0691   14.5567   26.4434 C   0  0  0  0  0  0  0  0  0  0  0  0
    6.6095   14.8772   26.1054 C   0  0  0  0  0  0  0  0  0  0  0  0
  1  2  2  0
  2  3  1  0
  4  3  1  1
  4  5  1  0
  5  6  1  0
  6  7  1  0
  7  8  1  6
  8  9  1  0
  9 10  1  0
 11 10  1  6
 11 12  1  0
 12 13  1  0
  2 14  1  0
 14 15  1  0
 15 16  1  0
 16 17  1  0
 17 18  1  0
 18 19  2  0
 18 20  2  0
 18 21  1  0
 21 22  1  0
 22 23  1  0
 23 24  1  0
 24 25  1  0
 25 26  1  0
 17 27  1  0
 27 28  1  0
 13  4  1  0
 28 14  1  0
 11  7  1  0
 26 21  1  0
M  END
>  <energy_score>  (1141) 
-63.779878

>  <inchikey>  (1141) 
None

>  <smiles>  (1141) 
None

>  <ref_pdb>  (1141) 
A4706a

>  <alias>  (1141) 
None

>  <HIPPO Pose ID>  (1141) 
500419

>  <name>  (1141) 
P500419

>  <HIPPO Compound ID>  (1141) 
314716

>  <ref_mols>  (1141) 
A4706a,A0875a

>  <distance_score>  (1141) 
1.893804

>  <inspiration_score>  (1141) 
None

$$$$
P500421
     RDKit          3D

 28 31  0  0  0  0  0  0  0  0999 V2000
   10.7916   14.0159   19.4155 C   0  0  0  0  0  0  0  0  0  0  0  0
   10.7715   15.4635   19.6414 C   0  0  0  0  0  0  0  0  0  0  0  0
   11.0961   15.9285   18.2887 C   0  0  0  0  0  0  0  0  0  0  0  0
    9.4746   15.9026   20.0147 O   0  0  0  0  0  0  0  0  0  0  0  0
    9.4856   15.9794   21.4349 C   0  0  1  0  0  0  0  0  0  0  0  0
    9.0972   14.6411   22.1042 C   0  0  2  0  0  0  0  0  0  0  0  0
    8.1765   14.8503   23.2145 O   0  0  0  0  0  0  0  0  0  0  0  0
    7.1058   13.9977   23.3015 C   0  0  0  0  0  0  0  0  0  0  0  0
    6.7792   13.1990   22.4225 O   0  0  0  0  0  0  0  0  0  0  0  0
    6.3310   14.0618   24.6451 C   0  0  0  0  0  0  0  0  0  0  0  0
    6.1832   12.6519   25.2847 C   0  0  0  0  0  0  0  0  0  0  0  0
    7.1446   12.2495   26.4230 C   0  0  0  0  0  0  0  0  0  0  0  0
    8.1158   13.3292   26.7647 N   0  0  0  0  0  0  0  0  0  0  0  0
    9.4064   13.4454   25.6956 S   0  0  0  0  0  0  0  0  0  0  0  0
    9.7775   14.8356   25.6269 O   0  0  0  0  0  0  0  0  0  0  0  0
    8.9704   12.6777   24.5568 O   0  0  0  0  0  0  0  0  0  0  0  0
   10.7436   12.6207   26.3458 N   0  0  0  0  0  0  0  0  0  0  0  0
   11.4659   11.7821   25.3320 C   0  0  0  0  0  0  0  0  0  0  0  0
   12.8641   12.2857   25.0503 C   0  0  0  0  0  0  0  0  0  0  0  0
   13.7478   12.3352   26.2690 C   0  0  0  0  0  0  0  0  0  0  0  0
   12.9897   12.8536   27.4701 C   0  0  0  0  0  0  0  0  0  0  0  0
   11.6568   13.5243   27.1189 C   0  0  0  0  0  0  0  0  0  0  0  0
    7.3580   14.5954   26.9644 C   0  0  0  0  0  0  0  0  0  0  0  0
    6.7573   15.1310   25.6603 C   0  0  0  0  0  0  0  0  0  0  0  0
   10.4630   14.1019   22.5754 C   0  0  0  0  0  0  0  0  0  0  0  0
   11.2802   15.3244   22.9068 C   0  0  0  0  0  0  0  0  0  0  0  0
   10.9561   16.2111   21.7490 C   0  0  1  0  0  0  0  0  0  0  0  0
   11.7165   15.7610   20.6355 O   0  0  0  0  0  0  0  0  0  0  0  0
  1  2  1  0
  2  3  1  0
  2  4  1  0
  5  4  1  6
  5  6  1  0
  6  7  1  1
  7  8  1  0
  8  9  2  0
  8 10  1  0
 10 11  1  0
 11 12  1  0
 12 13  1  0
 13 14  1  0
 14 15  2  0
 14 16  2  0
 14 17  1  0
 17 18  1  0
 18 19  1  0
 19 20  1  0
 20 21  1  0
 21 22  1  0
 13 23  1  0
 23 24  1  0
  6 25  1  0
 25 26  1  0
 27 26  1  1
 27 28  1  0
 28  2  1  0
 27  5  1  0
 24 10  1  0
 22 17  1  0
M  END
>  <energy_score>  (1142) 
-16.877331

>  <inchikey>  (1142) 
None

>  <smiles>  (1142) 
None

>  <ref_pdb>  (1142) 
A4706a

>  <alias>  (1142) 
None

>  <HIPPO Pose ID>  (1142) 
500421

>  <name>  (1142) 
P500421

>  <HIPPO Compound ID>  (1142) 
314717

>  <ref_mols>  (1142) 
A4706a,A0875a

>  <distance_score>  (1142) 
1.573719

>  <inspiration_score>  (1142) 
None

$$$$
P500424
     RDKit          3D

 28 31  0  0  0  0  0  0  0  0999 V2000
    6.8458   13.1322   22.2206 O   0  0  0  0  0  0  0  0  0  0  0  0
    7.9375   13.2104   22.7717 C   0  0  0  0  0  0  0  0  0  0  0  0
    9.0955   13.3555   22.0766 O   0  0  0  0  0  0  0  0  0  0  0  0
   10.3241   13.9225   22.6147 C   0  0  0  0  0  0  0  0  0  0  0  0
   11.4346   14.0147   21.5640 C   0  0  0  0  0  0  0  0  0  0  0  0
   11.1015   14.4718   20.2680 O   0  0  0  0  0  0  0  0  0  0  0  0
    9.9494   15.2834   20.2086 C   0  0  2  0  0  0  0  0  0  0  0  0
    9.9194   15.9917   18.9113 C   0  0  0  0  0  0  0  0  0  0  0  0
    9.3605   17.2942   19.1555 O   0  0  0  0  0  0  0  0  0  0  0  0
    9.0806   17.4479   20.5354 C   0  0  0  0  0  0  0  0  0  0  0  0
    9.9159   16.4140   21.2005 C   0  0  1  0  0  0  0  0  0  0  0  0
    9.2381   16.0421   22.3646 O   0  0  0  0  0  0  0  0  0  0  0  0
   10.0674   15.2991   23.2047 C   0  0  0  0  0  0  0  0  0  0  0  0
    8.0987   13.0447   24.2352 C   0  0  0  0  0  0  0  0  0  0  0  0
    8.0507   11.6017   24.6796 C   0  0  0  0  0  0  0  0  0  0  0  0
    8.8116   11.5138   25.9940 C   0  0  0  0  0  0  0  0  0  0  0  0
    9.0408   12.8502   26.5811 N   0  0  0  0  0  0  0  0  0  0  0  0
   10.4963   13.6749   26.7396 S   0  0  0  0  0  0  0  0  0  0  0  0
   10.4604   14.2028   28.0767 O   0  0  0  0  0  0  0  0  0  0  0  0
   10.6860   14.5766   25.6358 O   0  0  0  0  0  0  0  0  0  0  0  0
   11.7828   12.5472   26.6243 N   0  0  0  0  0  0  0  0  0  0  0  0
   12.1809   12.2028   25.2496 C   0  0  0  0  0  0  0  0  0  0  0  0
   13.3054   11.1665   25.2271 C   0  0  0  0  0  0  0  0  0  0  0  0
   14.4619   11.3833   26.1647 C   0  0  0  0  0  0  0  0  0  0  0  0
   14.3320   12.7317   26.7916 C   0  0  0  0  0  0  0  0  0  0  0  0
   12.9752   12.9236   27.4688 C   0  0  0  0  0  0  0  0  0  0  0  0
    7.7946   13.7012   26.6003 C   0  0  0  0  0  0  0  0  0  0  0  0
    7.2811   13.9206   25.1682 C   0  0  0  0  0  0  0  0  0  0  0  0
  1  2  2  0
  2  3  1  0
  3  4  1  0
  4  5  1  0
  5  6  1  0
  6  7  1  0
  7  8  1  6
  8  9  1  0
  9 10  1  0
 11 10  1  6
 11 12  1  0
 12 13  1  0
  2 14  1  0
 14 15  1  0
 15 16  1  0
 16 17  1  0
 17 18  1  0
 18 19  2  0
 18 20  2  0
 18 21  1  0
 21 22  1  0
 22 23  1  0
 23 24  1  0
 24 25  1  0
 25 26  1  0
 17 27  1  0
 27 28  1  0
 13  4  1  0
 28 14  1  0
 11  7  1  0
 26 21  1  0
M  END
>  <energy_score>  (1143) 
-7.038167

>  <inchikey>  (1143) 
None

>  <smiles>  (1143) 
None

>  <ref_pdb>  (1143) 
A4706a

>  <alias>  (1143) 
None

>  <HIPPO Pose ID>  (1143) 
500424

>  <name>  (1143) 
P500424

>  <HIPPO Compound ID>  (1143) 
314718

>  <ref_mols>  (1143) 
A4706a,A0875a

>  <distance_score>  (1143) 
1.693612

>  <inspiration_score>  (1143) 
None

$$$$
P500428
     RDKit          3D

 28 31  0  0  0  0  0  0  0  0999 V2000
   11.8037   13.5765   21.3570 N   0  0  0  0  0  0  0  0  0  0  0  0
   12.1552   14.6967   20.4677 C   0  0  0  0  0  0  0  0  0  0  0  0
   10.9941   15.4864   19.8735 C   0  0  1  0  0  0  0  0  0  0  0  0
    9.9774   14.5847   19.3101 C   0  0  0  0  0  0  0  0  0  0  0  0
    9.2448   14.1594   20.4933 O   0  0  0  0  0  0  0  0  0  0  0  0
    8.9183   15.3783   21.1221 C   0  0  2  0  0  0  0  0  0  0  0  0
   10.1569   16.2502   20.8768 C   0  0  1  0  0  0  0  0  0  0  0  0
   10.8874   16.3808   22.0939 O   0  0  0  0  0  0  0  0  0  0  0  0
   10.1850   15.6198   23.0646 C   0  0  0  0  0  0  0  0  0  0  0  0
    8.7454   15.5246   22.5972 C   0  0  2  0  0  0  0  0  0  0  0  0
    7.8705   14.8520   23.4996 O   0  0  0  0  0  0  0  0  0  0  0  0
    7.0954   13.7831   23.2539 C   0  0  0  0  0  0  0  0  0  0  0  0
    6.9096   13.2543   22.1660 O   0  0  0  0  0  0  0  0  0  0  0  0
    6.4585   13.2483   24.5623 C   0  0  0  0  0  0  0  0  0  0  0  0
    6.9692   11.8318   24.8950 C   0  0  0  0  0  0  0  0  0  0  0  0
    7.9273   11.6420   26.0644 C   0  0  0  0  0  0  0  0  0  0  0  0
    8.4986   12.9133   26.5227 N   0  0  0  0  0  0  0  0  0  0  0  0
    9.7234   13.5533   25.5850 S   0  0  0  0  0  0  0  0  0  0  0  0
    9.4801   13.0968   24.2416 O   0  0  0  0  0  0  0  0  0  0  0  0
    9.8469   14.9447   25.9400 O   0  0  0  0  0  0  0  0  0  0  0  0
   11.1507   12.7741   26.0676 N   0  0  0  0  0  0  0  0  0  0  0  0
   12.0743   12.6144   24.8986 C   0  0  0  0  0  0  0  0  0  0  0  0
   13.1922   11.6751   25.3146 C   0  0  0  0  0  0  0  0  0  0  0  0
   14.0325   12.3058   26.4051 C   0  0  0  0  0  0  0  0  0  0  0  0
   13.1605   12.7864   27.5515 C   0  0  0  0  0  0  0  0  0  0  0  0
   11.8662   13.5058   27.1455 C   0  0  0  0  0  0  0  0  0  0  0  0
    7.4102   13.8458   26.9118 C   0  0  0  0  0  0  0  0  0  0  0  0
    6.4868   14.2193   25.7555 C   0  0  0  0  0  0  0  0  0  0  0  0
  1  2  1  0
  3  2  1  1
  3  4  1  0
  4  5  1  0
  6  5  1  1
  6  7  1  0
  7  8  1  1
  8  9  1  0
  9 10  1  0
 10 11  1  1
 11 12  1  0
 12 13  2  0
 12 14  1  0
 14 15  1  0
 15 16  1  0
 16 17  1  0
 17 18  1  0
 18 19  2  0
 18 20  2  0
 18 21  1  0
 21 22  1  0
 22 23  1  0
 23 24  1  0
 24 25  1  0
 25 26  1  0
 17 27  1  0
 27 28  1  0
  7  3  1  0
 28 14  1  0
 10  6  1  0
 26 21  1  0
M  END
>  <energy_score>  (1144) 
-33.715807

>  <inchikey>  (1144) 
None

>  <smiles>  (1144) 
None

>  <ref_pdb>  (1144) 
A4706a

>  <alias>  (1144) 
None

>  <HIPPO Pose ID>  (1144) 
500428

>  <name>  (1144) 
P500428

>  <HIPPO Compound ID>  (1144) 
314721

>  <ref_mols>  (1144) 
A4706a,A0875a

>  <distance_score>  (1144) 
1.637594

>  <inspiration_score>  (1144) 
None

$$$$
P500429
     RDKit          3D

 28 31  0  0  0  0  0  0  0  0999 V2000
    7.7276   13.4859   22.4396 O   0  0  0  0  0  0  0  0  0  0  0  0
    7.5568   14.3470   23.3030 C   0  0  0  0  0  0  0  0  0  0  0  0
    8.2822   15.5212   23.3936 O   0  0  0  0  0  0  0  0  0  0  0  0
    8.5996   16.0750   22.0727 C   0  0  0  0  0  0  0  0  0  0  0  0
    9.8043   15.4036   21.3285 C   0  0  0  0  0  0  0  0  0  0  0  0
    9.8039   15.0680   19.9691 C   0  0  0  0  0  0  0  0  0  0  0  0
   10.9561   14.7205   19.3027 C   0  0  0  0  0  0  0  0  0  0  0  0
   12.0987   14.6892   20.0545 C   0  0  0  0  0  0  0  0  0  0  0  0
   12.1792   15.0116   21.3631 N   0  0  0  0  0  0  0  0  0  0  0  0
   11.0413   15.4012   21.9378 C   0  0  0  0  0  0  0  0  0  0  0  0
    7.2544   16.2744   21.4281 C   0  0  0  0  0  0  0  0  0  0  0  0
    7.7539   17.3712   20.6271 O   0  0  0  0  0  0  0  0  0  0  0  0
    8.6948   17.6369   21.6490 C   0  0  0  0  0  0  0  0  0  0  0  0
    6.4025   14.2055   24.3045 C   0  0  0  0  0  0  0  0  0  0  0  0
    6.4733   12.8136   24.9853 C   0  0  0  0  0  0  0  0  0  0  0  0
    7.5324   12.7827   26.0891 C   0  0  0  0  0  0  0  0  0  0  0  0
    8.2953   14.0227   25.9497 N   0  0  0  0  0  0  0  0  0  0  0  0
    9.9367   14.1141   25.9786 S   0  0  0  0  0  0  0  0  0  0  0  0
   10.3687   13.3360   27.1096 O   0  0  0  0  0  0  0  0  0  0  0  0
   10.3116   15.5025   25.8547 O   0  0  0  0  0  0  0  0  0  0  0  0
   10.4884   13.4040   24.5618 N   0  0  0  0  0  0  0  0  0  0  0  0
   11.9404   13.6211   24.3246 C   0  0  0  0  0  0  0  0  0  0  0  0
   12.7660   12.9187   25.3661 C   0  0  0  0  0  0  0  0  0  0  0  0
   12.3673   11.4725   25.5146 C   0  0  0  0  0  0  0  0  0  0  0  0
   10.9048   11.0918   25.1426 C   0  0  0  0  0  0  0  0  0  0  0  0
   10.1877   12.0232   24.1835 C   0  0  0  0  0  0  0  0  0  0  0  0
    7.5029   15.1990   26.3472 C   0  0  0  0  0  0  0  0  0  0  0  0
    6.3432   15.3105   25.3622 C   0  0  0  0  0  0  0  0  0  0  0  0
  1  2  2  0
  2  3  1  0
  3  4  1  0
  4  5  1  0
  5  6  2  0
  6  7  1  0
  7  8  2  0
  8  9  1  0
  9 10  2  0
  4 11  1  0
 11 12  1  0
 12 13  1  0
  2 14  1  0
 14 15  1  0
 15 16  1  0
 16 17  1  0
 17 18  1  0
 18 19  2  0
 18 20  2  0
 18 21  1  0
 21 22  1  0
 22 23  1  0
 23 24  1  0
 24 25  1  0
 25 26  1  0
 17 27  1  0
 27 28  1  0
 13  4  1  0
 28 14  1  0
 10  5  1  0
 26 21  1  0
M  END
>  <energy_score>  (1145) 
-48.676932

>  <inchikey>  (1145) 
None

>  <smiles>  (1145) 
None

>  <ref_pdb>  (1145) 
A4706a

>  <alias>  (1145) 
None

>  <HIPPO Pose ID>  (1145) 
500429

>  <name>  (1145) 
P500429

>  <HIPPO Compound ID>  (1145) 
314723

>  <ref_mols>  (1145) 
A4706a,A0875a

>  <distance_score>  (1145) 
1.482332

>  <inspiration_score>  (1145) 
None

$$$$
P500430
     RDKit          3D

 28 31  0  0  0  0  0  0  0  0999 V2000
   15.2507   10.3956   26.0560 O   0  0  0  0  0  0  0  0  0  0  0  0
   14.8257   11.2852   26.7789 C   0  0  0  0  0  0  0  0  0  0  0  0
   15.5213   11.8966   27.7753 O   0  0  0  0  0  0  0  0  0  0  0  0
   16.8529   11.4220   28.0199 C   0  0  1  0  0  0  0  0  0  0  0  0
   17.7898   12.5728   28.3734 C   0  0  0  0  0  0  0  0  0  0  0  0
   18.9644   11.9013   29.0869 C   0  0  0  0  0  0  0  0  0  0  0  0
   18.4903   10.4872   29.4539 C   0  0  0  0  0  0  0  0  0  0  0  0
   16.9743   10.5206   29.2599 C   0  0  1  0  0  0  0  0  0  0  0  0
   16.4222   11.1053   30.4444 O   0  0  0  0  0  0  0  0  0  0  0  0
   14.9817   11.0930   30.5978 C   0  0  0  0  0  0  0  0  0  0  0  0
   14.4484   10.9387   32.0377 C   0  0  0  0  0  0  0  0  0  0  0  0
   14.3293   12.4122   32.1328 N   0  0  0  0  0  0  0  0  0  0  0  0
   14.3127   12.4828   30.6583 C   0  0  0  0  0  0  0  0  0  0  0  0
   13.3789   11.7686   26.7290 C   0  0  0  0  0  0  0  0  0  0  0  0
   13.2880   13.2361   26.8295 C   0  0  0  0  0  0  0  0  0  0  0  0
   11.8515   13.7417   26.9081 C   0  0  0  0  0  0  0  0  0  0  0  0
   10.9806   13.1027   25.9053 N   0  0  0  0  0  0  0  0  0  0  0  0
    9.6548   14.0563   25.4275 S   0  0  0  0  0  0  0  0  0  0  0  0
    9.3676   13.8247   24.0352 O   0  0  0  0  0  0  0  0  0  0  0  0
    9.8517   15.3877   25.9420 O   0  0  0  0  0  0  0  0  0  0  0  0
    8.4592   13.3399   26.3803 N   0  0  0  0  0  0  0  0  0  0  0  0
    8.0493   11.9608   26.0510 C   0  0  0  0  0  0  0  0  0  0  0  0
    7.0827   11.9291   24.8853 C   0  0  0  0  0  0  0  0  0  0  0  0
    5.9178   12.8955   25.0555 C   0  0  0  0  0  0  0  0  0  0  0  0
    6.3659   14.2884   25.4772 C   0  0  0  0  0  0  0  0  0  0  0  0
    7.2882   14.2065   26.6830 C   0  0  0  0  0  0  0  0  0  0  0  0
   11.6813   12.4032   24.8310 C   0  0  0  0  0  0  0  0  0  0  0  0
   12.6750   11.3766   25.4175 C   0  0  0  0  0  0  0  0  0  0  0  0
  1  2  2  0
  2  3  1  0
  4  3  1  1
  4  5  1  0
  5  6  1  0
  6  7  1  0
  7  8  1  0
  8  9  1  1
  9 10  1  0
 10 11  1  0
 11 12  1  0
 12 13  1  0
  2 14  1  0
 14 15  1  0
 15 16  1  0
 16 17  1  0
 17 18  1  0
 18 19  2  0
 18 20  2  0
 18 21  1  0
 21 22  1  0
 22 23  1  0
 23 24  1  0
 24 25  1  0
 25 26  1  0
 17 27  1  0
 27 28  1  0
  8  4  1  0
 13 10  1  0
 28 14  1  0
 26 21  1  0
M  END
>  <energy_score>  (1146) 
-82.930973

>  <inchikey>  (1146) 
None

>  <smiles>  (1146) 
None

>  <ref_pdb>  (1146) 
A4706a

>  <alias>  (1146) 
None

>  <HIPPO Pose ID>  (1146) 
500430

>  <name>  (1146) 
P500430

>  <HIPPO Compound ID>  (1146) 
314725

>  <ref_mols>  (1146) 
A0875a,A4706a

>  <distance_score>  (1146) 
1.895068

>  <inspiration_score>  (1146) 
None

$$$$
P500432
     RDKit          3D

 28 32  0  0  0  0  0  0  0  0999 V2000
    6.5135   12.9567   21.9888 O   0  0  0  0  0  0  0  0  0  0  0  0
    6.7993   13.7456   22.8808 C   0  0  0  0  0  0  0  0  0  0  0  0
    7.7578   14.6809   22.7570 O   0  0  0  0  0  0  0  0  0  0  0  0
    8.7326   14.5036   21.6841 C   0  0  2  0  0  0  0  0  0  0  0  0
   10.0920   14.3036   22.3844 C   0  0  2  0  0  0  0  0  0  0  0  0
   10.3065   15.7087   22.9063 C   0  0  0  0  0  0  0  0  0  0  0  0
   10.2426   16.3348   21.5352 C   0  0  2  0  0  0  0  0  0  0  0  0
    8.9646   15.8139   20.9261 C   0  0  1  0  0  0  0  0  0  0  0  0
    9.3046   15.5609   19.5559 O   0  0  0  0  0  0  0  0  0  0  0  0
   10.6426   15.3914   19.4310 C   0  0  0  0  0  0  0  0  0  0  0  0
   11.2195   15.0912   18.4081 O   0  0  0  0  0  0  0  0  0  0  0  0
   11.2762   15.5502   20.7602 C   0  0  2  0  0  0  0  0  0  0  0  0
   11.3127   14.2360   21.4827 C   0  0  0  0  0  0  0  0  0  0  0  0
    6.1421   13.6324   24.2499 C   0  0  0  0  0  0  0  0  0  0  0  0
    6.6613   12.3663   24.9734 C   0  0  0  0  0  0  0  0  0  0  0  0
    7.6887   12.6700   26.0592 C   0  0  0  0  0  0  0  0  0  0  0  0
    8.4678   13.8348   25.5988 N   0  0  0  0  0  0  0  0  0  0  0  0
   10.0524   14.0493   26.1211 S   0  0  0  0  0  0  0  0  0  0  0  0
   10.1697   13.5336   27.4544 O   0  0  0  0  0  0  0  0  0  0  0  0
   10.4120   15.4182   25.8347 O   0  0  0  0  0  0  0  0  0  0  0  0
   10.9919   13.0997   25.1375 N   0  0  0  0  0  0  0  0  0  0  0  0
   12.3232   13.5811   24.7603 C   0  0  0  0  0  0  0  0  0  0  0  0
   13.4481   12.9655   25.5706 C   0  0  0  0  0  0  0  0  0  0  0  0
   13.4983   11.4948   25.2644 C   0  0  0  0  0  0  0  0  0  0  0  0
   12.1076   10.9809   25.5244 C   0  0  0  0  0  0  0  0  0  0  0  0
   10.8518   11.6676   24.9941 C   0  0  0  0  0  0  0  0  0  0  0  0
    7.6244   15.0598   25.7604 C   0  0  0  0  0  0  0  0  0  0  0  0
    6.2471   14.8698   25.1318 C   0  0  0  0  0  0  0  0  0  0  0  0
  1  2  2  0
  2  3  1  0
  4  3  1  1
  4  5  1  0
  5  6  1  0
  7  6  1  1
  7  8  1  0
  8  9  1  6
  9 10  1  0
 10 11  2  0
 10 12  1  0
 12 13  1  1
  2 14  1  0
 14 15  1  0
 15 16  1  0
 16 17  1  0
 17 18  1  0
 18 19  2  0
 18 20  2  0
 18 21  1  0
 21 22  1  0
 22 23  1  0
 23 24  1  0
 24 25  1  0
 25 26  1  0
 17 27  1  0
 27 28  1  0
  8  4  1  0
 28 14  1  0
  5 13  1  6
 26 21  1  0
 12  7  1  0
M  END
>  <energy_score>  (1147) 
-42.357274

>  <inchikey>  (1147) 
None

>  <smiles>  (1147) 
None

>  <ref_pdb>  (1147) 
A4706a

>  <alias>  (1147) 
None

>  <HIPPO Pose ID>  (1147) 
500432

>  <name>  (1147) 
P500432

>  <HIPPO Compound ID>  (1147) 
314727

>  <ref_mols>  (1147) 
A0875a,A4706a

>  <distance_score>  (1147) 
1.428802

>  <inspiration_score>  (1147) 
None

$$$$
P500433
     RDKit          3D

 28 31  0  0  0  0  0  0  0  0999 V2000
    6.6109   13.2983   22.7409 O   0  0  0  0  0  0  0  0  0  0  0  0
    6.6065   14.3174   23.4311 C   0  0  0  0  0  0  0  0  0  0  0  0
    7.2789   15.4594   23.1373 O   0  0  0  0  0  0  0  0  0  0  0  0
    7.8529   15.6706   21.8342 C   0  0  2  0  0  0  0  0  0  0  0  0
    7.9961   14.5165   20.8820 C   0  0  0  0  0  0  0  0  0  0  0  0
    8.8637   14.9331   19.8196 O   0  0  0  0  0  0  0  0  0  0  0  0
    9.5541   16.1062   20.2213 C   0  0  0  0  0  0  0  0  0  0  0  0
    9.2408   16.2736   21.7006 C   0  0  2  0  0  0  0  0  0  0  0  0
   10.3272   15.6496   22.4210 N   0  0  0  0  0  0  0  0  0  0  0  0
   10.4928   14.3112   22.6380 C   0  0  0  0  0  0  0  0  0  0  0  0
   11.7699   14.0380   22.2523 C   0  0  0  0  0  0  0  0  0  0  0  0
   12.3463   15.2910   22.0450 C   0  0  0  0  0  0  0  0  0  0  0  0
   11.5082   16.2755   22.3392 N   0  0  0  0  0  0  0  0  0  0  0  0
    5.7435   14.4115   24.6970 C   0  0  0  0  0  0  0  0  0  0  0  0
    5.6358   13.0122   25.3238 C   0  0  0  0  0  0  0  0  0  0  0  0
    6.9808   12.5788   25.8941 C   0  0  0  0  0  0  0  0  0  0  0  0
    7.6177   13.6238   26.7415 N   0  0  0  0  0  0  0  0  0  0  0  0
    9.1400   14.2441   26.3291 S   0  0  0  0  0  0  0  0  0  0  0  0
    9.5133   15.1665   27.3707 O   0  0  0  0  0  0  0  0  0  0  0  0
    9.0720   14.6946   24.9660 O   0  0  0  0  0  0  0  0  0  0  0  0
   10.2489   12.9523   26.4076 N   0  0  0  0  0  0  0  0  0  0  0  0
    9.9789   11.8897   25.4300 C   0  0  0  0  0  0  0  0  0  0  0  0
   11.0980   10.9319   25.1597 C   0  0  0  0  0  0  0  0  0  0  0  0
   12.4944   11.5596   25.1950 C   0  0  0  0  0  0  0  0  0  0  0  0
   12.6989   12.4726   26.3725 C   0  0  0  0  0  0  0  0  0  0  0  0
   11.6266   13.5360   26.3484 C   0  0  0  0  0  0  0  0  0  0  0  0
    6.6618   14.7273   27.0622 C   0  0  0  0  0  0  0  0  0  0  0  0
    6.1829   15.4128   25.7755 C   0  0  0  0  0  0  0  0  0  0  0  0
  1  2  2  0
  2  3  1  0
  4  3  1  1
  4  5  1  0
  5  6  1  0
  6  7  1  0
  7  8  1  0
  8  9  1  1
  9 10  1  0
 10 11  2  0
 11 12  1  0
 12 13  2  0
  2 14  1  0
 14 15  1  0
 15 16  1  0
 16 17  1  0
 17 18  1  0
 18 19  2  0
 18 20  2  0
 18 21  1  0
 21 22  1  0
 22 23  1  0
 23 24  1  0
 24 25  1  0
 25 26  1  0
 17 27  1  0
 27 28  1  0
  8  4  1  0
 13  9  1  0
 28 14  1  0
 26 21  1  0
M  END
>  <energy_score>  (1148) 
-19.652334

>  <inchikey>  (1148) 
None

>  <smiles>  (1148) 
None

>  <ref_pdb>  (1148) 
A4706a

>  <alias>  (1148) 
None

>  <HIPPO Pose ID>  (1148) 
500433

>  <name>  (1148) 
P500433

>  <HIPPO Compound ID>  (1148) 
314728

>  <ref_mols>  (1148) 
A4706a,A0875a

>  <distance_score>  (1148) 
1.706028

>  <inspiration_score>  (1148) 
None

$$$$
P500436
     RDKit          3D

 28 30  0  0  0  0  0  0  0  0999 V2000
    9.6400   16.7843   19.4231 C   0  0  0  0  0  0  0  0  0  0  0  0
    9.1851   16.6476   20.8600 C   0  0  0  0  0  0  0  0  0  0  0  0
    8.3768   17.8831   21.1688 C   0  0  0  0  0  0  0  0  0  0  0  0
   10.4074   16.6387   21.6320 O   0  0  0  0  0  0  0  0  0  0  0  0
   10.6076   15.3213   22.1067 C   0  0  0  0  0  0  0  0  0  0  0  0
    9.7032   14.4261   21.2920 C   0  0  2  0  0  0  0  0  0  0  0  0
   10.1548   14.1777   19.9273 N   0  0  0  0  0  0  0  0  0  0  0  0
   11.3354   14.3476   19.6321 N   0  0  0  0  0  0  0  0  0  0  0  0
   12.4262   14.4592   19.3602 N   0  0  0  0  0  0  0  0  0  0  0  0
    8.4786   15.3026   21.1391 C   0  0  1  0  0  0  0  0  0  0  0  0
    7.7090   15.3244   22.3462 O   0  0  0  0  0  0  0  0  0  0  0  0
    6.9790   14.2075   22.6249 C   0  0  0  0  0  0  0  0  0  0  0  0
    6.4660   13.4367   21.8324 O   0  0  0  0  0  0  0  0  0  0  0  0
    7.0006   14.0246   24.1038 C   0  0  0  0  0  0  0  0  0  0  0  0
    6.5947   12.6703   24.6973 C   0  0  0  0  0  0  0  0  0  0  0  0
    7.2678   12.4815   26.0698 C   0  0  0  0  0  0  0  0  0  0  0  0
    7.9036   13.7501   26.4493 N   0  0  0  0  0  0  0  0  0  0  0  0
    9.5362   14.0555   26.3689 S   0  0  0  0  0  0  0  0  0  0  0  0
   10.2034   13.1845   27.2894 O   0  0  0  0  0  0  0  0  0  0  0  0
    9.7233   15.4827   26.4789 O   0  0  0  0  0  0  0  0  0  0  0  0
   10.2364   13.6114   24.8934 N   0  0  0  0  0  0  0  0  0  0  0  0
   11.6992   13.9754   24.9743 C   0  0  0  0  0  0  0  0  0  0  0  0
   12.6322   12.8047   24.7937 C   0  0  0  0  0  0  0  0  0  0  0  0
   12.1686   11.5722   25.5223 C   0  0  0  0  0  0  0  0  0  0  0  0
   10.7337   11.1926   25.1262 C   0  0  0  0  0  0  0  0  0  0  0  0
   10.0701   12.2645   24.2947 C   0  0  0  0  0  0  0  0  0  0  0  0
    6.9442   14.8888   26.4215 C   0  0  0  0  0  0  0  0  0  0  0  0
    6.5161   15.1647   24.9805 C   0  0  0  0  0  0  0  0  0  0  0  0
  1  2  1  0
  2  3  1  0
  2  4  1  0
  4  5  1  0
  5  6  1  0
  6  7  1  6
  7  8  2  0
  8  9  2  0
  6 10  1  0
 10 11  1  1
 11 12  1  0
 12 13  2  0
 12 14  1  0
 14 15  1  0
 15 16  1  0
 16 17  1  0
 17 18  1  0
 18 19  2  0
 18 20  2  0
 18 21  1  0
 21 22  1  0
 22 23  1  0
 23 24  1  0
 24 25  1  0
 25 26  1  0
 17 27  1  0
 27 28  1  0
 10  2  1  0
 28 14  1  0
 26 21  1  0
M  CHG  2   8   1   9  -1
M  END
>  <energy_score>  (1149) 
-24.559003

>  <inchikey>  (1149) 
None

>  <smiles>  (1149) 
None

>  <ref_pdb>  (1149) 
A4706a

>  <alias>  (1149) 
None

>  <HIPPO Pose ID>  (1149) 
500436

>  <name>  (1149) 
P500436

>  <HIPPO Compound ID>  (1149) 
314730

>  <ref_mols>  (1149) 
A4706a,A0875a

>  <distance_score>  (1149) 
1.732139

>  <inspiration_score>  (1149) 
None

$$$$
P500439
     RDKit          3D

 29 32  0  0  0  0  0  0  0  0999 V2000
    6.6617   13.0218   22.4990 O   0  0  0  0  0  0  0  0  0  0  0  0
    6.5489   14.1518   22.9763 C   0  0  0  0  0  0  0  0  0  0  0  0
    7.1119   15.2575   22.4176 O   0  0  0  0  0  0  0  0  0  0  0  0
    8.0553   14.9435   21.3591 C   0  0  0  0  0  0  0  0  0  0  0  0
    8.7840   16.2097   20.8395 C   0  0  2  0  0  0  0  0  0  0  0  0
    9.5505   16.0458   19.5034 C   0  0  0  0  0  0  0  0  0  0  0  0
   10.6924   15.2146   19.5359 O   0  0  0  0  0  0  0  0  0  0  0  0
   11.1221   15.0700   20.8073 C   0  0  0  0  0  0  0  0  0  0  0  0
   11.8208   13.9435   21.0468 C   0  0  0  0  0  0  0  0  0  0  0  0
   12.0127   13.5628   22.3527 C   0  0  0  0  0  0  0  0  0  0  0  0
   11.8406   14.4347   23.3907 C   0  0  0  0  0  0  0  0  0  0  0  0
   11.1654   15.5928   23.1593 C   0  0  0  0  0  0  0  0  0  0  0  0
   10.7263   15.8366   21.8857 C   0  0  0  0  0  0  0  0  0  0  0  0
    9.7166   16.7247   21.7738 O   0  0  0  0  0  0  0  0  0  0  0  0
    5.6947   14.4347   24.2219 C   0  0  0  0  0  0  0  0  0  0  0  0
    5.4913   13.1290   25.0130 C   0  0  0  0  0  0  0  0  0  0  0  0
    6.7816   12.6461   25.6720 C   0  0  0  0  0  0  0  0  0  0  0  0
    7.4996   13.7339   26.3874 N   0  0  0  0  0  0  0  0  0  0  0  0
    9.0420   14.1686   25.8405 S   0  0  0  0  0  0  0  0  0  0  0  0
    8.9505   14.3562   24.4188 O   0  0  0  0  0  0  0  0  0  0  0  0
    9.4990   15.2324   26.7023 O   0  0  0  0  0  0  0  0  0  0  0  0
   10.0389   12.8099   26.1447 N   0  0  0  0  0  0  0  0  0  0  0  0
   10.0161   11.8498   25.0195 C   0  0  0  0  0  0  0  0  0  0  0  0
   11.0314   10.7615   25.1521 C   0  0  0  0  0  0  0  0  0  0  0  0
   12.4335   11.3459   25.3619 C   0  0  0  0  0  0  0  0  0  0  0  0
   12.5390   12.3082   26.5216 C   0  0  0  0  0  0  0  0  0  0  0  0
   11.3727   13.2733   26.6488 C   0  0  0  0  0  0  0  0  0  0  0  0
    6.6324   14.9424   26.5539 C   0  0  0  0  0  0  0  0  0  0  0  0
    6.2214   15.5097   25.1853 C   0  0  0  0  0  0  0  0  0  0  0  0
  1  2  2  0
  2  3  1  0
  3  4  1  0
  5  4  1  1
  5  6  1  0
  6  7  1  0
  7  8  1  0
  8  9  2  0
  9 10  1  0
 10 11  2  0
 11 12  1  0
 12 13  2  0
 13 14  1  0
  2 15  1  0
 15 16  1  0
 16 17  1  0
 17 18  1  0
 18 19  1  0
 19 20  2  0
 19 21  2  0
 19 22  1  0
 22 23  1  0
 23 24  1  0
 24 25  1  0
 25 26  1  0
 26 27  1  0
 18 28  1  0
 28 29  1  0
 14  5  1  0
 29 15  1  0
 13  8  1  0
 27 22  1  0
M  END
>  <energy_score>  (1150) 
-44.037573

>  <inchikey>  (1150) 
None

>  <smiles>  (1150) 
None

>  <ref_pdb>  (1150) 
A4706a

>  <alias>  (1150) 
None

>  <HIPPO Pose ID>  (1150) 
500439

>  <name>  (1150) 
P500439

>  <HIPPO Compound ID>  (1150) 
314735

>  <ref_mols>  (1150) 
A4706a,A0875a

>  <distance_score>  (1150) 
1.744317

>  <inspiration_score>  (1150) 
None

$$$$
P500442
     RDKit          3D

 29 32  0  0  0  0  0  0  0  0999 V2000
    5.4951   14.4865   22.8737 O   0  0  0  0  0  0  0  0  0  0  0  0
    6.1230   13.6814   23.5462 C   0  0  0  0  0  0  0  0  0  0  0  0
    7.3731   13.2548   23.2622 O   0  0  0  0  0  0  0  0  0  0  0  0
    8.1241   13.9803   22.2755 C   0  0  2  0  0  0  0  0  0  0  0  0
    9.4911   13.3219   22.2299 C   0  0  0  0  0  0  0  0  0  0  0  0
   10.3864   14.1884   22.9206 O   0  0  0  0  0  0  0  0  0  0  0  0
    9.9729   15.5160   22.5281 C   0  0  1  0  0  0  0  0  0  0  0  0
   10.5081   15.6730   21.1321 C   0  0  0  0  0  0  0  0  0  0  0  0
   11.7666   15.1454   20.8621 C   0  0  0  0  0  0  0  0  0  0  0  0
   12.0638   14.7236   19.5905 C   0  0  0  0  0  0  0  0  0  0  0  0
   11.1481   14.8763   18.5774 C   0  0  0  0  0  0  0  0  0  0  0  0
    9.9488   15.5176   18.8302 C   0  0  0  0  0  0  0  0  0  0  0  0
    9.6741   16.0153   20.0871 C   0  0  0  0  0  0  0  0  0  0  0  0
    8.4542   15.4059   22.6857 C   0  0  0  0  0  0  0  0  0  0  0  0
    5.6154   13.0811   24.8531 C   0  0  0  0  0  0  0  0  0  0  0  0
    6.4593   11.9150   25.4218 C   0  0  0  0  0  0  0  0  0  0  0  0
    7.5164   12.3696   26.4342 C   0  0  0  0  0  0  0  0  0  0  0  0
    7.9793   13.6964   26.0282 N   0  0  0  0  0  0  0  0  0  0  0  0
    9.4634   14.2878   26.5188 S   0  0  0  0  0  0  0  0  0  0  0  0
    9.8938   15.2617   25.5481 O   0  0  0  0  0  0  0  0  0  0  0  0
    9.2984   14.6703   27.9003 O   0  0  0  0  0  0  0  0  0  0  0  0
   10.5927   13.0165   26.5363 N   0  0  0  0  0  0  0  0  0  0  0  0
   11.8484   13.5499   27.1721 C   0  0  0  0  0  0  0  0  0  0  0  0
   13.0439   12.6219   27.0018 C   0  0  0  0  0  0  0  0  0  0  0  0
   13.3044   12.2586   25.5505 C   0  0  0  0  0  0  0  0  0  0  0  0
   12.1834   12.7813   24.6622 C   0  0  0  0  0  0  0  0  0  0  0  0
   10.8414   12.3576   25.2356 C   0  0  0  0  0  0  0  0  0  0  0  0
    6.9085   14.7343   26.2424 C   0  0  0  0  0  0  0  0  0  0  0  0
    5.5283   14.2008   25.8800 C   0  0  0  0  0  0  0  0  0  0  0  0
  1  2  2  0
  2  3  1  0
  4  3  1  1
  4  5  1  0
  5  6  1  0
  6  7  1  0
  7  8  1  6
  8  9  2  0
  9 10  1  0
 10 11  2  0
 11 12  1  0
 12 13  2  0
  7 14  1  0
  2 15  1  0
 15 16  1  0
 16 17  1  0
 17 18  1  0
 18 19  1  0
 19 20  2  0
 19 21  2  0
 19 22  1  0
 22 23  1  0
 23 24  1  0
 24 25  1  0
 25 26  1  0
 26 27  1  0
 18 28  1  0
 28 29  1  0
 14  4  1  0
 29 15  1  0
 13  8  1  0
 27 22  1  0
M  END
>  <energy_score>  (1151) 
-43.614503

>  <inchikey>  (1151) 
None

>  <smiles>  (1151) 
None

>  <ref_pdb>  (1151) 
A4706a

>  <alias>  (1151) 
None

>  <HIPPO Pose ID>  (1151) 
500442

>  <name>  (1151) 
P500442

>  <HIPPO Compound ID>  (1151) 
314737

>  <ref_mols>  (1151) 
A4706a,A0875a

>  <distance_score>  (1151) 
1.82554

>  <inspiration_score>  (1151) 
None

$$$$
P500443
     RDKit          3D

 29 32  0  0  0  0  0  0  0  0999 V2000
    6.4267   13.0448   22.1094 O   0  0  0  0  0  0  0  0  0  0  0  0
    6.5038   14.0455   22.8253 C   0  0  0  0  0  0  0  0  0  0  0  0
    7.1582   15.1685   22.4403 O   0  0  0  0  0  0  0  0  0  0  0  0
    8.0885   14.9223   21.3563 C   0  0  0  0  0  0  0  0  0  0  0  0
    8.7930   16.2117   20.8791 C   0  0  2  0  0  0  0  0  0  0  0  0
    9.5554   16.0901   19.5376 C   0  0  0  0  0  0  0  0  0  0  0  0
   10.7207   15.2917   19.5574 O   0  0  0  0  0  0  0  0  0  0  0  0
   11.1494   15.1400   20.8278 C   0  0  0  0  0  0  0  0  0  0  0  0
   11.8208   13.9966   21.0654 C   0  0  0  0  0  0  0  0  0  0  0  0
   11.9918   13.6230   22.3710 C   0  0  0  0  0  0  0  0  0  0  0  0
   11.7873   14.5322   23.3667 C   0  0  0  0  0  0  0  0  0  0  0  0
   11.1596   15.6772   23.1840 N   0  0  0  0  0  0  0  0  0  0  0  0
   10.7680   15.8895   21.9264 C   0  0  0  0  0  0  0  0  0  0  0  0
    9.7094   16.7238   21.8266 O   0  0  0  0  0  0  0  0  0  0  0  0
    5.9003   14.0407   24.2381 C   0  0  0  0  0  0  0  0  0  0  0  0
    6.3012   12.6792   24.8800 C   0  0  0  0  0  0  0  0  0  0  0  0
    6.8874   12.6677   26.2772 C   0  0  0  0  0  0  0  0  0  0  0  0
    7.5719   13.9168   26.5984 N   0  0  0  0  0  0  0  0  0  0  0  0
    9.0509   14.3213   25.8914 S   0  0  0  0  0  0  0  0  0  0  0  0
    8.8560   14.4237   24.4704 O   0  0  0  0  0  0  0  0  0  0  0  0
    9.5730   15.4116   26.6757 O   0  0  0  0  0  0  0  0  0  0  0  0
   10.0342   12.9444   26.1632 N   0  0  0  0  0  0  0  0  0  0  0  0
   11.3759   13.3661   26.6702 C   0  0  0  0  0  0  0  0  0  0  0  0
   12.5055   12.3604   26.5191 C   0  0  0  0  0  0  0  0  0  0  0  0
   12.3572   11.4124   25.3499 C   0  0  0  0  0  0  0  0  0  0  0  0
   10.9288   10.8952   25.1236 C   0  0  0  0  0  0  0  0  0  0  0  0
    9.9892   12.0445   24.9882 C   0  0  0  0  0  0  0  0  0  0  0  0
    6.5848   15.0277   26.5355 C   0  0  0  0  0  0  0  0  0  0  0  0
    6.1562   15.2943   25.0939 C   0  0  0  0  0  0  0  0  0  0  0  0
  1  2  2  0
  2  3  1  0
  3  4  1  0
  5  4  1  1
  5  6  1  0
  6  7  1  0
  7  8  1  0
  8  9  2  0
  9 10  1  0
 10 11  2  0
 11 12  1  0
 12 13  2  0
 13 14  1  0
  2 15  1  0
 15 16  1  0
 16 17  1  0
 17 18  1  0
 18 19  1  0
 19 20  2  0
 19 21  2  0
 19 22  1  0
 22 23  1  0
 23 24  1  0
 24 25  1  0
 25 26  1  0
 26 27  1  0
 18 28  1  0
 28 29  1  0
 14  5  1  0
 29 15  1  0
 13  8  1  0
 27 22  1  0
M  END
>  <energy_score>  (1152) 
-2.205248

>  <inchikey>  (1152) 
None

>  <smiles>  (1152) 
None

>  <ref_pdb>  (1152) 
A4706a

>  <alias>  (1152) 
None

>  <HIPPO Pose ID>  (1152) 
500443

>  <name>  (1152) 
P500443

>  <HIPPO Compound ID>  (1152) 
314738

>  <ref_mols>  (1152) 
A4706a,A0875a

>  <distance_score>  (1152) 
1.545905

>  <inspiration_score>  (1152) 
None

$$$$
P500445
     RDKit          3D

 29 31  0  0  0  0  0  0  0  0999 V2000
   12.1282   14.3026   23.4793 O   0  0  0  0  0  0  0  0  0  0  0  0
   11.4293   14.4316   22.4884 C   0  0  0  0  0  0  0  0  0  0  0  0
   10.2977   13.7340   22.2427 O   0  0  0  0  0  0  0  0  0  0  0  0
    9.6863   14.2114   21.0344 C   0  0  1  0  0  0  0  0  0  0  0  0
    8.3002   14.8011   21.3753 C   0  0  2  0  0  0  0  0  0  0  0  0
    8.3784   16.1816   21.9845 C   0  0  0  0  0  0  0  0  0  0  0  0
    8.8626   17.5992   20.7556 Br  0  0  0  0  0  0  0  0  0  0  0  0
    7.7017   13.8702   22.3464 O   0  0  0  0  0  0  0  0  0  0  0  0
    6.4415   14.0680   22.8000 C   0  0  0  0  0  0  0  0  0  0  0  0
    5.5887   14.6936   22.1876 O   0  0  0  0  0  0  0  0  0  0  0  0
    6.2394   13.4976   24.2124 C   0  0  0  0  0  0  0  0  0  0  0  0
    7.1574   12.2930   24.5345 C   0  0  0  0  0  0  0  0  0  0  0  0
    7.5164   12.1189   25.9918 C   0  0  0  0  0  0  0  0  0  0  0  0
    7.9509   13.3892   26.5668 N   0  0  0  0  0  0  0  0  0  0  0  0
    9.3649   14.1559   26.0431 S   0  0  0  0  0  0  0  0  0  0  0  0
    9.2708   14.4245   24.6329 O   0  0  0  0  0  0  0  0  0  0  0  0
    9.5357   15.2647   26.9539 O   0  0  0  0  0  0  0  0  0  0  0  0
   10.6424   13.0549   26.3323 N   0  0  0  0  0  0  0  0  0  0  0  0
   10.8657   12.0114   25.3116 C   0  0  0  0  0  0  0  0  0  0  0  0
   12.2445   11.3530   25.3774 C   0  0  0  0  0  0  0  0  0  0  0  0
   13.1529   11.7140   26.5138 C   0  0  0  0  0  0  0  0  0  0  0  0
   13.2052   13.1805   26.5180 C   0  0  0  0  0  0  0  0  0  0  0  0
   11.8475   13.8248   26.7566 C   0  0  0  0  0  0  0  0  0  0  0  0
    6.7728   14.3063   26.6127 C   0  0  0  0  0  0  0  0  0  0  0  0
    6.3286   14.6788   25.2019 C   0  0  0  0  0  0  0  0  0  0  0  0
   10.7659   15.0000   20.4065 C   0  0  0  0  0  0  0  0  0  0  0  0
   10.8430   15.2911   19.0695 O   0  0  0  0  0  0  0  0  0  0  0  0
   11.7207   15.2393   21.3008 C   0  0  0  0  0  0  0  0  0  0  0  0
   12.8702   15.9331   21.1652 O   0  0  0  0  0  0  0  0  0  0  0  0
  1  2  2  0
  2  3  1  0
  4  3  1  1
  4  5  1  0
  5  6  1  1
  6  7  1  0
  5  8  1  0
  8  9  1  0
  9 10  2  0
  9 11  1  0
 11 12  1  0
 12 13  1  0
 13 14  1  0
 14 15  1  0
 15 16  2  0
 15 17  2  0
 15 18  1  0
 18 19  1  0
 19 20  1  0
 20 21  1  0
 21 22  1  0
 22 23  1  0
 14 24  1  0
 24 25  1  0
  4 26  1  0
 26 27  1  0
 26 28  2  0
 28 29  1  0
 28  2  1  0
 25 11  1  0
 23 18  1  0
M  END
>  <energy_score>  (1153) 
-62.548401

>  <inchikey>  (1153) 
None

>  <smiles>  (1153) 
None

>  <ref_pdb>  (1153) 
A4706a

>  <alias>  (1153) 
None

>  <HIPPO Pose ID>  (1153) 
500445

>  <name>  (1153) 
P500445

>  <HIPPO Compound ID>  (1153) 
314743

>  <ref_mols>  (1153) 
A4706a,A0875a

>  <distance_score>  (1153) 
1.6322

>  <inspiration_score>  (1153) 
None

$$$$
P500448
     RDKit          3D

 29 31  0  0  0  0  0  0  0  0999 V2000
    4.5461   14.2771   21.3390 C   0  0  0  0  0  0  0  0  0  0  0  0
    5.9740   14.2023   21.3978 O   0  0  0  0  0  0  0  0  0  0  0  0
    6.5886   15.2435   22.0435 C   0  0  0  0  0  0  0  0  0  0  0  0
    6.0005   16.2654   22.3679 O   0  0  0  0  0  0  0  0  0  0  0  0
    8.0299   14.9247   22.3921 C   0  0  1  0  0  0  0  0  0  0  0  0
    8.0919   13.4797   22.4464 O   0  0  0  0  0  0  0  0  0  0  0  0
    7.8091   12.6794   23.4710 C   0  0  0  0  0  0  0  0  0  0  0  0
    8.4290   11.6134   23.5292 O   0  0  0  0  0  0  0  0  0  0  0  0
    6.6883   12.9829   24.4792 C   0  0  0  0  0  0  0  0  0  0  0  0
    6.7536   11.8439   25.5060 C   0  0  0  0  0  0  0  0  0  0  0  0
    8.0577   11.9345   26.3014 C   0  0  0  0  0  0  0  0  0  0  0  0
    8.4027   13.3346   26.6989 N   0  0  0  0  0  0  0  0  0  0  0  0
    9.7481   14.0738   25.9975 S   0  0  0  0  0  0  0  0  0  0  0  0
    9.5384   14.0562   24.5892 O   0  0  0  0  0  0  0  0  0  0  0  0
    9.9614   15.3562   26.6145 O   0  0  0  0  0  0  0  0  0  0  0  0
   11.0549   13.0273   26.3046 N   0  0  0  0  0  0  0  0  0  0  0  0
   11.7663   12.6733   25.0298 C   0  0  0  0  0  0  0  0  0  0  0  0
   12.9128   11.7216   25.3135 C   0  0  0  0  0  0  0  0  0  0  0  0
   13.9141   12.2993   26.2794 C   0  0  0  0  0  0  0  0  0  0  0  0
   13.2253   12.7716   27.5411 C   0  0  0  0  0  0  0  0  0  0  0  0
   11.9712   13.6133   27.3106 C   0  0  0  0  0  0  0  0  0  0  0  0
    7.1974   14.2009   26.7014 C   0  0  0  0  0  0  0  0  0  0  0  0
    6.5961   14.2899   25.2919 C   0  0  0  0  0  0  0  0  0  0  0  0
    9.2535   15.2769   21.5615 C   0  0  0  0  0  0  0  0  0  0  0  0
    9.3070   15.0757   20.1916 C   0  0  0  0  0  0  0  0  0  0  0  0
   10.5134   14.9558   19.5029 C   0  0  0  0  0  0  0  0  0  0  0  0
   11.7015   15.0206   20.2092 C   0  0  0  0  0  0  0  0  0  0  0  0
   11.6932   15.3494   21.5573 C   0  0  0  0  0  0  0  0  0  0  0  0
   10.4795   15.5049   22.2144 C   0  0  0  0  0  0  0  0  0  0  0  0
  1  2  1  0
  2  3  1  0
  3  4  2  0
  3  5  1  0
  5  6  1  6
  6  7  1  0
  7  8  2  0
  7  9  1  0
  9 10  1  0
 10 11  1  0
 11 12  1  0
 12 13  1  0
 13 14  2  0
 13 15  2  0
 13 16  1  0
 16 17  1  0
 17 18  1  0
 18 19  1  0
 19 20  1  0
 20 21  1  0
 12 22  1  0
 22 23  1  0
  5 24  1  0
 24 25  2  0
 25 26  1  0
 26 27  2  0
 27 28  1  0
 28 29  2  0
 23  9  1  0
 29 24  1  0
 21 16  1  0
M  END
>  <energy_score>  (1154) 
-8.909501

>  <inchikey>  (1154) 
None

>  <smiles>  (1154) 
None

>  <ref_pdb>  (1154) 
A4706a

>  <alias>  (1154) 
None

>  <HIPPO Pose ID>  (1154) 
500448

>  <name>  (1154) 
P500448

>  <HIPPO Compound ID>  (1154) 
314745

>  <ref_mols>  (1154) 
A4706a,A0875a

>  <distance_score>  (1154) 
1.699176

>  <inspiration_score>  (1154) 
None

$$$$
P500449
     RDKit          3D

 29 32  0  0  0  0  0  0  0  0999 V2000
   14.3616   13.2606   27.3204 O   0  0  0  0  0  0  0  0  0  0  0  0
   14.3320   12.2609   26.6209 C   0  0  0  0  0  0  0  0  0  0  0  0
   15.0374   11.1363   26.9131 O   0  0  0  0  0  0  0  0  0  0  0  0
   15.8517   11.1223   28.1341 C   0  0  1  0  0  0  0  0  0  0  0  0
   17.1262   11.9591   28.0153 C   0  0  0  0  0  0  0  0  0  0  0  0
   17.8434   12.0790   29.3532 C   0  0  0  0  0  0  0  0  0  0  0  0
   16.9826   12.7129   30.4415 C   0  0  0  0  0  0  0  0  0  0  0  0
   15.4822   12.6510   30.1633 C   0  0  0  0  0  0  0  0  0  0  0  0
   15.0455   11.3706   29.4426 C   0  0  2  0  0  0  0  0  0  0  0  0
   15.2731   10.2353   30.2981 O   0  0  0  0  0  0  0  0  0  0  0  0
   14.3827   10.0560   31.4288 C   0  0  0  0  0  0  0  0  0  0  0  0
   14.9152   10.5026   32.8137 C   0  0  0  0  0  0  0  0  0  0  0  0
   14.3052    9.2927   33.4013 N   0  0  0  0  0  0  0  0  0  0  0  0
   14.3781    8.6466   32.0715 C   0  0  0  0  0  0  0  0  0  0  0  0
   13.4426   12.0768   25.3625 C   0  0  0  0  0  0  0  0  0  0  0  0
   12.9110   13.3923   24.8309 C   0  0  0  0  0  0  0  0  0  0  0  0
   11.8211   13.9755   25.7182 C   0  0  0  0  0  0  0  0  0  0  0  0
   10.6318   13.1067   25.7441 N   0  0  0  0  0  0  0  0  0  0  0  0
    9.2401   13.9565   25.3269 S   0  0  0  0  0  0  0  0  0  0  0  0
    9.1606   13.9449   23.8876 O   0  0  0  0  0  0  0  0  0  0  0  0
    9.2893   15.1893   26.0768 O   0  0  0  0  0  0  0  0  0  0  0  0
    8.0674   12.9594   26.0221 N   0  0  0  0  0  0  0  0  0  0  0  0
    7.2702   12.1277   25.0976 C   0  0  0  0  0  0  0  0  0  0  0  0
    6.2344   12.9982   24.3981 C   0  0  0  0  0  0  0  0  0  0  0  0
    5.3483   13.7268   25.3930 C   0  0  0  0  0  0  0  0  0  0  0  0
    6.1728   14.5105   26.4020 C   0  0  0  0  0  0  0  0  0  0  0  0
    7.2110   13.6084   27.0555 C   0  0  0  0  0  0  0  0  0  0  0  0
   10.8498   11.7857   25.1443 C   0  0  0  0  0  0  0  0  0  0  0  0
   12.2092   11.2664   25.6582 C   0  0  0  0  0  0  0  0  0  0  0  0
  1  2  2  0
  2  3  1  0
  4  3  1  6
  4  5  1  0
  5  6  1  0
  6  7  1  0
  7  8  1  0
  8  9  1  0
  9 10  1  1
 10 11  1  0
 11 12  1  0
 12 13  1  0
 13 14  1  0
  2 15  1  0
 15 16  1  0
 16 17  1  0
 17 18  1  0
 18 19  1  0
 19 20  2  0
 19 21  2  0
 19 22  1  0
 22 23  1  0
 23 24  1  0
 24 25  1  0
 25 26  1  0
 26 27  1  0
 18 28  1  0
 28 29  1  0
  9  4  1  0
 14 11  1  0
 29 15  1  0
 27 22  1  0
M  END
>  <energy_score>  (1155) 
-66.960792

>  <inchikey>  (1155) 
None

>  <smiles>  (1155) 
None

>  <ref_pdb>  (1155) 
A4706a

>  <alias>  (1155) 
None

>  <HIPPO Pose ID>  (1155) 
500449

>  <name>  (1155) 
P500449

>  <HIPPO Compound ID>  (1155) 
314746

>  <ref_mols>  (1155) 
A4706a,A0875a

>  <distance_score>  (1155) 
1.986394

>  <inspiration_score>  (1155) 
None

$$$$
P500450
     RDKit          3D

 29 31  0  0  0  0  0  0  0  0999 V2000
   13.3602   14.1694   31.2615 C   0  0  0  0  0  0  0  0  0  0  0  0
   14.7456   13.6550   30.9259 C   0  0  0  0  0  0  0  0  0  0  0  0
   14.9082   13.4670   29.5088 O   0  0  0  0  0  0  0  0  0  0  0  0
   14.4491   12.2766   29.0305 C   0  0  0  0  0  0  0  0  0  0  0  0
   13.7409   11.4987   29.6538 O   0  0  0  0  0  0  0  0  0  0  0  0
   14.9339   12.0454   27.5992 C   0  0  2  0  0  0  0  0  0  0  0  0
   13.9124   11.2231   26.9638 O   0  0  0  0  0  0  0  0  0  0  0  0
   13.6783   11.4957   25.6591 C   0  0  0  0  0  0  0  0  0  0  0  0
   14.5652   11.5421   24.8181 O   0  0  0  0  0  0  0  0  0  0  0  0
   12.2312   11.8496   25.3441 C   0  0  0  0  0  0  0  0  0  0  0  0
   11.7833   12.9787   26.2715 C   0  0  0  0  0  0  0  0  0  0  0  0
   10.2899   13.1674   26.1560 C   0  0  0  0  0  0  0  0  0  0  0  0
    9.9738   12.9431   24.7307 N   0  0  0  0  0  0  0  0  0  0  0  0
    8.8990   14.0290   24.1081 S   0  0  0  0  0  0  0  0  0  0  0  0
    7.5731   13.5113   24.3107 O   0  0  0  0  0  0  0  0  0  0  0  0
    9.2851   15.2956   24.6773 O   0  0  0  0  0  0  0  0  0  0  0  0
    9.2004   14.0140   22.4654 N   0  0  0  0  0  0  0  0  0  0  0  0
   10.5367   13.7054   21.9217 C   0  0  0  0  0  0  0  0  0  0  0  0
   11.5505   14.7754   22.1995 C   0  0  0  0  0  0  0  0  0  0  0  0
   10.9152   16.1278   22.0242 C   0  0  0  0  0  0  0  0  0  0  0  0
    9.6582   16.1035   21.1573 C   0  0  0  0  0  0  0  0  0  0  0  0
    8.5876   15.1624   21.7255 C   0  0  0  0  0  0  0  0  0  0  0  0
    9.9005   11.5143   24.3690 C   0  0  0  0  0  0  0  0  0  0  0  0
   11.0724   10.8235   25.0974 C   0  0  0  0  0  0  0  0  0  0  0  0
   16.3642   11.4724   27.5731 C   0  0  1  0  0  0  0  0  0  0  0  0
   17.4424   12.4810   27.9682 C   0  0  0  0  0  0  0  0  0  0  0  0
   18.5979   11.6008   28.3690 C   0  0  0  0  0  0  0  0  0  0  0  0
   17.9756   10.5422   29.0948 O   0  0  0  0  0  0  0  0  0  0  0  0
   16.6912   10.2982   28.4983 C   0  0  0  0  0  0  0  0  0  0  0  0
  1  2  1  0
  2  3  1  0
  3  4  1  0
  4  5  2  0
  4  6  1  0
  6  7  1  1
  7  8  1  0
  8  9  2  0
  8 10  1  0
 10 11  1  0
 11 12  1  0
 12 13  1  0
 13 14  1  0
 14 15  2  0
 14 16  2  0
 14 17  1  0
 17 18  1  0
 18 19  1  0
 19 20  1  0
 20 21  1  0
 21 22  1  0
 13 23  1  0
 23 24  1  0
  6 25  1  0
 25 26  1  1
 26 27  1  0
 27 28  1  0
 28 29  1  0
 24 10  1  0
 29 25  1  0
 22 17  1  0
M  END
>  <energy_score>  (1156) 
-33.121283

>  <inchikey>  (1156) 
None

>  <smiles>  (1156) 
None

>  <ref_pdb>  (1156) 
A4706a

>  <alias>  (1156) 
None

>  <HIPPO Pose ID>  (1156) 
500450

>  <name>  (1156) 
P500450

>  <HIPPO Compound ID>  (1156) 
314750

>  <ref_mols>  (1156) 
A0875a,A4706a

>  <distance_score>  (1156) 
1.658965

>  <inspiration_score>  (1156) 
None

$$$$
P500451
     RDKit          3D

 29 31  0  0  0  0  0  0  0  0999 V2000
    8.2080   18.6973   20.2940 C   0  0  0  0  0  0  0  0  0  0  0  0
    8.6637   17.3909   20.6207 O   0  0  0  0  0  0  0  0  0  0  0  0
    7.9433   16.6044   21.4701 C   0  0  0  0  0  0  0  0  0  0  0  0
    7.0668   16.9167   22.2630 O   0  0  0  0  0  0  0  0  0  0  0  0
    8.3148   15.1514   21.2676 C   0  0  2  0  0  0  0  0  0  0  0  0
    8.1444   14.5136   22.5314 O   0  0  0  0  0  0  0  0  0  0  0  0
    6.9978   13.8428   22.8236 C   0  0  0  0  0  0  0  0  0  0  0  0
    6.1780   13.4157   22.0330 O   0  0  0  0  0  0  0  0  0  0  0  0
    7.0084   13.6505   24.3112 C   0  0  0  0  0  0  0  0  0  0  0  0
    6.5378   12.3775   24.9823 C   0  0  0  0  0  0  0  0  0  0  0  0
    7.1819   12.2945   26.3840 C   0  0  0  0  0  0  0  0  0  0  0  0
    7.8288   13.5749   26.7754 N   0  0  0  0  0  0  0  0  0  0  0  0
    9.4487   14.0180   26.5225 S   0  0  0  0  0  0  0  0  0  0  0  0
    9.8831   14.5685   27.7827 O   0  0  0  0  0  0  0  0  0  0  0  0
    9.5773   14.8384   25.3380 O   0  0  0  0  0  0  0  0  0  0  0  0
   10.3585   12.6042   26.2768 N   0  0  0  0  0  0  0  0  0  0  0  0
   10.1152   11.8006   25.0634 C   0  0  0  0  0  0  0  0  0  0  0  0
   10.6425   12.4938   23.8372 C   0  0  0  0  0  0  0  0  0  0  0  0
   12.0467   13.0088   24.0420 C   0  0  0  0  0  0  0  0  0  0  0  0
   12.6868   12.4388   25.2870 C   0  0  0  0  0  0  0  0  0  0  0  0
   11.8332   12.8714   26.4682 C   0  0  0  0  0  0  0  0  0  0  0  0
    6.8742   14.7087   26.5953 C   0  0  0  0  0  0  0  0  0  0  0  0
    6.5729   14.8842   25.1017 C   0  0  0  0  0  0  0  0  0  0  0  0
    9.7275   15.0258   20.8301 C   0  0  0  0  0  0  0  0  0  0  0  0
   10.0685   14.9731   19.4936 C   0  0  0  0  0  0  0  0  0  0  0  0
   11.3072   14.7808   19.0621 N   0  0  0  0  0  0  0  0  0  0  0  0
   12.2195   14.7664   20.0325 C   0  0  0  0  0  0  0  0  0  0  0  0
   12.0375   14.9597   21.3501 N   0  0  0  0  0  0  0  0  0  0  0  0
   10.7725   15.1229   21.7144 C   0  0  0  0  0  0  0  0  0  0  0  0
  1  2  1  0
  2  3  1  0
  3  4  2  0
  3  5  1  0
  5  6  1  1
  6  7  1  0
  7  8  2  0
  7  9  1  0
  9 10  1  0
 10 11  1  0
 11 12  1  0
 12 13  1  0
 13 14  2  0
 13 15  2  0
 13 16  1  0
 16 17  1  0
 17 18  1  0
 18 19  1  0
 19 20  1  0
 20 21  1  0
 12 22  1  0
 22 23  1  0
  5 24  1  0
 24 25  2  0
 25 26  1  0
 26 27  2  0
 27 28  1  0
 28 29  2  0
 23  9  1  0
 29 24  1  0
 21 16  1  0
M  END
>  <energy_score>  (1157) 
-9.893802

>  <inchikey>  (1157) 
None

>  <smiles>  (1157) 
None

>  <ref_pdb>  (1157) 
A4706a

>  <alias>  (1157) 
None

>  <HIPPO Pose ID>  (1157) 
500451

>  <name>  (1157) 
P500451

>  <HIPPO Compound ID>  (1157) 
314757

>  <ref_mols>  (1157) 
A4706a,A0875a

>  <distance_score>  (1157) 
1.676859

>  <inspiration_score>  (1157) 
None

$$$$
P500453
     RDKit          3D

 29 31  0  0  0  0  0  0  0  0999 V2000
    7.9210   19.3429   19.3541 C   0  0  0  0  0  0  0  0  0  0  0  0
    8.3936   18.0565   19.7452 O   0  0  0  0  0  0  0  0  0  0  0  0
    8.3996   17.8627   21.0955 C   0  0  0  0  0  0  0  0  0  0  0  0
    8.4080   18.8190   21.8463 O   0  0  0  0  0  0  0  0  0  0  0  0
    8.3129   16.3517   21.4825 C   0  0  2  0  0  0  0  0  0  0  0  0
    7.7364   15.9792   22.7584 O   0  0  0  0  0  0  0  0  0  0  0  0
    6.8558   14.9369   22.7589 C   0  0  0  0  0  0  0  0  0  0  0  0
    6.6166   14.2126   21.7931 O   0  0  0  0  0  0  0  0  0  0  0  0
    6.0834   14.7629   24.0799 C   0  0  0  0  0  0  0  0  0  0  0  0
    5.8782   13.2679   24.4187 C   0  0  0  0  0  0  0  0  0  0  0  0
    7.0882   12.5572   25.0366 C   0  0  0  0  0  0  0  0  0  0  0  0
    7.9939   13.5298   25.6846 N   0  0  0  0  0  0  0  0  0  0  0  0
    9.3565   13.9886   24.7826 S   0  0  0  0  0  0  0  0  0  0  0  0
    9.1355   13.6320   23.4101 O   0  0  0  0  0  0  0  0  0  0  0  0
    9.7940   15.2800   25.2472 O   0  0  0  0  0  0  0  0  0  0  0  0
   10.4671   12.9006   25.3953 N   0  0  0  0  0  0  0  0  0  0  0  0
   10.7322   13.1370   26.8176 C   0  0  0  0  0  0  0  0  0  0  0  0
   12.1724   13.4621   27.0990 C   0  0  0  0  0  0  0  0  0  0  0  0
   13.1645   12.4650   26.5206 C   0  0  0  0  0  0  0  0  0  0  0  0
   12.6448   11.8328   25.2461 C   0  0  0  0  0  0  0  0  0  0  0  0
   11.6654   12.7667   24.5415 C   0  0  0  0  0  0  0  0  0  0  0  0
    7.2575   14.6233   26.3475 C   0  0  0  0  0  0  0  0  0  0  0  0
    6.5919   15.5222   25.3123 C   0  0  0  0  0  0  0  0  0  0  0  0
    9.6349   15.6979   21.1092 C   0  0  0  0  0  0  0  0  0  0  0  0
    9.8098   15.3065   19.7730 C   0  0  0  0  0  0  0  0  0  0  0  0
   11.0254   14.8486   19.3344 C   0  0  0  0  0  0  0  0  0  0  0  0
   12.0413   14.7955   20.2556 C   0  0  0  0  0  0  0  0  0  0  0  0
   11.8211   15.2021   21.5635 C   0  0  0  0  0  0  0  0  0  0  0  0
   10.6417   15.6561   22.0135 N   0  0  0  0  0  0  0  0  0  0  0  0
  1  2  1  0
  2  3  1  0
  3  4  2  0
  3  5  1  0
  5  6  1  1
  6  7  1  0
  7  8  2  0
  7  9  1  0
  9 10  1  0
 10 11  1  0
 11 12  1  0
 12 13  1  0
 13 14  2  0
 13 15  2  0
 13 16  1  0
 16 17  1  0
 17 18  1  0
 18 19  1  0
 19 20  1  0
 20 21  1  0
 12 22  1  0
 22 23  1  0
  5 24  1  0
 24 25  2  0
 25 26  1  0
 26 27  2  0
 27 28  1  0
 28 29  2  0
 23  9  1  0
 29 24  1  0
 21 16  1  0
M  END
>  <energy_score>  (1158) 
-24.886062

>  <inchikey>  (1158) 
None

>  <smiles>  (1158) 
None

>  <ref_pdb>  (1158) 
A4706a

>  <alias>  (1158) 
None

>  <HIPPO Pose ID>  (1158) 
500453

>  <name>  (1158) 
P500453

>  <HIPPO Compound ID>  (1158) 
314762

>  <ref_mols>  (1158) 
A4706a,A0875a

>  <distance_score>  (1158) 
1.818932

>  <inspiration_score>  (1158) 
None

$$$$
P500454
     RDKit          3D

 29 32  0  0  0  0  0  0  0  0999 V2000
    4.9812   15.3518   23.1575 O   0  0  0  0  0  0  0  0  0  0  0  0
    5.8821   15.0785   23.9404 C   0  0  0  0  0  0  0  0  0  0  0  0
    7.2069   15.2557   23.6944 O   0  0  0  0  0  0  0  0  0  0  0  0
    7.5513   15.5954   22.3504 C   0  0  2  0  0  0  0  0  0  0  0  0
    7.1925   14.4937   21.3709 C   0  0  0  0  0  0  0  0  0  0  0  0
    8.0724   14.6263   20.2282 O   0  0  0  0  0  0  0  0  0  0  0  0
    9.2318   15.1039   20.7583 C   0  0  0  0  0  0  0  0  0  0  0  0
   10.4933   15.0016   20.2032 C   0  0  0  0  0  0  0  0  0  0  0  0
   10.8087   14.6565   18.5743 Cl  0  0  0  0  0  0  0  0  0  0  0  0
   11.5653   15.0262   21.0603 C   0  0  0  0  0  0  0  0  0  0  0  0
   11.2956   15.1682   22.4053 C   0  0  0  0  0  0  0  0  0  0  0  0
   12.2704   14.1656   23.6116 Br  0  0  0  0  0  0  0  0  0  0  0  0
   10.0836   15.6081   22.8842 C   0  0  0  0  0  0  0  0  0  0  0  0
    9.0147   15.5224   22.0537 C   0  0  0  0  0  0  0  0  0  0  0  0
    5.6376   14.3873   25.2819 C   0  0  0  0  0  0  0  0  0  0  0  0
    5.7869   12.8591   25.0878 C   0  0  0  0  0  0  0  0  0  0  0  0
    6.7283   12.1041   26.0239 C   0  0  0  0  0  0  0  0  0  0  0  0
    7.7971   12.9855   26.5145 N   0  0  0  0  0  0  0  0  0  0  0  0
    9.0150   13.3857   25.4230 S   0  0  0  0  0  0  0  0  0  0  0  0
    8.5604   12.9784   24.1156 O   0  0  0  0  0  0  0  0  0  0  0  0
    9.4461   14.7259   25.7315 O   0  0  0  0  0  0  0  0  0  0  0  0
   10.2383   12.3057   25.8986 N   0  0  0  0  0  0  0  0  0  0  0  0
   10.4257   11.2295   24.8997 C   0  0  0  0  0  0  0  0  0  0  0  0
   11.5723   10.3145   25.2479 C   0  0  0  0  0  0  0  0  0  0  0  0
   12.8623   11.1302   25.4438 C   0  0  0  0  0  0  0  0  0  0  0  0
   12.7262   12.1817   26.5298 C   0  0  0  0  0  0  0  0  0  0  0  0
   11.4177   12.9685   26.5227 C   0  0  0  0  0  0  0  0  0  0  0  0
    7.2195   14.0963   27.2987 C   0  0  0  0  0  0  0  0  0  0  0  0
    6.4376   15.0494   26.4115 C   0  0  0  0  0  0  0  0  0  0  0  0
  1  2  2  0
  2  3  1  0
  4  3  1  1
  4  5  1  0
  5  6  1  0
  6  7  1  0
  7  8  2  0
  8  9  1  0
  8 10  1  0
 10 11  2  0
 11 12  1  0
 11 13  1  0
 13 14  2  0
  2 15  1  0
 15 16  1  0
 16 17  1  0
 17 18  1  0
 18 19  1  0
 19 20  2  0
 19 21  2  0
 19 22  1  0
 22 23  1  0
 23 24  1  0
 24 25  1  0
 25 26  1  0
 26 27  1  0
 18 28  1  0
 28 29  1  0
 14  4  1  0
 29 15  1  0
 14  7  1  0
 27 22  1  0
M  END
>  <energy_score>  (1159) 
-10.662101

>  <inchikey>  (1159) 
None

>  <smiles>  (1159) 
None

>  <ref_pdb>  (1159) 
A4706a

>  <alias>  (1159) 
None

>  <HIPPO Pose ID>  (1159) 
500454

>  <name>  (1159) 
P500454

>  <HIPPO Compound ID>  (1159) 
314763

>  <ref_mols>  (1159) 
A4706a,A0875a

>  <distance_score>  (1159) 
1.816647

>  <inspiration_score>  (1159) 
None

$$$$
P500456
     RDKit          3D

 29 31  0  0  0  0  0  0  0  0999 V2000
    9.5230   13.2617   22.2527 C   0  0  0  0  0  0  0  0  0  0  0  0
   10.4761   14.2396   21.6476 C   0  0  0  0  0  0  0  0  0  0  0  0
   11.8949   13.8858   21.9118 C   0  0  0  0  0  0  0  0  0  0  0  0
   10.2349   14.3153   20.2466 O   0  0  0  0  0  0  0  0  0  0  0  0
   10.3693   15.6962   19.9627 C   0  0  0  0  0  0  0  0  0  0  0  0
    9.9056   16.3635   21.2562 C   0  0  1  0  0  0  0  0  0  0  0  0
    8.3816   16.4967   21.2873 C   0  0  1  0  0  0  0  0  0  0  0  0
    7.7336   16.2422   22.5911 O   0  0  0  0  0  0  0  0  0  0  0  0
    6.9183   15.1619   22.7169 C   0  0  0  0  0  0  0  0  0  0  0  0
    6.5646   14.4257   21.7919 O   0  0  0  0  0  0  0  0  0  0  0  0
    6.3838   14.8610   24.1378 C   0  0  0  0  0  0  0  0  0  0  0  0
    6.3437   13.3362   24.4420 C   0  0  0  0  0  0  0  0  0  0  0  0
    7.5609   12.7373   25.1649 C   0  0  0  0  0  0  0  0  0  0  0  0
    8.1334   13.6093   26.2100 N   0  0  0  0  0  0  0  0  0  0  0  0
    9.7325   14.1720   26.1383 S   0  0  0  0  0  0  0  0  0  0  0  0
    9.9185   14.8839   27.3825 O   0  0  0  0  0  0  0  0  0  0  0  0
    9.9789   14.8412   24.8961 O   0  0  0  0  0  0  0  0  0  0  0  0
   10.8020   12.8634   26.2241 N   0  0  0  0  0  0  0  0  0  0  0  0
   12.1762   13.3014   26.6870 C   0  0  0  0  0  0  0  0  0  0  0  0
   13.2998   13.0331   25.6660 C   0  0  0  0  0  0  0  0  0  0  0  0
   13.4123   11.5895   25.2436 C   0  0  0  0  0  0  0  0  0  0  0  0
   12.0558   10.9772   25.3886 C   0  0  0  0  0  0  0  0  0  0  0  0
   10.8675   11.8896   25.1165 C   0  0  0  0  0  0  0  0  0  0  0  0
    7.1797   14.7208   26.5512 C   0  0  0  0  0  0  0  0  0  0  0  0
    6.9565   15.6181   25.3315 C   0  0  0  0  0  0  0  0  0  0  0  0
    8.4316   17.9705   20.7520 C   0  0  0  0  0  0  0  0  0  0  0  0
    8.4284   18.9178   21.5705 O   0  0  0  0  0  0  0  0  0  0  0  0
    8.5627   18.0807   19.4911 O   0  0  0  0  0  0  0  0  0  0  0  0
   10.3251   15.4851   22.2793 O   0  0  0  0  0  0  0  0  0  0  0  0
  1  2  1  0
  2  3  1  0
  2  4  1  0
  4  5  1  0
  6  5  1  6
  6  7  1  0
  7  8  1  1
  8  9  1  0
  9 10  2  0
  9 11  1  0
 11 12  1  0
 12 13  1  0
 13 14  1  0
 14 15  1  0
 15 16  2  0
 15 17  2  0
 15 18  1  0
 18 19  1  0
 19 20  1  0
 20 21  1  0
 21 22  1  0
 22 23  1  0
 14 24  1  0
 24 25  1  0
  7 26  1  0
 26 27  2  0
 26 28  1  0
  6 29  1  0
 29  2  1  0
 25 11  1  0
 23 18  1  0
M  CHG  1  28  -1
M  END
>  <energy_score>  (1160) 
-20.374959

>  <inchikey>  (1160) 
None

>  <smiles>  (1160) 
None

>  <ref_pdb>  (1160) 
A4706a

>  <alias>  (1160) 
None

>  <HIPPO Pose ID>  (1160) 
500456

>  <name>  (1160) 
P500456

>  <HIPPO Compound ID>  (1160) 
314766

>  <ref_mols>  (1160) 
A0875a,A4706a

>  <distance_score>  (1160) 
1.601677

>  <inspiration_score>  (1160) 
None

$$$$
P500459
     RDKit          3D

 29 31  0  0  0  0  0  0  0  0999 V2000
    4.2904   15.0620   22.1991 C   0  0  0  0  0  0  0  0  0  0  0  0
    5.4514   15.6877   22.7381 O   0  0  0  0  0  0  0  0  0  0  0  0
    6.5813   15.5921   21.8454 C   0  0  0  0  0  0  0  0  0  0  0  0
    7.9210   15.3463   22.5480 C   0  0  1  0  0  0  0  0  0  0  0  0
    7.6335   14.6478   23.7615 O   0  0  0  0  0  0  0  0  0  0  0  0
    6.8301   13.5615   23.6663 C   0  0  0  0  0  0  0  0  0  0  0  0
    6.6861   12.8906   22.6477 O   0  0  0  0  0  0  0  0  0  0  0  0
    6.0480   13.3021   24.9513 C   0  0  0  0  0  0  0  0  0  0  0  0
    6.2007   11.8436   25.3747 C   0  0  0  0  0  0  0  0  0  0  0  0
    7.5121   11.4573   26.0226 C   0  0  0  0  0  0  0  0  0  0  0  0
    8.1590   12.6347   26.5858 N   0  0  0  0  0  0  0  0  0  0  0  0
    9.4206   13.2889   25.7033 S   0  0  0  0  0  0  0  0  0  0  0  0
    9.6125   14.6155   26.2345 O   0  0  0  0  0  0  0  0  0  0  0  0
    9.2378   12.9643   24.3148 O   0  0  0  0  0  0  0  0  0  0  0  0
   10.6805   12.3199   26.1940 N   0  0  0  0  0  0  0  0  0  0  0  0
   11.4081   11.5757   25.1449 C   0  0  0  0  0  0  0  0  0  0  0  0
   12.9231   11.6196   25.3671 C   0  0  0  0  0  0  0  0  0  0  0  0
   13.3309   13.0557   25.4996 C   0  0  0  0  0  0  0  0  0  0  0  0
   12.5721   13.7218   26.6373 C   0  0  0  0  0  0  0  0  0  0  0  0
   11.5126   12.9008   27.2161 C   0  0  0  0  0  0  0  0  0  0  0  0
    7.2018   13.5983   27.1860 C   0  0  0  0  0  0  0  0  0  0  0  0
    6.3336   14.2496   26.1212 C   0  0  0  0  0  0  0  0  0  0  0  0
    9.2005   15.0625   21.7292 C   0  0  0  0  0  0  0  0  0  0  0  0
    9.1549   14.9084   20.3462 C   0  0  0  0  0  0  0  0  0  0  0  0
   10.2912   14.8258   19.5225 C   0  0  0  0  0  0  0  0  0  0  0  0
   11.5449   14.8431   20.0873 C   0  0  0  0  0  0  0  0  0  0  0  0
   11.6471   15.0243   21.4521 C   0  0  0  0  0  0  0  0  0  0  0  0
   10.4976   15.1486   22.2403 C   0  0  0  0  0  0  0  0  0  0  0  0
   10.8095   15.5130   23.8563 Cl  0  0  0  0  0  0  0  0  0  0  0  0
  1  2  1  0
  2  3  1  0
  4  3  1  6
  4  5  1  0
  5  6  1  0
  6  7  2  0
  6  8  1  0
  8  9  1  0
  9 10  1  0
 10 11  1  0
 11 12  1  0
 12 13  2  0
 12 14  2  0
 12 15  1  0
 15 16  1  0
 16 17  1  0
 17 18  1  0
 18 19  1  0
 19 20  1  0
 11 21  1  0
 21 22  1  0
  4 23  1  0
 23 24  2  0
 24 25  1  0
 25 26  2  0
 26 27  1  0
 27 28  2  0
 28 29  1  0
 22  8  1  0
 28 23  1  0
 20 15  1  0
M  END
>  <energy_score>  (1161) 
-14.349149

>  <inchikey>  (1161) 
None

>  <smiles>  (1161) 
None

>  <ref_pdb>  (1161) 
A4706a

>  <alias>  (1161) 
None

>  <HIPPO Pose ID>  (1161) 
500459

>  <name>  (1161) 
P500459

>  <HIPPO Compound ID>  (1161) 
314771

>  <ref_mols>  (1161) 
A4706a,A0875a

>  <distance_score>  (1161) 
1.698803

>  <inspiration_score>  (1161) 
None

$$$$
P500461
     RDKit          3D

 29 32  0  0  0  0  0  0  0  0999 V2000
    9.6472   11.2479   22.9681 N   0  0  0  0  0  0  0  0  0  0  0  0
   10.0945   12.1531   22.4346 N   0  0  0  0  0  0  0  0  0  0  0  0
   10.5934   13.1277   21.8546 N   0  0  0  0  0  0  0  0  0  0  0  0
    9.8016   13.7464   20.7651 C   0  0  2  0  0  0  0  0  0  0  0  0
   10.6681   14.2404   19.5255 C   0  0  0  0  0  0  0  0  0  0  0  0
   10.5451   15.6529   19.6052 O   0  0  0  0  0  0  0  0  0  0  0  0
   10.3101   15.8125   21.0000 C   0  0  0  0  0  0  0  0  0  0  0  0
   10.1116   17.0979   21.6535 C   0  0  0  0  0  0  0  0  0  0  0  0
   10.9666   16.4254   22.8215 C   0  0  0  0  0  0  0  0  0  0  0  0
   11.6877   15.6753   21.7703 C   0  0  0  0  0  0  0  0  0  0  0  0
    9.0978   14.9455   21.2817 C   0  0  2  0  0  0  0  0  0  0  0  0
    8.5766   14.8697   22.6450 O   0  0  0  0  0  0  0  0  0  0  0  0
    7.5953   13.9697   22.9123 C   0  0  0  0  0  0  0  0  0  0  0  0
    7.1363   13.1962   22.0716 O   0  0  0  0  0  0  0  0  0  0  0  0
    7.0481   13.9462   24.3505 C   0  0  0  0  0  0  0  0  0  0  0  0
    7.0854   12.5290   24.9701 C   0  0  0  0  0  0  0  0  0  0  0  0
    8.3028   12.1682   25.8310 C   0  0  0  0  0  0  0  0  0  0  0  0
    8.9205   13.3272   26.5193 N   0  0  0  0  0  0  0  0  0  0  0  0
   10.4150   13.8835   25.9406 S   0  0  0  0  0  0  0  0  0  0  0  0
   10.2883   13.9018   24.5122 O   0  0  0  0  0  0  0  0  0  0  0  0
   10.7170   15.0847   26.6733 O   0  0  0  0  0  0  0  0  0  0  0  0
   11.5685   12.6821   26.3470 N   0  0  0  0  0  0  0  0  0  0  0  0
   11.9542   11.8026   25.2299 C   0  0  0  0  0  0  0  0  0  0  0  0
   13.2916   11.0447   25.3252 C   0  0  0  0  0  0  0  0  0  0  0  0
   14.3072   11.4603   26.3528 C   0  0  0  0  0  0  0  0  0  0  0  0
   14.0552   12.9015   26.6264 C   0  0  0  0  0  0  0  0  0  0  0  0
   12.6755   13.0867   27.2416 C   0  0  0  0  0  0  0  0  0  0  0  0
    7.9188   14.4257   26.6971 C   0  0  0  0  0  0  0  0  0  0  0  0
    7.5189   15.0129   25.3410 C   0  0  0  0  0  0  0  0  0  0  0  0
  1  2  2  0
  2  3  2  0
  4  3  1  1
  4  5  1  0
  5  6  1  0
  6  7  1  0
  7  8  1  0
  8  9  1  0
  9 10  1  0
  7 11  1  0
 11 12  1  1
 12 13  1  0
 13 14  2  0
 13 15  1  0
 15 16  1  0
 16 17  1  0
 17 18  1  0
 18 19  1  0
 19 20  2  0
 19 21  2  0
 19 22  1  0
 22 23  1  0
 23 24  1  0
 24 25  1  0
 25 26  1  0
 26 27  1  0
 18 28  1  0
 28 29  1  0
 11  4  1  0
 29 15  1  0
 10  7  1  0
 27 22  1  0
M  CHG  2   1  -1   2   1
M  END
>  <energy_score>  (1162) 
-18.209816

>  <inchikey>  (1162) 
None

>  <smiles>  (1162) 
None

>  <ref_pdb>  (1162) 
A4706a

>  <alias>  (1162) 
None

>  <HIPPO Pose ID>  (1162) 
500461

>  <name>  (1162) 
P500461

>  <HIPPO Compound ID>  (1162) 
314776

>  <ref_mols>  (1162) 
A4706a,A0875a

>  <distance_score>  (1162) 
1.438731

>  <inspiration_score>  (1162) 
None

$$$$
P500463
     RDKit          3D

 29 31  0  0  0  0  0  0  0  0999 V2000
   11.7885   14.3234   20.4692 C   0  0  0  0  0  0  0  0  0  0  0  0
   10.4461   14.9025   20.3962 N   0  0  0  0  0  0  0  0  0  0  0  0
   10.1450   15.2742   19.0163 C   0  0  0  0  0  0  0  0  0  0  0  0
   10.1834   16.1104   21.5428 S   0  0  0  0  0  0  0  0  0  0  0  0
    9.3934   17.1486   20.9332 O   0  0  0  0  0  0  0  0  0  0  0  0
   11.4643   16.3804   22.1673 O   0  0  0  0  0  0  0  0  0  0  0  0
    9.2578   15.2580   22.7658 C   0  0  0  0  0  0  0  0  0  0  0  0
    7.7353   15.1743   22.6968 C   0  0  0  0  0  0  0  0  0  0  0  0
    7.1772   14.8145   24.0073 O   0  0  0  0  0  0  0  0  0  0  0  0
    6.2881   13.7898   24.1384 C   0  0  0  0  0  0  0  0  0  0  0  0
    6.0388   12.9298   23.3035 O   0  0  0  0  0  0  0  0  0  0  0  0
    5.6740   13.7417   25.5320 C   0  0  0  0  0  0  0  0  0  0  0  0
    5.7439   12.2957   26.0389 C   0  0  0  0  0  0  0  0  0  0  0  0
    7.1718   11.7969   26.2456 C   0  0  0  0  0  0  0  0  0  0  0  0
    8.0721   12.9110   26.6314 N   0  0  0  0  0  0  0  0  0  0  0  0
    9.1754   13.4489   25.4980 S   0  0  0  0  0  0  0  0  0  0  0  0
    8.8530   12.8149   24.2439 O   0  0  0  0  0  0  0  0  0  0  0  0
    9.2950   14.8781   25.6551 O   0  0  0  0  0  0  0  0  0  0  0  0
   10.6255   12.7811   25.9729 N   0  0  0  0  0  0  0  0  0  0  0  0
   10.9035   11.4844   25.3055 C   0  0  0  0  0  0  0  0  0  0  0  0
   12.3362   11.1030   25.6478 C   0  0  0  0  0  0  0  0  0  0  0  0
   13.3789   12.0268   25.1114 C   0  0  0  0  0  0  0  0  0  0  0  0
   12.7079   13.3365   24.7620 C   0  0  0  0  0  0  0  0  0  0  0  0
   11.7762   13.7253   25.9002 C   0  0  0  0  0  0  0  0  0  0  0  0
    7.3749   13.9675   27.4135 C   0  0  0  0  0  0  0  0  0  0  0  0
    6.3097   14.6718   26.5733 C   0  0  0  0  0  0  0  0  0  0  0  0
    6.8067   16.2738   22.1354 C   0  0  0  0  0  0  0  0  0  0  0  0
    6.0111   15.1946   21.5120 O   0  0  0  0  0  0  0  0  0  0  0  0
    7.2577   14.4336   21.4485 C   0  0  0  0  0  0  0  0  0  0  0  0
  1  2  1  0
  2  3  1  0
  2  4  1  0
  4  5  2  0
  4  6  2  0
  4  7  1  0
  7  8  1  0
  8  9  1  0
  9 10  1  0
 10 11  2  0
 10 12  1  0
 12 13  1  0
 13 14  1  0
 14 15  1  0
 15 16  1  0
 16 17  2  0
 16 18  2  0
 16 19  1  0
 19 20  1  0
 20 21  1  0
 21 22  1  0
 22 23  1  0
 23 24  1  0
 15 25  1  0
 25 26  1  0
  8 27  1  0
 27 28  1  0
 28 29  1  0
 29  8  1  0
 26 12  1  0
 24 19  1  0
M  END
>  <energy_score>  (1163) 
-33.807339

>  <inchikey>  (1163) 
None

>  <smiles>  (1163) 
None

>  <ref_pdb>  (1163) 
A4706a

>  <alias>  (1163) 
None

>  <HIPPO Pose ID>  (1163) 
500463

>  <name>  (1163) 
P500463

>  <HIPPO Compound ID>  (1163) 
314777

>  <ref_mols>  (1163) 
A0875a,A4706a

>  <distance_score>  (1163) 
1.724259

>  <inspiration_score>  (1163) 
None

$$$$
P500464
     RDKit          3D

 29 31  0  0  0  0  0  0  0  0999 V2000
    9.8002   13.0445   22.2680 C   0  0  0  0  0  0  0  0  0  0  0  0
    9.4678   14.1630   23.2121 C   0  0  1  0  0  0  0  0  0  0  0  0
   10.6017   15.1956   23.3501 C   0  0  0  0  0  0  0  0  0  0  0  0
   11.6249   15.1968   22.3620 O   0  0  0  0  0  0  0  0  0  0  0  0
   11.1048   15.5245   21.1573 C   0  0  0  0  0  0  0  0  0  0  0  0
   11.5465   14.7856   20.0774 C   0  0  0  0  0  0  0  0  0  0  0  0
   10.8343   14.8554   18.9074 C   0  0  0  0  0  0  0  0  0  0  0  0
    9.7603   15.7271   18.8089 C   0  0  0  0  0  0  0  0  0  0  0  0
    8.8313   15.5215   17.7991 N   0  0  0  0  0  0  0  0  0  0  0  0
    9.4830   16.6230   19.8250 C   0  0  0  0  0  0  0  0  0  0  0  0
   10.1081   16.4731   21.0232 C   0  0  0  0  0  0  0  0  0  0  0  0
    8.1225   14.6995   23.1283 O   0  0  0  0  0  0  0  0  0  0  0  0
    7.1384   13.7710   22.9933 C   0  0  0  0  0  0  0  0  0  0  0  0
    6.9525   13.1383   21.9570 O   0  0  0  0  0  0  0  0  0  0  0  0
    6.3014   13.4299   24.2214 C   0  0  0  0  0  0  0  0  0  0  0  0
    6.8355   12.1671   24.9441 C   0  0  0  0  0  0  0  0  0  0  0  0
    7.6053   12.4688   26.2302 C   0  0  0  0  0  0  0  0  0  0  0  0
    8.2541   13.7515   26.0072 N   0  0  0  0  0  0  0  0  0  0  0  0
    9.6465   14.1937   26.7805 S   0  0  0  0  0  0  0  0  0  0  0  0
   10.1536   15.3443   26.0750 O   0  0  0  0  0  0  0  0  0  0  0  0
    9.2816   14.3262   28.1635 O   0  0  0  0  0  0  0  0  0  0  0  0
   10.8084   12.9528   26.6859 N   0  0  0  0  0  0  0  0  0  0  0  0
   11.1063   12.2263   25.4293 C   0  0  0  0  0  0  0  0  0  0  0  0
   12.4367   12.6592   24.8453 C   0  0  0  0  0  0  0  0  0  0  0  0
   13.5685   12.1841   25.7363 C   0  0  0  0  0  0  0  0  0  0  0  0
   13.2714   12.5579   27.1831 C   0  0  0  0  0  0  0  0  0  0  0  0
   12.0614   13.4773   27.3437 C   0  0  0  0  0  0  0  0  0  0  0  0
    7.2639   14.8808   26.0407 C   0  0  0  0  0  0  0  0  0  0  0  0
    6.0602   14.5845   25.1712 C   0  0  0  0  0  0  0  0  0  0  0  0
  2  1  1  6
  2  3  1  0
  3  4  1  0
  4  5  1  0
  5  6  2  0
  6  7  1  0
  7  8  2  0
  8  9  1  0
  8 10  1  0
 10 11  2  0
  2 12  1  0
 12 13  1  0
 13 14  2  0
 13 15  1  0
 15 16  1  0
 16 17  1  0
 17 18  1  0
 18 19  1  0
 19 20  2  0
 19 21  2  0
 19 22  1  0
 22 23  1  0
 23 24  1  0
 24 25  1  0
 25 26  1  0
 26 27  1  0
 18 28  1  0
 28 29  1  0
 11  5  1  0
 29 15  1  0
 27 22  1  0
M  END
>  <energy_score>  (1164) 
-28.993615

>  <inchikey>  (1164) 
None

>  <smiles>  (1164) 
None

>  <ref_pdb>  (1164) 
A4706a

>  <alias>  (1164) 
None

>  <HIPPO Pose ID>  (1164) 
500464

>  <name>  (1164) 
P500464

>  <HIPPO Compound ID>  (1164) 
314779

>  <ref_mols>  (1164) 
A4706a,A0875a

>  <distance_score>  (1164) 
1.875955

>  <inspiration_score>  (1164) 
None

$$$$
P500465
     RDKit          3D

 29 31  0  0  0  0  0  0  0  0999 V2000
    9.2256   15.2608   19.5152 C   0  0  0  0  0  0  0  0  0  0  0  0
    8.1799   14.5006   20.2067 O   0  0  0  0  0  0  0  0  0  0  0  0
    7.3282   14.8160   21.2004 C   0  0  0  0  0  0  0  0  0  0  0  0
    6.1689   14.3814   21.1745 O   0  0  0  0  0  0  0  0  0  0  0  0
    7.8220   15.6350   22.3624 C   0  0  1  0  0  0  0  0  0  0  0  0
    7.1122   15.1731   23.5589 O   0  0  0  0  0  0  0  0  0  0  0  0
    6.8865   13.8301   23.7174 C   0  0  0  0  0  0  0  0  0  0  0  0
    7.3937   12.9229   23.0604 O   0  0  0  0  0  0  0  0  0  0  0  0
    5.8123   13.5275   24.7660 C   0  0  0  0  0  0  0  0  0  0  0  0
    6.2287   12.2827   25.5884 C   0  0  0  0  0  0  0  0  0  0  0  0
    7.2462   12.6319   26.6840 C   0  0  0  0  0  0  0  0  0  0  0  0
    7.8047   13.9382   26.3361 N   0  0  0  0  0  0  0  0  0  0  0  0
    9.3609   14.4072   26.6375 S   0  0  0  0  0  0  0  0  0  0  0  0
    9.7157   15.3997   25.6541 O   0  0  0  0  0  0  0  0  0  0  0  0
    9.4387   14.7097   28.0434 O   0  0  0  0  0  0  0  0  0  0  0  0
   10.3473   13.0640   26.3905 N   0  0  0  0  0  0  0  0  0  0  0  0
   11.7719   13.5016   26.5459 C   0  0  0  0  0  0  0  0  0  0  0  0
   12.7271   12.3266   26.4872 C   0  0  0  0  0  0  0  0  0  0  0  0
   12.4194   11.4215   25.3090 C   0  0  0  0  0  0  0  0  0  0  0  0
   10.9155   11.1358   25.0760 C   0  0  0  0  0  0  0  0  0  0  0  0
   10.1608   12.4303   25.0820 C   0  0  0  0  0  0  0  0  0  0  0  0
    6.8119   15.0278   26.5202 C   0  0  0  0  0  0  0  0  0  0  0  0
    5.5573   14.6919   25.7213 C   0  0  0  0  0  0  0  0  0  0  0  0
    9.3043   15.5761   22.4106 C   0  0  0  0  0  0  0  0  0  0  0  0
   10.2752   16.4480   21.8496 C   0  0  0  0  0  0  0  0  0  0  0  0
   11.4372   15.7206   21.7774 C   0  0  0  0  0  0  0  0  0  0  0  0
   11.0857   14.5146   22.2628 N   0  0  0  0  0  0  0  0  0  0  0  0
   11.7102   13.2672   22.0076 C   0  0  0  0  0  0  0  0  0  0  0  0
    9.8783   14.4481   22.7853 N   0  0  0  0  0  0  0  0  0  0  0  0
  1  2  1  0
  2  3  1  0
  3  4  2  0
  3  5  1  0
  5  6  1  1
  6  7  1  0
  7  8  2  0
  7  9  1  0
  9 10  1  0
 10 11  1  0
 11 12  1  0
 12 13  1  0
 13 14  2  0
 13 15  2  0
 13 16  1  0
 16 17  1  0
 17 18  1  0
 18 19  1  0
 19 20  1  0
 20 21  1  0
 12 22  1  0
 22 23  1  0
  5 24  1  0
 24 25  1  0
 25 26  2  0
 26 27  1  0
 27 28  1  0
 27 29  1  0
 23  9  1  0
 29 24  2  0
 21 16  1  0
M  END
>  <energy_score>  (1165) 
-28.592497

>  <inchikey>  (1165) 
None

>  <smiles>  (1165) 
None

>  <ref_pdb>  (1165) 
A4706a

>  <alias>  (1165) 
None

>  <HIPPO Pose ID>  (1165) 
500465

>  <name>  (1165) 
P500465

>  <HIPPO Compound ID>  (1165) 
314781

>  <ref_mols>  (1165) 
A0875a,A4706a

>  <distance_score>  (1165) 
1.961057

>  <inspiration_score>  (1165) 
None

$$$$
P500466
     RDKit          3D

 29 31  0  0  0  0  0  0  0  0999 V2000
    8.5519   18.4659   20.9675 C   0  0  0  0  0  0  0  0  0  0  0  0
    8.6103   17.0589   20.8435 O   0  0  0  0  0  0  0  0  0  0  0  0
    7.8642   16.3105   21.6938 C   0  0  0  0  0  0  0  0  0  0  0  0
    6.9194   16.6823   22.3828 O   0  0  0  0  0  0  0  0  0  0  0  0
    8.3643   14.8876   21.7132 C   0  0  2  0  0  0  0  0  0  0  0  0
    7.9615   14.4612   23.0336 O   0  0  0  0  0  0  0  0  0  0  0  0
    6.8826   13.6661   23.1399 C   0  0  0  0  0  0  0  0  0  0  0  0
    6.3362   13.1190   22.1875 O   0  0  0  0  0  0  0  0  0  0  0  0
    6.4472   13.4124   24.5902 C   0  0  0  0  0  0  0  0  0  0  0  0
    6.8893   11.9993   25.0268 C   0  0  0  0  0  0  0  0  0  0  0  0
    7.9025   11.8572   26.1571 C   0  0  0  0  0  0  0  0  0  0  0  0
    8.5911   13.1252   26.4662 N   0  0  0  0  0  0  0  0  0  0  0  0
    9.8025   13.5778   25.3891 S   0  0  0  0  0  0  0  0  0  0  0  0
   10.0395   14.9910   25.5526 O   0  0  0  0  0  0  0  0  0  0  0  0
    9.5020   12.9359   24.1364 O   0  0  0  0  0  0  0  0  0  0  0  0
   11.1901   12.7758   25.9659 N   0  0  0  0  0  0  0  0  0  0  0  0
   12.1662   12.6132   24.8555 C   0  0  0  0  0  0  0  0  0  0  0  0
   13.2166   11.6165   25.2976 C   0  0  0  0  0  0  0  0  0  0  0  0
   14.0300   12.2227   26.4170 C   0  0  0  0  0  0  0  0  0  0  0  0
   13.1348   12.7482   27.5297 C   0  0  0  0  0  0  0  0  0  0  0  0
   11.8506   13.4764   27.0917 C   0  0  0  0  0  0  0  0  0  0  0  0
    7.5827   14.1669   26.7820 C   0  0  0  0  0  0  0  0  0  0  0  0
    6.7712   14.5622   25.5580 C   0  0  0  0  0  0  0  0  0  0  0  0
    9.8508   14.8955   21.6061 C   0  0  0  0  0  0  0  0  0  0  0  0
   10.5690   14.9960   22.7649 O   0  0  0  0  0  0  0  0  0  0  0  0
   11.8663   15.0613   22.4219 C   0  0  0  0  0  0  0  0  0  0  0  0
   12.0175   15.0791   21.0709 C   0  0  0  0  0  0  0  0  0  0  0  0
   10.7320   14.9681   20.5533 C   0  0  0  0  0  0  0  0  0  0  0  0
   10.4690   15.0490   18.7329 Br  0  0  0  0  0  0  0  0  0  0  0  0
  1  2  1  0
  2  3  1  0
  3  4  2  0
  3  5  1  0
  5  6  1  1
  6  7  1  0
  7  8  2  0
  7  9  1  0
  9 10  1  0
 10 11  1  0
 11 12  1  0
 12 13  1  0
 13 14  2  0
 13 15  2  0
 13 16  1  0
 16 17  1  0
 17 18  1  0
 18 19  1  0
 19 20  1  0
 20 21  1  0
 12 22  1  0
 22 23  1  0
  5 24  1  0
 24 25  1  0
 25 26  1  0
 26 27  2  0
 27 28  1  0
 28 29  1  0
 23  9  1  0
 28 24  2  0
 21 16  1  0
M  END
>  <energy_score>  (1166) 
-41.979298

>  <inchikey>  (1166) 
None

>  <smiles>  (1166) 
None

>  <ref_pdb>  (1166) 
A4706a

>  <alias>  (1166) 
None

>  <HIPPO Pose ID>  (1166) 
500466

>  <name>  (1166) 
P500466

>  <HIPPO Compound ID>  (1166) 
314783

>  <ref_mols>  (1166) 
A4706a,A0875a

>  <distance_score>  (1166) 
1.49569

>  <inspiration_score>  (1166) 
None

$$$$
P500468
     RDKit          3D

 29 31  0  0  0  0  0  0  0  0999 V2000
   14.5707   10.4134   30.9480 C   0  0  0  0  0  0  0  0  0  0  0  0
   14.9386   10.9217   29.6696 O   0  0  0  0  0  0  0  0  0  0  0  0
   16.3675   10.9383   29.4088 C   0  0  1  0  0  0  0  0  0  0  0  0
   16.7970   11.4674   28.0118 C   0  0  1  0  0  0  0  0  0  0  0  0
   15.8231   12.2992   27.3365 O   0  0  0  0  0  0  0  0  0  0  0  0
   14.9355   11.6167   26.5640 C   0  0  0  0  0  0  0  0  0  0  0  0
   15.0238   10.4462   26.2229 O   0  0  0  0  0  0  0  0  0  0  0  0
   13.8090   12.5243   26.1408 C   0  0  0  0  0  0  0  0  0  0  0  0
   12.9622   12.9292   27.3265 C   0  0  0  0  0  0  0  0  0  0  0  0
   11.6900   13.6912   26.9564 C   0  0  0  0  0  0  0  0  0  0  0  0
   10.9654   13.1190   25.7881 N   0  0  0  0  0  0  0  0  0  0  0  0
    9.6041   14.0632   25.3632 S   0  0  0  0  0  0  0  0  0  0  0  0
    9.2738   13.8567   23.9755 O   0  0  0  0  0  0  0  0  0  0  0  0
    9.8043   15.3837   25.9042 O   0  0  0  0  0  0  0  0  0  0  0  0
    8.4538   13.2806   26.3207 N   0  0  0  0  0  0  0  0  0  0  0  0
    7.2895   14.1200   26.7019 C   0  0  0  0  0  0  0  0  0  0  0  0
    6.3387   14.2867   25.5242 C   0  0  0  0  0  0  0  0  0  0  0  0
    6.1104   12.9740   24.7750 C   0  0  0  0  0  0  0  0  0  0  0  0
    6.6088   11.7782   25.5745 C   0  0  0  0  0  0  0  0  0  0  0  0
    8.0892   11.9071   25.8843 C   0  0  0  0  0  0  0  0  0  0  0  0
   11.8333   12.7977   24.6441 C   0  0  0  0  0  0  0  0  0  0  0  0
   12.9071   11.8379   25.1366 C   0  0  0  0  0  0  0  0  0  0  0  0
   17.9397   12.2284   28.7102 C   0  0  0  0  0  0  0  0  0  0  0  0
   17.1573   12.1290   30.0337 C   0  0  2  0  0  0  0  0  0  0  0  0
   17.9264   11.7938   31.2103 O   0  0  0  0  0  0  0  0  0  0  0  0
   18.4102   12.8365   32.0700 C   0  0  0  0  0  0  0  0  0  0  0  0
   17.2492   13.4154   32.8841 C   0  0  0  0  0  0  0  0  0  0  0  0
   19.4018   12.1570   33.0224 C   0  0  0  0  0  0  0  0  0  0  0  0
   19.1385   13.9341   31.2888 C   0  0  0  0  0  0  0  0  0  0  0  0
  1  2  1  0
  3  2  1  6
  3  4  1  0
  4  5  1  1
  5  6  1  0
  6  7  2  0
  6  8  1  0
  8  9  1  0
  9 10  1  0
 10 11  1  0
 11 12  1  0
 12 13  2  0
 12 14  2  0
 12 15  1  0
 15 16  1  0
 16 17  1  0
 17 18  1  0
 18 19  1  0
 19 20  1  0
 11 21  1  0
 21 22  1  0
  4 23  1  0
 23 24  1  0
 24 25  1  1
 25 26  1  0
 26 27  1  0
 26 28  1  0
 26 29  1  0
 24  3  1  0
 22  8  1  0
 20 15  1  0
M  END
>  <energy_score>  (1167) 
-103.456295

>  <inchikey>  (1167) 
None

>  <smiles>  (1167) 
None

>  <ref_pdb>  (1167) 
A4706a

>  <alias>  (1167) 
None

>  <HIPPO Pose ID>  (1167) 
500468

>  <name>  (1167) 
P500468

>  <HIPPO Compound ID>  (1167) 
314785

>  <ref_mols>  (1167) 
A4706a,A0875a

>  <distance_score>  (1167) 
1.867433

>  <inspiration_score>  (1167) 
None

$$$$
P500470
     RDKit          3D

 29 31  0  0  0  0  0  0  0  0999 V2000
    6.2892   13.1265   22.0763 O   0  0  0  0  0  0  0  0  0  0  0  0
    6.7162   13.4707   23.1715 C   0  0  0  0  0  0  0  0  0  0  0  0
    7.9343   14.0311   23.3308 O   0  0  0  0  0  0  0  0  0  0  0  0
    8.4496   15.0251   22.3539 C   0  0  2  0  0  0  0  0  0  0  0  0
    7.4081   16.1404   22.2662 C   0  0  0  0  0  0  0  0  0  0  0  0
    7.8700   17.2086   21.6017 F   0  0  0  0  0  0  0  0  0  0  0  0
    6.2882   15.6979   21.6472 F   0  0  0  0  0  0  0  0  0  0  0  0
    6.9836   16.5109   23.4979 F   0  0  0  0  0  0  0  0  0  0  0  0
    8.7069   14.5527   20.9304 C   0  0  0  0  0  0  0  0  0  0  0  0
    9.9939   13.8909   20.7643 N   0  0  0  0  0  0  0  0  0  0  0  0
   11.0515   14.7819   20.2769 C   0  0  0  0  0  0  0  0  0  0  0  0
   11.6592   15.4787   21.4723 C   0  0  0  0  0  0  0  0  0  0  0  0
   10.6686   16.2524   22.1342 O   0  0  0  0  0  0  0  0  0  0  0  0
    9.7971   15.4669   22.9370 C   0  0  0  0  0  0  0  0  0  0  0  0
    5.9255   13.1950   24.4539 C   0  0  0  0  0  0  0  0  0  0  0  0
    6.4866   12.0221   25.2774 C   0  0  0  0  0  0  0  0  0  0  0  0
    7.3786   12.4759   26.4314 C   0  0  0  0  0  0  0  0  0  0  0  0
    7.9106   13.7832   26.0530 N   0  0  0  0  0  0  0  0  0  0  0  0
    9.4399   14.2534   26.4450 S   0  0  0  0  0  0  0  0  0  0  0  0
    9.6141   14.1440   27.8670 O   0  0  0  0  0  0  0  0  0  0  0  0
    9.6959   15.5198   25.8173 O   0  0  0  0  0  0  0  0  0  0  0  0
   10.4609   13.1651   25.7410 N   0  0  0  0  0  0  0  0  0  0  0  0
   10.1283   12.2586   24.6452 C   0  0  0  0  0  0  0  0  0  0  0  0
   10.8135   10.9593   25.0384 C   0  0  0  0  0  0  0  0  0  0  0  0
   12.2959   11.2341   25.4506 C   0  0  0  0  0  0  0  0  0  0  0  0
   12.7528   12.6152   25.0364 C   0  0  0  0  0  0  0  0  0  0  0  0
   11.8610   13.6285   25.7253 C   0  0  0  0  0  0  0  0  0  0  0  0
    6.8821   14.8404   26.1523 C   0  0  0  0  0  0  0  0  0  0  0  0
    5.6784   14.4363   25.3116 C   0  0  0  0  0  0  0  0  0  0  0  0
  1  2  2  0
  2  3  1  0
  4  3  1  1
  4  5  1  0
  5  6  1  0
  5  7  1  0
  5  8  1  0
  4  9  1  0
  9 10  1  0
 10 11  1  0
 11 12  1  0
 12 13  1  0
 13 14  1  0
  2 15  1  0
 15 16  1  0
 16 17  1  0
 17 18  1  0
 18 19  1  0
 19 20  2  0
 19 21  2  0
 19 22  1  0
 22 23  1  0
 23 24  1  0
 24 25  1  0
 25 26  1  0
 26 27  1  0
 18 28  1  0
 28 29  1  0
 14  4  1  0
 29 15  1  0
 27 22  1  0
M  END
>  <energy_score>  (1168) 
-66.469547

>  <inchikey>  (1168) 
None

>  <smiles>  (1168) 
None

>  <ref_pdb>  (1168) 
A4706a

>  <alias>  (1168) 
None

>  <HIPPO Pose ID>  (1168) 
500470

>  <name>  (1168) 
P500470

>  <HIPPO Compound ID>  (1168) 
314786

>  <ref_mols>  (1168) 
A0875a,A4706a

>  <distance_score>  (1168) 
1.741409

>  <inspiration_score>  (1168) 
None

$$$$
P500471
     RDKit          3D

 29 32  0  0  0  0  0  0  0  0999 V2000
   11.3147   14.9632   18.3889 C   0  0  0  0  0  0  0  0  0  0  0  0
   10.7158   14.9721   19.7412 C   0  0  0  0  0  0  0  0  0  0  0  0
   11.5359   14.9205   20.8510 C   0  0  0  0  0  0  0  0  0  0  0  0
   10.9659   14.9668   22.1020 C   0  0  0  0  0  0  0  0  0  0  0  0
   12.0205   14.5094   23.5343 Br  0  0  0  0  0  0  0  0  0  0  0  0
    9.6115   15.1276   22.2191 C   0  0  0  0  0  0  0  0  0  0  0  0
    8.7706   14.8886   21.1643 C   0  0  0  0  0  0  0  0  0  0  0  0
    9.3299   14.9875   19.9084 C   0  0  0  0  0  0  0  0  0  0  0  0
    7.3722   14.8248   21.7173 C   0  0  1  0  0  0  0  0  0  0  0  0
    7.0894   13.6304   22.5173 O   0  0  0  0  0  0  0  0  0  0  0  0
    5.9592   13.7520   23.2786 C   0  0  0  0  0  0  0  0  0  0  0  0
    4.9810   14.3983   22.9141 O   0  0  0  0  0  0  0  0  0  0  0  0
    6.0347   13.1163   24.6789 C   0  0  0  0  0  0  0  0  0  0  0  0
    6.8734   11.8314   24.7961 C   0  0  0  0  0  0  0  0  0  0  0  0
    7.6727   11.5987   26.0671 C   0  0  0  0  0  0  0  0  0  0  0  0
    8.2127   12.8567   26.5833 N   0  0  0  0  0  0  0  0  0  0  0  0
    9.4656   13.5453   25.6871 S   0  0  0  0  0  0  0  0  0  0  0  0
    9.5780   14.9091   26.1337 O   0  0  0  0  0  0  0  0  0  0  0  0
    9.2352   13.1912   24.3146 O   0  0  0  0  0  0  0  0  0  0  0  0
   10.8250   12.6684   26.2514 N   0  0  0  0  0  0  0  0  0  0  0  0
   11.7593   13.5098   27.0237 C   0  0  0  0  0  0  0  0  0  0  0  0
   13.0431   12.7925   27.4048 C   0  0  0  0  0  0  0  0  0  0  0  0
   13.7853   12.3049   26.1983 C   0  0  0  0  0  0  0  0  0  0  0  0
   12.9002   11.4877   25.3016 C   0  0  0  0  0  0  0  0  0  0  0  0
   11.3863   11.7169   25.2694 C   0  0  0  0  0  0  0  0  0  0  0  0
    7.0930   13.7680   26.9285 C   0  0  0  0  0  0  0  0  0  0  0  0
    6.3939   14.2389   25.6692 C   0  0  0  0  0  0  0  0  0  0  0  0
    7.6327   15.9639   22.6724 C   0  0  0  0  0  0  0  0  0  0  0  0
    8.9072   15.5973   23.3027 O   0  0  0  0  0  0  0  0  0  0  0  0
  1  2  1  0
  2  3  2  0
  3  4  1  0
  4  5  1  0
  4  6  2  0
  6  7  1  0
  7  8  2  0
  7  9  1  0
  9 10  1  1
 10 11  1  0
 11 12  2  0
 11 13  1  0
 13 14  1  0
 14 15  1  0
 15 16  1  0
 16 17  1  0
 17 18  2  0
 17 19  2  0
 17 20  1  0
 20 21  1  0
 21 22  1  0
 22 23  1  0
 23 24  1  0
 24 25  1  0
 16 26  1  0
 26 27  1  0
  9 28  1  0
 28 29  1  0
  8  2  1  0
 27 13  1  0
 29  6  1  0
 25 20  1  0
M  END
>  <energy_score>  (1169) 
-17.309551

>  <inchikey>  (1169) 
None

>  <smiles>  (1169) 
None

>  <ref_pdb>  (1169) 
A4706a

>  <alias>  (1169) 
None

>  <HIPPO Pose ID>  (1169) 
500471

>  <name>  (1169) 
P500471

>  <HIPPO Compound ID>  (1169) 
314790

>  <ref_mols>  (1169) 
A4706a,A0875a

>  <distance_score>  (1169) 
1.761853

>  <inspiration_score>  (1169) 
None

$$$$
P500473
     RDKit          3D

 29 31  0  0  0  0  0  0  0  0999 V2000
   14.6100   14.8641   29.8233 C   0  0  0  0  0  0  0  0  0  0  0  0
   14.3982   13.4519   30.3650 C   0  0  0  0  0  0  0  0  0  0  0  0
   12.9068   13.4126   30.7731 C   0  0  0  0  0  0  0  0  0  0  0  0
   15.1975   13.3580   31.7201 C   0  0  0  0  0  0  0  0  0  0  0  0
   16.6461   13.3312   31.6024 N   0  0  0  0  0  0  0  0  0  0  0  0
   14.7388   12.3048   29.2579 C   0  0  1  0  0  0  0  0  0  0  0  0
   13.7158   12.4451   28.0940 O   0  0  0  0  0  0  0  0  0  0  0  0
   13.8184   11.6567   26.9805 C   0  0  0  0  0  0  0  0  0  0  0  0
   14.6693   10.7813   26.8613 O   0  0  0  0  0  0  0  0  0  0  0  0
   12.8899   11.8830   25.7547 C   0  0  0  0  0  0  0  0  0  0  0  0
   12.9069   13.3057   25.2805 C   0  0  0  0  0  0  0  0  0  0  0  0
   11.7128   14.0980   25.8162 C   0  0  0  0  0  0  0  0  0  0  0  0
   10.5595   13.4218   25.2329 N   0  0  0  0  0  0  0  0  0  0  0  0
    9.2689   14.2487   24.6163 S   0  0  0  0  0  0  0  0  0  0  0  0
    8.3768   13.2726   24.0387 O   0  0  0  0  0  0  0  0  0  0  0  0
    8.8329   15.1535   25.6508 O   0  0  0  0  0  0  0  0  0  0  0  0
    9.9132   15.1270   23.3270 N   0  0  0  0  0  0  0  0  0  0  0  0
   11.1382   14.6127   22.6553 C   0  0  0  0  0  0  0  0  0  0  0  0
   11.4162   15.3482   21.3613 C   0  0  0  0  0  0  0  0  0  0  0  0
   10.3105   15.1142   20.3479 C   0  0  0  0  0  0  0  0  0  0  0  0
    9.0072   14.7566   21.0478 C   0  0  0  0  0  0  0  0  0  0  0  0
    8.8709   15.5615   22.3275 C   0  0  0  0  0  0  0  0  0  0  0  0
   10.3139   12.1612   25.9218 C   0  0  0  0  0  0  0  0  0  0  0  0
   11.4868   11.2929   25.4953 C   0  0  0  0  0  0  0  0  0  0  0  0
   16.1676   12.4897   28.6435 C   0  0  0  0  0  0  0  0  0  0  0  0
   17.1108   11.2855   28.6439 C   0  0  0  0  0  0  0  0  0  0  0  0
   16.8065   10.2982   29.7412 C   0  0  0  0  0  0  0  0  0  0  0  0
   15.4505    9.9084   29.6127 O   0  0  0  0  0  0  0  0  0  0  0  0
   14.5538   10.9391   29.9814 C   0  0  0  0  0  0  0  0  0  0  0  0
  1  2  1  0
  2  3  1  0
  2  4  1  0
  4  5  1  0
  2  6  1  0
  6  7  1  6
  7  8  1  0
  8  9  2  0
  8 10  1  0
 10 11  1  0
 11 12  1  0
 12 13  1  0
 13 14  1  0
 14 15  2  0
 14 16  2  0
 14 17  1  0
 17 18  1  0
 18 19  1  0
 19 20  1  0
 20 21  1  0
 21 22  1  0
 13 23  1  0
 23 24  1  0
  6 25  1  0
 25 26  1  0
 26 27  1  0
 27 28  1  0
 28 29  1  0
 29  6  1  0
 24 10  1  0
 22 17  1  0
M  END
>  <energy_score>  (1170) 
-58.279124

>  <inchikey>  (1170) 
None

>  <smiles>  (1170) 
None

>  <ref_pdb>  (1170) 
A4706a

>  <alias>  (1170) 
None

>  <HIPPO Pose ID>  (1170) 
500473

>  <name>  (1170) 
P500473

>  <HIPPO Compound ID>  (1170) 
314794

>  <ref_mols>  (1170) 
A0875a,A4706a

>  <distance_score>  (1170) 
1.974072

>  <inspiration_score>  (1170) 
None

$$$$
P500477
     RDKit          3D

 29 32  0  0  0  0  0  0  0  0999 V2000
   11.6310   14.2271   17.8648 N   0  0  0  0  0  0  0  0  0  0  0  0
   11.4371   14.9071   18.7369 N   0  0  0  0  0  0  0  0  0  0  0  0
   11.2024   15.6201   19.6981 N   0  0  0  0  0  0  0  0  0  0  0  0
    9.8323   16.0743   19.8142 C   0  0  0  0  0  0  0  0  0  0  0  0
    9.3195   15.5262   21.1084 C   0  0  2  0  0  0  0  0  0  0  0  0
    8.2087   16.3116   21.7722 C   0  0  0  0  0  0  0  0  0  0  0  0
    8.1889   15.7542   23.1022 O   0  0  0  0  0  0  0  0  0  0  0  0
    9.2660   14.8018   23.1314 C   0  0  2  0  0  0  0  0  0  0  0  0
   10.3255   15.3812   22.2430 C   0  0  0  0  0  0  0  0  0  0  0  0
    8.7901   13.5717   22.3767 C   0  0  1  0  0  0  0  0  0  0  0  0
    7.4576   13.2304   22.7520 O   0  0  0  0  0  0  0  0  0  0  0  0
    7.4157   12.4557   23.8578 C   0  0  0  0  0  0  0  0  0  0  0  0
    8.2273   11.5679   24.0922 O   0  0  0  0  0  0  0  0  0  0  0  0
    6.1883   12.7654   24.6936 C   0  0  0  0  0  0  0  0  0  0  0  0
    6.3413   12.0183   26.0063 C   0  0  0  0  0  0  0  0  0  0  0  0
    7.5746   12.5210   26.7611 C   0  0  0  0  0  0  0  0  0  0  0  0
    8.1380   13.7550   26.1376 N   0  0  0  0  0  0  0  0  0  0  0  0
    9.5283   14.4101   26.8172 S   0  0  0  0  0  0  0  0  0  0  0  0
    9.9564   15.5410   26.0275 O   0  0  0  0  0  0  0  0  0  0  0  0
    9.2548   14.5700   28.2211 O   0  0  0  0  0  0  0  0  0  0  0  0
   10.7685   13.2244   26.6563 N   0  0  0  0  0  0  0  0  0  0  0  0
   11.1707   12.9893   25.2500 C   0  0  0  0  0  0  0  0  0  0  0  0
   12.3343   12.0283   25.1511 C   0  0  0  0  0  0  0  0  0  0  0  0
   13.5448   12.4032   25.9681 C   0  0  0  0  0  0  0  0  0  0  0  0
   13.1463   12.7793   27.3743 C   0  0  0  0  0  0  0  0  0  0  0  0
   11.9479   13.7232   27.4393 C   0  0  0  0  0  0  0  0  0  0  0  0
    7.0533   14.7715   25.9884 C   0  0  0  0  0  0  0  0  0  0  0  0
    6.0242   14.2593   24.9857 C   0  0  0  0  0  0  0  0  0  0  0  0
    8.7953   14.1085   20.9645 C   0  0  0  0  0  0  0  0  0  0  0  0
  1  2  2  0
  2  3  2  0
  3  4  1  0
  5  4  1  6
  5  6  1  0
  6  7  1  0
  8  7  1  6
  8  9  1  0
  8 10  1  0
 10 11  1  1
 11 12  1  0
 12 13  2  0
 12 14  1  0
 14 15  1  0
 15 16  1  0
 16 17  1  0
 17 18  1  0
 18 19  2  0
 18 20  2  0
 18 21  1  0
 21 22  1  0
 22 23  1  0
 23 24  1  0
 24 25  1  0
 25 26  1  0
 17 27  1  0
 27 28  1  0
 10 29  1  0
  9  5  1  0
 28 14  1  0
 29  5  1  0
 26 21  1  0
M  CHG  2   1  -1   2   1
M  END
>  <energy_score>  (1171) 
-75.647129

>  <inchikey>  (1171) 
None

>  <smiles>  (1171) 
None

>  <ref_pdb>  (1171) 
A4706a

>  <alias>  (1171) 
None

>  <HIPPO Pose ID>  (1171) 
500477

>  <name>  (1171) 
P500477

>  <HIPPO Compound ID>  (1171) 
314795

>  <ref_mols>  (1171) 
A0875a,A4706a

>  <distance_score>  (1171) 
1.808081

>  <inspiration_score>  (1171) 
None

$$$$
P500478
     RDKit          3D

 29 32  0  0  0  0  0  0  0  0999 V2000
   20.0246   11.4891   30.1505 C   0  0  0  0  0  0  0  0  0  0  0  0
   19.0226   10.6850   29.3314 C   0  0  0  0  0  0  0  0  0  0  0  0
   19.7215    9.6738   28.4300 C   0  0  0  0  0  0  0  0  0  0  0  0
   18.2348   11.5876   28.4905 O   0  0  0  0  0  0  0  0  0  0  0  0
   17.0179   11.6344   29.2017 C   0  0  2  0  0  0  0  0  0  0  0  0
   16.8710   10.2111   29.6260 C   0  0  2  0  0  0  0  0  0  0  0  0
   15.5460   10.3006   30.3267 C   0  0  0  0  0  0  0  0  0  0  0  0
   14.7408   11.1035   29.4035 O   0  0  0  0  0  0  0  0  0  0  0  0
   15.6638   11.9122   28.5979 C   0  0  2  0  0  0  0  0  0  0  0  0
   15.5357   11.5847   27.1100 C   0  0  0  0  0  0  0  0  0  0  0  0
   14.2975   12.1506   26.6312 O   0  0  0  0  0  0  0  0  0  0  0  0
   13.4514   11.3758   25.9034 C   0  0  0  0  0  0  0  0  0  0  0  0
   13.6423   10.2222   25.5532 O   0  0  0  0  0  0  0  0  0  0  0  0
   12.1757   12.1296   25.6714 C   0  0  0  0  0  0  0  0  0  0  0  0
   12.4695   13.2551   24.6942 C   0  0  0  0  0  0  0  0  0  0  0  0
   11.3230   14.2337   24.7321 C   0  0  0  0  0  0  0  0  0  0  0  0
   10.0854   13.4715   24.9672 N   0  0  0  0  0  0  0  0  0  0  0  0
    8.7443   14.3918   25.1797 S   0  0  0  0  0  0  0  0  0  0  0  0
    8.0563   14.4310   23.9177 O   0  0  0  0  0  0  0  0  0  0  0  0
    9.1949   15.5965   25.8349 O   0  0  0  0  0  0  0  0  0  0  0  0
    7.8432   13.6060   26.3640 N   0  0  0  0  0  0  0  0  0  0  0  0
    7.3774   12.2283   26.2104 C   0  0  0  0  0  0  0  0  0  0  0  0
    6.3093   12.1392   25.1481 C   0  0  0  0  0  0  0  0  0  0  0  0
    5.3663   13.3376   25.1536 C   0  0  0  0  0  0  0  0  0  0  0  0
    5.3691   14.0370   26.5043 C   0  0  0  0  0  0  0  0  0  0  0  0
    6.7653   14.4769   26.9400 C   0  0  0  0  0  0  0  0  0  0  0  0
   10.0704   12.1875   24.2597 C   0  0  0  0  0  0  0  0  0  0  0  0
   10.9307   11.3287   25.1857 C   0  0  0  0  0  0  0  0  0  0  0  0
   18.1178    9.9891   30.2461 O   0  0  0  0  0  0  0  0  0  0  0  0
  1  2  1  0
  2  3  1  0
  2  4  1  0
  5  4  1  6
  5  6  1  0
  6  7  1  1
  7  8  1  0
  8  9  1  0
  9 10  1  6
 10 11  1  0
 11 12  1  0
 12 13  2  0
 12 14  1  0
 14 15  1  0
 15 16  1  0
 16 17  1  0
 17 18  1  0
 18 19  2  0
 18 20  2  0
 18 21  1  0
 21 22  1  0
 22 23  1  0
 23 24  1  0
 24 25  1  0
 25 26  1  0
 17 27  1  0
 27 28  1  0
  6 29  1  0
 29  2  1  0
  9  5  1  0
 28 14  1  0
 26 21  1  0
M  END
>  <energy_score>  (1172) 
-55.271986

>  <inchikey>  (1172) 
None

>  <smiles>  (1172) 
None

>  <ref_pdb>  (1172) 
A4706a

>  <alias>  (1172) 
None

>  <HIPPO Pose ID>  (1172) 
500478

>  <name>  (1172) 
P500478

>  <HIPPO Compound ID>  (1172) 
314796

>  <ref_mols>  (1172) 
A4706a,A0875a

>  <distance_score>  (1172) 
1.813966

>  <inspiration_score>  (1172) 
None

$$$$
P500481
     RDKit          3D

 29 31  0  0  0  0  0  0  0  0999 V2000
   14.7423   13.4403   31.4011 C   0  0  0  0  0  0  0  0  0  0  0  0
   15.1224   12.3913   30.5099 O   0  0  0  0  0  0  0  0  0  0  0  0
   15.1391   12.7517   29.1992 C   0  0  0  0  0  0  0  0  0  0  0  0
   14.9094   13.8769   28.7657 O   0  0  0  0  0  0  0  0  0  0  0  0
   15.5128   11.5567   28.3077 C   0  0  1  0  0  0  0  0  0  0  0  0
   15.0585   11.7088   26.9280 O   0  0  0  0  0  0  0  0  0  0  0  0
   13.7000   11.8158   26.8451 C   0  0  0  0  0  0  0  0  0  0  0  0
   12.9918   11.8534   27.8393 O   0  0  0  0  0  0  0  0  0  0  0  0
   13.1079   11.8393   25.4331 C   0  0  0  0  0  0  0  0  0  0  0  0
   12.9462   13.2835   25.0355 C   0  0  0  0  0  0  0  0  0  0  0  0
   11.7138   13.9058   25.7063 C   0  0  0  0  0  0  0  0  0  0  0  0
   10.5074   13.2886   25.1194 N   0  0  0  0  0  0  0  0  0  0  0  0
    9.2483   14.2430   24.6265 S   0  0  0  0  0  0  0  0  0  0  0  0
    8.0861   13.3993   24.5122 O   0  0  0  0  0  0  0  0  0  0  0  0
    9.2500   15.4119   25.4654 O   0  0  0  0  0  0  0  0  0  0  0  0
    9.7334   14.6065   23.0724 N   0  0  0  0  0  0  0  0  0  0  0  0
   10.9691   15.3665   22.8277 C   0  0  0  0  0  0  0  0  0  0  0  0
   11.4994   15.0636   21.4414 C   0  0  0  0  0  0  0  0  0  0  0  0
   10.4465   15.3936   20.4005 C   0  0  0  0  0  0  0  0  0  0  0  0
    9.1481   14.6931   20.7486 C   0  0  0  0  0  0  0  0  0  0  0  0
    8.6667   15.0366   22.1438 C   0  0  0  0  0  0  0  0  0  0  0  0
   10.6805   11.9875   24.4651 C   0  0  0  0  0  0  0  0  0  0  0  0
   11.6890   11.2469   25.3446 C   0  0  0  0  0  0  0  0  0  0  0  0
   17.0351   11.2943   28.4309 C   0  0  2  0  0  0  0  0  0  0  0  0
   17.8958   12.5335   28.1485 C   0  0  0  0  0  0  0  0  0  0  0  0
   19.3953   12.2226   28.1167 C   0  0  0  0  0  0  0  0  0  0  0  0
   19.7057   10.7464   28.3399 C   0  0  0  0  0  0  0  0  0  0  0  0
   18.9229    9.9047   27.4405 N   0  0  0  0  0  0  0  0  0  0  0  0
   17.4779   10.0927   27.5812 C   0  0  0  0  0  0  0  0  0  0  0  0
  1  2  1  0
  2  3  1  0
  3  4  2  0
  3  5  1  0
  5  6  1  6
  6  7  1  0
  7  8  2  0
  7  9  1  0
  9 10  1  0
 10 11  1  0
 11 12  1  0
 12 13  1  0
 13 14  2  0
 13 15  2  0
 13 16  1  0
 16 17  1  0
 17 18  1  0
 18 19  1  0
 19 20  1  0
 20 21  1  0
 12 22  1  0
 22 23  1  0
  5 24  1  0
 24 25  1  6
 25 26  1  0
 26 27  1  0
 27 28  1  0
 28 29  1  0
 23  9  1  0
 29 24  1  0
 21 16  1  0
M  END
>  <energy_score>  (1173) 
-59.314295

>  <inchikey>  (1173) 
None

>  <smiles>  (1173) 
None

>  <ref_pdb>  (1173) 
A4706a

>  <alias>  (1173) 
None

>  <HIPPO Pose ID>  (1173) 
500481

>  <name>  (1173) 
P500481

>  <HIPPO Compound ID>  (1173) 
314797

>  <ref_mols>  (1173) 
A4706a,A0875a

>  <distance_score>  (1173) 
1.86972

>  <inspiration_score>  (1173) 
None

$$$$
P500482
     RDKit          3D

 29 32  0  0  0  0  0  0  0  0999 V2000
    5.8391   13.6059   22.3059 O   0  0  0  0  0  0  0  0  0  0  0  0
    6.8845   13.8081   22.9069 C   0  0  0  0  0  0  0  0  0  0  0  0
    8.0363   14.1501   22.2509 O   0  0  0  0  0  0  0  0  0  0  0  0
    9.3448   14.1555   22.8760 C   0  0  1  0  0  0  0  0  0  0  0  0
   10.3026   13.2480   22.1696 C   0  0  0  0  0  0  0  0  0  0  0  0
   11.5856   13.8697   22.3044 O   0  0  0  0  0  0  0  0  0  0  0  0
   11.3194   15.2648   22.0525 C   0  0  1  0  0  0  0  0  0  0  0  0
   11.1201   15.3752   20.5985 C   0  0  0  0  0  0  0  0  0  0  0  0
   11.7388   14.6768   19.5826 C   0  0  0  0  0  0  0  0  0  0  0  0
   11.0276   14.6071   18.4232 N   0  0  0  0  0  0  0  0  0  0  0  0
    9.9662   15.3457   18.5983 C   0  0  0  0  0  0  0  0  0  0  0  0
    8.6057   15.3752   17.6124 Cl  0  0  0  0  0  0  0  0  0  0  0  0
    9.8204   16.2693   19.9765 S   0  0  0  0  0  0  0  0  0  0  0  0
   10.0462   15.4956   22.8520 C   0  0  0  0  0  0  0  0  0  0  0  0
    7.0342   13.5982   24.3826 C   0  0  0  0  0  0  0  0  0  0  0  0
    7.4757   12.1524   24.6409 C   0  0  0  0  0  0  0  0  0  0  0  0
    7.8680   11.9268   26.0852 C   0  0  0  0  0  0  0  0  0  0  0  0
    8.0247   13.2051   26.7654 N   0  0  0  0  0  0  0  0  0  0  0  0
    9.4505   14.0976   26.8167 S   0  0  0  0  0  0  0  0  0  0  0  0
    9.4850   14.6497   28.1470 O   0  0  0  0  0  0  0  0  0  0  0  0
    9.5140   15.0013   25.6997 O   0  0  0  0  0  0  0  0  0  0  0  0
   10.7940   13.0375   26.6839 N   0  0  0  0  0  0  0  0  0  0  0  0
   11.1184   12.4901   25.3512 C   0  0  0  0  0  0  0  0  0  0  0  0
   12.2778   11.4884   25.4367 C   0  0  0  0  0  0  0  0  0  0  0  0
   13.2604   11.7169   26.5627 C   0  0  0  0  0  0  0  0  0  0  0  0
   13.3439   13.1768   26.7372 C   0  0  0  0  0  0  0  0  0  0  0  0
   12.0086   13.7700   27.2159 C   0  0  0  0  0  0  0  0  0  0  0  0
    6.7363   14.0078   26.7938 C   0  0  0  0  0  0  0  0  0  0  0  0
    5.9997   13.9663   25.4236 C   0  0  0  0  0  0  0  0  0  0  0  0
  1  2  2  0
  2  3  1  0
  4  3  1  6
  4  5  1  0
  5  6  1  0
  6  7  1  0
  7  8  1  6
  8  9  2  0
  9 10  1  0
 10 11  2  0
 11 12  1  0
 11 13  1  0
  7 14  1  0
  2 15  1  0
 15 16  1  0
 16 17  1  0
 17 18  1  0
 18 19  1  0
 19 20  2  0
 19 21  2  0
 19 22  1  0
 22 23  1  0
 23 24  1  0
 24 25  1  0
 25 26  1  0
 26 27  1  0
 18 28  1  0
 28 29  1  0
 14  4  1  0
 29 15  1  0
 13  8  1  0
 27 22  1  0
M  END
>  <energy_score>  (1174) 
-58.341892

>  <inchikey>  (1174) 
None

>  <smiles>  (1174) 
None

>  <ref_pdb>  (1174) 
A4706a

>  <alias>  (1174) 
None

>  <HIPPO Pose ID>  (1174) 
500482

>  <name>  (1174) 
P500482

>  <HIPPO Compound ID>  (1174) 
314799

>  <ref_mols>  (1174) 
A4706a,A0875a

>  <distance_score>  (1174) 
1.718254

>  <inspiration_score>  (1174) 
None

$$$$
P500483
     RDKit          3D

 29 31  0  0  0  0  0  0  0  0999 V2000
   11.1541   12.6711   22.3769 N   0  0  0  0  0  0  0  0  0  0  0  0
    9.7723   13.1180   22.3020 C   0  0  0  0  0  0  0  0  0  0  0  0
    9.4764   14.1953   23.3129 C   0  0  1  0  0  0  0  0  0  0  0  0
   10.4675   15.3535   23.3098 C   0  0  0  0  0  0  0  0  0  0  0  0
   10.2957   16.2872   22.2725 O   0  0  0  0  0  0  0  0  0  0  0  0
   10.5928   15.8114   21.0607 C   0  0  0  0  0  0  0  0  0  0  0  0
   11.8322   15.3133   20.7462 C   0  0  0  0  0  0  0  0  0  0  0  0
   12.0101   14.7262   19.5172 C   0  0  0  0  0  0  0  0  0  0  0  0
   11.0066   14.7597   18.5782 C   0  0  0  0  0  0  0  0  0  0  0  0
    9.7933   15.3560   18.8789 C   0  0  0  0  0  0  0  0  0  0  0  0
    9.5784   15.8741   20.1392 C   0  0  0  0  0  0  0  0  0  0  0  0
    8.1055   14.6446   23.3443 O   0  0  0  0  0  0  0  0  0  0  0  0
    7.1763   13.6644   23.2934 C   0  0  0  0  0  0  0  0  0  0  0  0
    6.8220   13.1350   22.2424 O   0  0  0  0  0  0  0  0  0  0  0  0
    6.6527   13.1746   24.6321 C   0  0  0  0  0  0  0  0  0  0  0  0
    7.4252   11.9290   25.1027 C   0  0  0  0  0  0  0  0  0  0  0  0
    8.3017   12.1923   26.3280 C   0  0  0  0  0  0  0  0  0  0  0  0
    8.9130   13.5143   26.1858 N   0  0  0  0  0  0  0  0  0  0  0  0
   10.3926   13.9694   26.8411 S   0  0  0  0  0  0  0  0  0  0  0  0
   10.8841   15.0789   26.0633 O   0  0  0  0  0  0  0  0  0  0  0  0
   10.1605   14.1404   28.2507 O   0  0  0  0  0  0  0  0  0  0  0  0
   11.5530   12.7233   26.6637 N   0  0  0  0  0  0  0  0  0  0  0  0
   12.8148   13.0502   27.4408 C   0  0  0  0  0  0  0  0  0  0  0  0
   14.1256   12.8372   26.6852 C   0  0  0  0  0  0  0  0  0  0  0  0
   14.2052   11.4580   26.1415 C   0  0  0  0  0  0  0  0  0  0  0  0
   13.0037   11.2668   25.2536 C   0  0  0  0  0  0  0  0  0  0  0  0
   11.8625   12.3016   25.2922 C   0  0  0  0  0  0  0  0  0  0  0  0
    7.8973   14.6137   26.3342 C   0  0  0  0  0  0  0  0  0  0  0  0
    6.5586   14.2543   25.7013 C   0  0  0  0  0  0  0  0  0  0  0  0
  1  2  1  0
  3  2  1  6
  3  4  1  0
  4  5  1  0
  5  6  1  0
  6  7  2  0
  7  8  1  0
  8  9  2  0
  9 10  1  0
 10 11  2  0
  3 12  1  0
 12 13  1  0
 13 14  2  0
 13 15  1  0
 15 16  1  0
 16 17  1  0
 17 18  1  0
 18 19  1  0
 19 20  2  0
 19 21  2  0
 19 22  1  0
 22 23  1  0
 23 24  1  0
 24 25  1  0
 25 26  1  0
 26 27  1  0
 18 28  1  0
 28 29  1  0
 11  6  1  0
 29 15  1  0
 27 22  1  0
M  END
>  <energy_score>  (1175) 
-20.20121

>  <inchikey>  (1175) 
None

>  <smiles>  (1175) 
None

>  <ref_pdb>  (1175) 
A4706a

>  <alias>  (1175) 
None

>  <HIPPO Pose ID>  (1175) 
500483

>  <name>  (1175) 
P500483

>  <HIPPO Compound ID>  (1175) 
314801

>  <ref_mols>  (1175) 
A4706a,A0875a

>  <distance_score>  (1175) 
1.819281

>  <inspiration_score>  (1175) 
None

$$$$
P500484
     RDKit          3D

 29 32  0  0  0  0  0  0  0  0999 V2000
   12.0934   14.4534   20.0129 C   0  0  0  0  0  0  0  0  0  0  0  0
   11.3760   15.1670   19.0308 O   0  0  0  0  0  0  0  0  0  0  0  0
   10.1339   15.6249   19.3310 C   0  0  0  0  0  0  0  0  0  0  0  0
    9.4943   16.2136   18.4632 O   0  0  0  0  0  0  0  0  0  0  0  0
    9.5575   15.3713   20.7248 C   0  0  2  0  0  0  0  0  0  0  0  0
    8.6642   16.4967   21.3754 C   0  0  0  0  0  0  0  0  0  0  0  0
    8.8807   15.5507   22.5818 C   0  0  2  0  0  0  0  0  0  0  0  0
   10.3571   15.5550   22.0813 C   0  0  0  0  0  0  0  0  0  0  0  0
    8.3379   14.1796   22.1707 C   0  0  1  0  0  0  0  0  0  0  0  0
    6.8149   14.1282   22.2567 C   0  0  0  0  0  0  0  0  0  0  0  0
    6.5102   13.2741   23.3711 O   0  0  0  0  0  0  0  0  0  0  0  0
    5.4613   13.6665   24.1299 C   0  0  0  0  0  0  0  0  0  0  0  0
    4.5644   14.4148   23.7697 O   0  0  0  0  0  0  0  0  0  0  0  0
    5.5927   13.1404   25.5425 C   0  0  0  0  0  0  0  0  0  0  0  0
    6.3540   11.8110   25.6854 C   0  0  0  0  0  0  0  0  0  0  0  0
    7.8699   11.9319   25.7212 C   0  0  0  0  0  0  0  0  0  0  0  0
    8.3204   13.0061   26.6170 N   0  0  0  0  0  0  0  0  0  0  0  0
    9.6238   13.9439   26.1446 S   0  0  0  0  0  0  0  0  0  0  0  0
    9.5349   14.2230   24.7432 O   0  0  0  0  0  0  0  0  0  0  0  0
    9.7428   15.0193   27.0972 O   0  0  0  0  0  0  0  0  0  0  0  0
   10.9681   12.9099   26.3463 N   0  0  0  0  0  0  0  0  0  0  0  0
   12.0972   13.6643   26.9549 C   0  0  0  0  0  0  0  0  0  0  0  0
   13.4794   13.1090   26.6099 C   0  0  0  0  0  0  0  0  0  0  0  0
   13.4537   11.6367   26.5686 C   0  0  0  0  0  0  0  0  0  0  0  0
   12.5794   11.2620   25.3975 C   0  0  0  0  0  0  0  0  0  0  0  0
   11.3636   12.1641   25.1285 C   0  0  0  0  0  0  0  0  0  0  0  0
    7.2339   13.7179   27.3468 C   0  0  0  0  0  0  0  0  0  0  0  0
    6.2191   14.2656   26.3701 C   0  0  0  0  0  0  0  0  0  0  0  0
    8.8091   14.1313   20.8377 O   0  0  0  0  0  0  0  0  0  0  0  0
  1  2  1  0
  2  3  1  0
  3  4  2  0
  5  3  1  6
  5  6  1  0
  7  6  1  6
  7  8  1  0
  7  9  1  0
  9 10  1  6
 10 11  1  0
 11 12  1  0
 12 13  2  0
 12 14  1  0
 14 15  1  0
 15 16  1  0
 16 17  1  0
 17 18  1  0
 18 19  2  0
 18 20  2  0
 18 21  1  0
 21 22  1  0
 22 23  1  0
 23 24  1  0
 24 25  1  0
 25 26  1  0
 17 27  1  0
 27 28  1  0
  9 29  1  0
  8  5  1  0
 28 14  1  0
 29  5  1  0
 26 21  1  0
M  END
>  <energy_score>  (1176) 
-49.752155

>  <inchikey>  (1176) 
None

>  <smiles>  (1176) 
None

>  <ref_pdb>  (1176) 
A4706a

>  <alias>  (1176) 
None

>  <HIPPO Pose ID>  (1176) 
500484

>  <name>  (1176) 
P500484

>  <HIPPO Compound ID>  (1176) 
314802

>  <ref_mols>  (1176) 
A4706a,A0875a

>  <distance_score>  (1176) 
1.94057

>  <inspiration_score>  (1176) 
None

$$$$
P500485
     RDKit          3D

 29 32  0  0  0  0  0  0  0  0999 V2000
   15.1603   13.0745   26.1236 O   0  0  0  0  0  0  0  0  0  0  0  0
   14.2079   12.3390   26.3238 C   0  0  0  0  0  0  0  0  0  0  0  0
   14.0602   11.6225   27.4672 O   0  0  0  0  0  0  0  0  0  0  0  0
   15.0270   11.9436   28.5168 C   0  0  1  0  0  0  0  0  0  0  0  0
   14.5360   11.4190   29.8689 C   0  0  0  0  0  0  0  0  0  0  0  0
   14.9190   10.0614   30.0750 O   0  0  0  0  0  0  0  0  0  0  0  0
   16.1068    9.9187   30.8707 C   0  0  1  0  0  0  0  0  0  0  0  0
   16.2037    8.4285   31.2797 C   0  0  0  0  0  0  0  0  0  0  0  0
   17.5607    7.9881   31.6062 N   0  0  0  0  0  0  0  0  0  0  0  0
   18.4666    8.1028   30.4593 C   0  0  0  0  0  0  0  0  0  0  0  0
   18.0760    9.1782   29.4401 C   0  0  0  0  0  0  0  0  0  0  0  0
   17.4051   10.3589   30.1460 C   0  0  1  0  0  0  0  0  0  0  0  0
   17.2946   11.5217   29.3195 O   0  0  0  0  0  0  0  0  0  0  0  0
   16.4292   11.4137   28.1948 C   0  0  0  0  0  0  0  0  0  0  0  0
   13.1311   12.1296   25.2634 C   0  0  0  0  0  0  0  0  0  0  0  0
   12.7034   13.4442   24.6364 C   0  0  0  0  0  0  0  0  0  0  0  0
   11.5436   14.1093   25.3538 C   0  0  0  0  0  0  0  0  0  0  0  0
   10.3640   13.2715   25.2096 N   0  0  0  0  0  0  0  0  0  0  0  0
    8.9645   13.9632   24.6476 S   0  0  0  0  0  0  0  0  0  0  0  0
    8.7565   15.1764   25.3970 O   0  0  0  0  0  0  0  0  0  0  0  0
    7.9673   12.9276   24.5983 O   0  0  0  0  0  0  0  0  0  0  0  0
    9.3609   14.4318   23.1095 N   0  0  0  0  0  0  0  0  0  0  0  0
    8.3538   15.2254   22.3724 C   0  0  0  0  0  0  0  0  0  0  0  0
    8.9684   15.7839   21.0856 C   0  0  0  0  0  0  0  0  0  0  0  0
   10.4909   15.8192   21.0526 C   0  0  0  0  0  0  0  0  0  0  0  0
   11.1414   14.5340   21.5414 C   0  0  0  0  0  0  0  0  0  0  0  0
   10.1122   13.6105   22.1769 C   0  0  0  0  0  0  0  0  0  0  0  0
   10.5497   11.8315   25.0989 C   0  0  0  0  0  0  0  0  0  0  0  0
   11.8795   11.4595   25.7369 C   0  0  0  0  0  0  0  0  0  0  0  0
  1  2  2  0
  2  3  1  0
  4  3  1  6
  4  5  1  0
  5  6  1  0
  6  7  1  0
  7  8  1  6
  8  9  1  0
  9 10  1  0
 10 11  1  0
 12 11  1  6
 12 13  1  0
 13 14  1  0
  2 15  1  0
 15 16  1  0
 16 17  1  0
 17 18  1  0
 18 19  1  0
 19 20  2  0
 19 21  2  0
 19 22  1  0
 22 23  1  0
 23 24  1  0
 24 25  1  0
 25 26  1  0
 26 27  1  0
 18 28  1  0
 28 29  1  0
 14  4  1  0
 29 15  1  0
 12  7  1  0
 27 22  1  0
M  END
>  <energy_score>  (1177) 
-91.295943

>  <inchikey>  (1177) 
None

>  <smiles>  (1177) 
None

>  <ref_pdb>  (1177) 
A4706a

>  <alias>  (1177) 
None

>  <HIPPO Pose ID>  (1177) 
500485

>  <name>  (1177) 
P500485

>  <HIPPO Compound ID>  (1177) 
314804

>  <ref_mols>  (1177) 
A4706a,A0875a

>  <distance_score>  (1177) 
1.955342

>  <inspiration_score>  (1177) 
None

$$$$
P500487
     RDKit          3D

 29 31  0  0  0  0  0  0  0  0999 V2000
    8.0568   19.2243   19.6939 C   0  0  0  0  0  0  0  0  0  0  0  0
    8.8173   18.1377   20.1935 O   0  0  0  0  0  0  0  0  0  0  0  0
    8.1073   17.5135   21.2453 C   0  0  0  0  0  0  0  0  0  0  0  0
    8.6529   16.2283   21.8167 C   0  0  1  0  0  0  0  0  0  0  0  0
    7.6827   15.7198   22.8061 O   0  0  0  0  0  0  0  0  0  0  0  0
    7.1006   14.5098   22.8603 C   0  0  0  0  0  0  0  0  0  0  0  0
    7.1812   13.6232   22.0171 O   0  0  0  0  0  0  0  0  0  0  0  0
    6.2484   14.3405   24.1393 C   0  0  0  0  0  0  0  0  0  0  0  0
    6.2622   12.8725   24.5908 C   0  0  0  0  0  0  0  0  0  0  0  0
    7.6260   12.4642   25.1424 C   0  0  0  0  0  0  0  0  0  0  0  0
    8.1177   13.4141   26.1708 N   0  0  0  0  0  0  0  0  0  0  0  0
    9.6323   14.1335   25.9724 S   0  0  0  0  0  0  0  0  0  0  0  0
    9.7267   14.6817   24.6491 O   0  0  0  0  0  0  0  0  0  0  0  0
    9.8142   14.9935   27.1165 O   0  0  0  0  0  0  0  0  0  0  0  0
   10.7669   12.9074   26.1139 N   0  0  0  0  0  0  0  0  0  0  0  0
   12.1173   13.3933   26.5407 C   0  0  0  0  0  0  0  0  0  0  0  0
   13.2207   13.0929   25.5171 C   0  0  0  0  0  0  0  0  0  0  0  0
   13.3709   11.6298   25.1999 C   0  0  0  0  0  0  0  0  0  0  0  0
   12.0520   10.9715   25.4291 C   0  0  0  0  0  0  0  0  0  0  0  0
   10.7848   11.7754   25.1732 C   0  0  0  0  0  0  0  0  0  0  0  0
    7.0694   14.4071   26.5669 C   0  0  0  0  0  0  0  0  0  0  0  0
    6.6138   15.2213   25.3495 C   0  0  0  0  0  0  0  0  0  0  0  0
    9.4532   15.3120   20.9421 C   0  0  0  0  0  0  0  0  0  0  0  0
    9.8595   15.5719   19.6338 C   0  0  0  0  0  0  0  0  0  0  0  0
   11.0347   15.0381   19.1380 C   0  0  0  0  0  0  0  0  0  0  0  0
   11.8407   14.3207   20.0001 C   0  0  0  0  0  0  0  0  0  0  0  0
   11.4157   14.0266   21.2873 C   0  0  0  0  0  0  0  0  0  0  0  0
   12.0519   13.1085   22.1221 N   0  0  0  0  0  0  0  0  0  0  0  0
   10.1588   14.3891   21.6681 C   0  0  0  0  0  0  0  0  0  0  0  0
  1  2  1  0
  2  3  1  0
  4  3  1  6
  4  5  1  0
  5  6  1  0
  6  7  2  0
  6  8  1  0
  8  9  1  0
  9 10  1  0
 10 11  1  0
 11 12  1  0
 12 13  2  0
 12 14  2  0
 12 15  1  0
 15 16  1  0
 16 17  1  0
 17 18  1  0
 18 19  1  0
 19 20  1  0
 11 21  1  0
 21 22  1  0
  4 23  1  0
 23 24  2  0
 24 25  1  0
 25 26  2  0
 26 27  1  0
 27 28  1  0
 27 29  2  0
 22  8  1  0
 29 23  1  0
 20 15  1  0
M  END
>  <energy_score>  (1178) 
-3.843583

>  <inchikey>  (1178) 
None

>  <smiles>  (1178) 
None

>  <ref_pdb>  (1178) 
A4706a

>  <alias>  (1178) 
None

>  <HIPPO Pose ID>  (1178) 
500487

>  <name>  (1178) 
P500487

>  <HIPPO Compound ID>  (1178) 
314806

>  <ref_mols>  (1178) 
A4706a,A0875a

>  <distance_score>  (1178) 
1.382398

>  <inspiration_score>  (1178) 
None

$$$$
P500488
     RDKit          3D

 29 30  0  0  0  0  0  0  0  0999 V2000
   20.2061   15.0787   27.0671 C   0  0  0  0  0  0  0  0  0  0  0  0
   19.9543   13.6464   27.4956 C   0  0  0  0  0  0  0  0  0  0  0  0
   18.5881   13.5413   27.9228 O   0  0  0  0  0  0  0  0  0  0  0  0
   18.1172   12.2717   28.0754 C   0  0  0  0  0  0  0  0  0  0  0  0
   18.7482   11.2615   27.8065 O   0  0  0  0  0  0  0  0  0  0  0  0
   16.7183   12.3174   28.7102 C   0  0  1  0  0  0  0  0  0  0  0  0
   15.6110   12.6829   27.8329 O   0  0  0  0  0  0  0  0  0  0  0  0
   15.0593   11.8798   26.8821 C   0  0  0  0  0  0  0  0  0  0  0  0
   15.4633   10.7756   26.5671 O   0  0  0  0  0  0  0  0  0  0  0  0
   13.8380   12.5725   26.2534 C   0  0  0  0  0  0  0  0  0  0  0  0
   12.9099   13.0556   27.3529 C   0  0  0  0  0  0  0  0  0  0  0  0
   11.4759   13.3813   26.9521 C   0  0  0  0  0  0  0  0  0  0  0  0
   11.2689   13.5135   25.5183 N   0  0  0  0  0  0  0  0  0  0  0  0
    9.8514   14.2925   25.0574 S   0  0  0  0  0  0  0  0  0  0  0  0
    9.7325   14.2875   23.6228 O   0  0  0  0  0  0  0  0  0  0  0  0
    9.8564   15.5178   25.8187 O   0  0  0  0  0  0  0  0  0  0  0  0
    8.5954   13.3528   25.7135 N   0  0  0  0  0  0  0  0  0  0  0  0
    8.2469   12.0928   25.0099 C   0  0  0  0  0  0  0  0  0  0  0  0
    7.3012   11.2802   25.8939 C   0  0  0  0  0  0  0  0  0  0  0  0
    6.0439   12.0581   26.2672 C   0  0  0  0  0  0  0  0  0  0  0  0
    6.4004   13.4164   26.8532 C   0  0  0  0  0  0  0  0  0  0  0  0
    7.3519   14.1728   25.9347 C   0  0  0  0  0  0  0  0  0  0  0  0
   11.8734   12.5384   24.6246 C   0  0  0  0  0  0  0  0  0  0  0  0
   13.0045   11.7333   25.2955 C   0  0  0  0  0  0  0  0  0  0  0  0
   16.4692   11.1824   29.7584 C   0  0  0  0  0  0  0  0  0  0  0  0
   17.2655   11.4957   31.0505 C   0  0  0  0  0  0  0  0  0  0  0  0
   16.8909    9.7737   29.3134 C   0  0  0  0  0  0  0  0  0  0  0  0
   15.0347   11.1858   30.1119 C   0  0  0  0  0  0  0  0  0  0  0  0
   13.9038   11.2437   30.3633 N   0  0  0  0  0  0  0  0  0  0  0  0
  1  2  1  0
  2  3  1  0
  3  4  1  0
  4  5  2  0
  4  6  1  0
  6  7  1  6
  7  8  1  0
  8  9  2  0
  8 10  1  0
 10 11  1  0
 11 12  1  0
 12 13  1  0
 13 14  1  0
 14 15  2  0
 14 16  2  0
 14 17  1  0
 17 18  1  0
 18 19  1  0
 19 20  1  0
 20 21  1  0
 21 22  1  0
 13 23  1  0
 23 24  1  0
  6 25  1  0
 25 26  1  0
 25 27  1  0
 25 28  1  0
 28 29  3  0
 24 10  1  0
 22 17  1  0
M  END
>  <energy_score>  (1179) 
-72.699922

>  <inchikey>  (1179) 
None

>  <smiles>  (1179) 
None

>  <ref_pdb>  (1179) 
A4706a

>  <alias>  (1179) 
None

>  <HIPPO Pose ID>  (1179) 
500488

>  <name>  (1179) 
P500488

>  <HIPPO Compound ID>  (1179) 
314812

>  <ref_mols>  (1179) 
A4706a,A0875a

>  <distance_score>  (1179) 
1.777214

>  <inspiration_score>  (1179) 
None

$$$$
P500491
     RDKit          3D

 29 32  0  0  0  0  0  0  0  0999 V2000
   12.4282   14.6147   19.9326 N   0  0  0  0  0  0  0  0  0  0  0  0
   11.2533   14.9367   20.5896 C   0  0  0  0  0  0  0  0  0  0  0  0
   10.0785   14.8475   19.8814 C   0  0  0  0  0  0  0  0  0  0  0  0
    8.8602   14.8606   20.5566 C   0  0  0  0  0  0  0  0  0  0  0  0
    8.7091   15.0213   21.9313 C   0  0  0  0  0  0  0  0  0  0  0  0
    7.2134   15.0790   22.6369 C   0  0  0  0  0  0  0  0  0  0  0  0
    7.1762   14.5607   23.9848 O   0  0  0  0  0  0  0  0  0  0  0  0
    6.7620   13.2793   24.0270 C   0  0  0  0  0  0  0  0  0  0  0  0
    7.1328   12.4437   23.2127 O   0  0  0  0  0  0  0  0  0  0  0  0
    5.7219   12.9996   25.0964 C   0  0  0  0  0  0  0  0  0  0  0  0
    6.2420   11.8508   25.9585 C   0  0  0  0  0  0  0  0  0  0  0  0
    7.3275   12.3352   26.9162 C   0  0  0  0  0  0  0  0  0  0  0  0
    7.6938   13.7090   26.5569 N   0  0  0  0  0  0  0  0  0  0  0  0
    9.2027   14.3662   26.7431 S   0  0  0  0  0  0  0  0  0  0  0  0
    9.3466   15.4378   25.7904 O   0  0  0  0  0  0  0  0  0  0  0  0
    9.3920   14.6125   28.1477 O   0  0  0  0  0  0  0  0  0  0  0  0
   10.2856   13.1705   26.3087 N   0  0  0  0  0  0  0  0  0  0  0  0
   10.0899   12.5797   24.9787 C   0  0  0  0  0  0  0  0  0  0  0  0
   10.8664   11.2948   24.9791 C   0  0  0  0  0  0  0  0  0  0  0  0
   12.3629   11.6024   25.2042 C   0  0  0  0  0  0  0  0  0  0  0  0
   12.6551   12.4950   26.3933 C   0  0  0  0  0  0  0  0  0  0  0  0
   11.6856   13.6589   26.4514 C   0  0  0  0  0  0  0  0  0  0  0  0
    6.5807   14.6551   26.8081 C   0  0  0  0  0  0  0  0  0  0  0  0
    5.3895   14.2197   25.9610 C   0  0  0  0  0  0  0  0  0  0  0  0
    6.5562   16.4682   22.5448 C   0  0  0  0  0  0  0  0  0  0  0  0
    5.3191   15.9425   22.0105 O   0  0  0  0  0  0  0  0  0  0  0  0
    5.9240   14.6528   21.8341 C   0  0  0  0  0  0  0  0  0  0  0  0
    9.9303   15.1985   22.5992 C   0  0  0  0  0  0  0  0  0  0  0  0
   11.1805   15.0977   21.9651 C   0  0  0  0  0  0  0  0  0  0  0  0
  1  2  1  0
  2  3  2  0
  3  4  1  0
  4  5  2  0
  5  6  1  0
  6  7  1  0
  7  8  1  0
  8  9  2  0
  8 10  1  0
 10 11  1  0
 11 12  1  0
 12 13  1  0
 13 14  1  0
 14 15  2  0
 14 16  2  0
 14 17  1  0
 17 18  1  0
 18 19  1  0
 19 20  1  0
 20 21  1  0
 21 22  1  0
 13 23  1  0
 23 24  1  0
  6 25  1  0
 25 26  1  0
 26 27  1  0
  5 28  1  0
 28 29  2  0
 29  2  1  0
 27  6  1  0
 24 10  1  0
 22 17  1  0
M  END
>  <energy_score>  (1180) 
-86.579219

>  <inchikey>  (1180) 
None

>  <smiles>  (1180) 
None

>  <ref_pdb>  (1180) 
A4706a

>  <alias>  (1180) 
None

>  <HIPPO Pose ID>  (1180) 
500491

>  <name>  (1180) 
P500491

>  <HIPPO Compound ID>  (1180) 
314815

>  <ref_mols>  (1180) 
A0875a,A4706a

>  <distance_score>  (1180) 
1.835893

>  <inspiration_score>  (1180) 
None

$$$$
P500492
     RDKit          3D

 30 32  0  0  0  0  0  0  0  0999 V2000
    8.0512   19.0388   19.8841 C   0  0  0  0  0  0  0  0  0  0  0  0
    8.6201   18.2878   21.0570 C   0  0  0  0  0  0  0  0  0  0  0  0
    8.7273   16.8928   20.8085 O   0  0  0  0  0  0  0  0  0  0  0  0
    8.0537   16.0581   21.6568 C   0  0  0  0  0  0  0  0  0  0  0  0
    7.1228   16.3706   22.3923 O   0  0  0  0  0  0  0  0  0  0  0  0
    8.5669   14.6262   21.5182 C   0  0  2  0  0  0  0  0  0  0  0  0
    8.2690   13.8879   22.7314 O   0  0  0  0  0  0  0  0  0  0  0  0
    6.9838   13.5205   22.8928 C   0  0  0  0  0  0  0  0  0  0  0  0
    6.2108   13.3659   21.9536 O   0  0  0  0  0  0  0  0  0  0  0  0
    6.5825   13.1997   24.3299 C   0  0  0  0  0  0  0  0  0  0  0  0
    7.2996   11.9683   24.8889 C   0  0  0  0  0  0  0  0  0  0  0  0
    8.7030   12.2844   25.3663 C   0  0  0  0  0  0  0  0  0  0  0  0
    8.7739   13.4709   26.2434 N   0  0  0  0  0  0  0  0  0  0  0  0
    9.9286   14.6611   25.8699 S   0  0  0  0  0  0  0  0  0  0  0  0
    9.9039   15.5792   26.9847 O   0  0  0  0  0  0  0  0  0  0  0  0
    9.6653   15.1563   24.5548 O   0  0  0  0  0  0  0  0  0  0  0  0
   11.4055   13.8618   25.9411 N   0  0  0  0  0  0  0  0  0  0  0  0
   11.7410   13.3496   27.2577 C   0  0  0  0  0  0  0  0  0  0  0  0
   13.1783   12.8801   27.4441 C   0  0  0  0  0  0  0  0  0  0  0  0
   13.8100   12.2539   26.2273 C   0  0  0  0  0  0  0  0  0  0  0  0
   12.7671   11.9360   25.1885 C   0  0  0  0  0  0  0  0  0  0  0  0
   11.9544   13.1619   24.7753 C   0  0  0  0  0  0  0  0  0  0  0  0
    7.4336   14.0600   26.5547 C   0  0  0  0  0  0  0  0  0  0  0  0
    6.6773   14.4006   25.2743 C   0  0  0  0  0  0  0  0  0  0  0  0
   10.0569   14.6776   21.3510 C   0  0  0  0  0  0  0  0  0  0  0  0
   10.9154   14.7961   22.3481 N   0  0  0  0  0  0  0  0  0  0  0  0
   12.1175   15.0419   21.7966 C   0  0  0  0  0  0  0  0  0  0  0  0
   12.0597   14.8448   20.4509 C   0  0  0  0  0  0  0  0  0  0  0  0
   10.7343   14.7804   20.1567 N   0  0  0  0  0  0  0  0  0  0  0  0
   10.2780   14.9601   18.8075 C   0  0  0  0  0  0  0  0  0  0  0  0
  1  2  1  0
  2  3  1  0
  3  4  1  0
  4  5  2  0
  4  6  1  0
  6  7  1  1
  7  8  1  0
  8  9  2  0
  8 10  1  0
 10 11  1  0
 11 12  1  0
 12 13  1  0
 13 14  1  0
 14 15  2  0
 14 16  2  0
 14 17  1  0
 17 18  1  0
 18 19  1  0
 19 20  1  0
 20 21  1  0
 21 22  1  0
 13 23  1  0
 23 24  1  0
  6 25  1  0
 25 26  2  0
 26 27  1  0
 27 28  2  0
 28 29  1  0
 29 30  1  0
 24 10  1  0
 29 25  1  0
 22 17  1  0
M  END
>  <energy_score>  (1181) 
-37.14897

>  <inchikey>  (1181) 
None

>  <smiles>  (1181) 
None

>  <ref_pdb>  (1181) 
A4706a

>  <alias>  (1181) 
None

>  <HIPPO Pose ID>  (1181) 
500492

>  <name>  (1181) 
P500492

>  <HIPPO Compound ID>  (1181) 
314819

>  <ref_mols>  (1181) 
A4706a,A0875a

>  <distance_score>  (1181) 
1.4716

>  <inspiration_score>  (1181) 
None

$$$$
P500494
     RDKit          3D

 30 32  0  0  0  0  0  0  0  0999 V2000
    8.0017   19.1303   19.8926 C   0  0  0  0  0  0  0  0  0  0  0  0
    8.5589   18.4269   21.1026 C   0  0  0  0  0  0  0  0  0  0  0  0
    8.5416   17.0243   20.9177 O   0  0  0  0  0  0  0  0  0  0  0  0
    7.8515   16.2141   21.7672 C   0  0  0  0  0  0  0  0  0  0  0  0
    7.0850   16.5489   22.6609 O   0  0  0  0  0  0  0  0  0  0  0  0
    8.1514   14.7521   21.4093 C   0  0  2  0  0  0  0  0  0  0  0  0
    7.9775   13.8815   22.5431 O   0  0  0  0  0  0  0  0  0  0  0  0
    6.7141   13.7108   22.9929 C   0  0  0  0  0  0  0  0  0  0  0  0
    5.7121   14.0776   22.3949 O   0  0  0  0  0  0  0  0  0  0  0  0
    6.6563   12.9060   24.2880 C   0  0  0  0  0  0  0  0  0  0  0  0
    7.8796   12.0163   24.5400 C   0  0  0  0  0  0  0  0  0  0  0  0
    8.5328   12.2710   25.8766 C   0  0  0  0  0  0  0  0  0  0  0  0
    8.6833   13.6944   26.1780 N   0  0  0  0  0  0  0  0  0  0  0  0
    9.9754   14.6370   25.6567 S   0  0  0  0  0  0  0  0  0  0  0  0
   10.0547   15.7081   26.6210 O   0  0  0  0  0  0  0  0  0  0  0  0
    9.7671   14.9401   24.2703 O   0  0  0  0  0  0  0  0  0  0  0  0
   11.3607   13.7184   25.8296 N   0  0  0  0  0  0  0  0  0  0  0  0
   11.8334   12.8657   24.7362 C   0  0  0  0  0  0  0  0  0  0  0  0
   12.8222   11.8066   25.2189 C   0  0  0  0  0  0  0  0  0  0  0  0
   13.8387   12.3391   26.1870 C   0  0  0  0  0  0  0  0  0  0  0  0
   13.1514   12.8956   27.4065 C   0  0  0  0  0  0  0  0  0  0  0  0
   11.7212   13.3808   27.1938 C   0  0  0  0  0  0  0  0  0  0  0  0
    7.4009   14.4716   26.1682 C   0  0  0  0  0  0  0  0  0  0  0  0
    6.2514   13.7330   25.5049 C   0  0  0  0  0  0  0  0  0  0  0  0
    9.5491   14.6225   20.8348 C   0  0  0  0  0  0  0  0  0  0  0  0
    9.8574   15.0422   19.5308 C   0  0  0  0  0  0  0  0  0  0  0  0
   11.1488   15.0015   19.0666 C   0  0  0  0  0  0  0  0  0  0  0  0
   12.1066   14.5980   19.9608 C   0  0  0  0  0  0  0  0  0  0  0  0
   11.8816   14.1956   21.2279 N   0  0  0  0  0  0  0  0  0  0  0  0
   10.6031   14.1910   21.6100 C   0  0  0  0  0  0  0  0  0  0  0  0
  1  2  1  0
  2  3  1  0
  3  4  1  0
  4  5  2  0
  4  6  1  0
  6  7  1  1
  7  8  1  0
  8  9  2  0
  8 10  1  0
 10 11  1  0
 11 12  1  0
 12 13  1  0
 13 14  1  0
 14 15  2  0
 14 16  2  0
 14 17  1  0
 17 18  1  0
 18 19  1  0
 19 20  1  0
 20 21  1  0
 21 22  1  0
 13 23  1  0
 23 24  1  0
  6 25  1  0
 25 26  2  0
 26 27  1  0
 27 28  2  0
 28 29  1  0
 29 30  2  0
 24 10  1  0
 30 25  1  0
 22 17  1  0
M  END
>  <energy_score>  (1182) 
-53.19027

>  <inchikey>  (1182) 
None

>  <smiles>  (1182) 
None

>  <ref_pdb>  (1182) 
A4706a

>  <alias>  (1182) 
None

>  <HIPPO Pose ID>  (1182) 
500494

>  <name>  (1182) 
P500494

>  <HIPPO Compound ID>  (1182) 
314820

>  <ref_mols>  (1182) 
A4706a,A0875a

>  <distance_score>  (1182) 
1.592124

>  <inspiration_score>  (1182) 
None

$$$$
P500495
     RDKit          3D

 30 32  0  0  0  0  0  0  0  0999 V2000
   10.6904   12.6436   22.3628 N   0  0  0  0  0  0  0  0  0  0  0  0
    9.3399   13.1790   22.2826 C   0  0  0  0  0  0  0  0  0  0  0  0
    9.0313   14.2939   23.2479 C   0  0  1  0  0  0  0  0  0  0  0  0
   10.1850   15.2883   23.3605 C   0  0  0  0  0  0  0  0  0  0  0  0
   10.2178   16.2784   22.3597 O   0  0  0  0  0  0  0  0  0  0  0  0
   10.5730   15.8097   21.1599 C   0  0  0  0  0  0  0  0  0  0  0  0
   11.8297   15.3067   20.9254 C   0  0  0  0  0  0  0  0  0  0  0  0
   12.0737   14.7365   19.7025 C   0  0  0  0  0  0  0  0  0  0  0  0
   11.1212   14.7807   18.7173 C   0  0  0  0  0  0  0  0  0  0  0  0
   11.4407   14.2432   17.5480 F   0  0  0  0  0  0  0  0  0  0  0  0
    9.8884   15.3622   18.9312 C   0  0  0  0  0  0  0  0  0  0  0  0
    9.6111   15.8853   20.1777 C   0  0  0  0  0  0  0  0  0  0  0  0
    7.7214   14.8959   23.1141 O   0  0  0  0  0  0  0  0  0  0  0  0
    6.7021   13.9974   23.0733 C   0  0  0  0  0  0  0  0  0  0  0  0
    6.5566   13.1885   22.1575 O   0  0  0  0  0  0  0  0  0  0  0  0
    5.7900   13.9597   24.2922 C   0  0  0  0  0  0  0  0  0  0  0  0
    6.1594   12.7511   25.1865 C   0  0  0  0  0  0  0  0  0  0  0  0
    6.9279   13.1521   26.4485 C   0  0  0  0  0  0  0  0  0  0  0  0
    7.7589   14.3094   26.0942 N   0  0  0  0  0  0  0  0  0  0  0  0
    9.2683   14.5577   26.7639 S   0  0  0  0  0  0  0  0  0  0  0  0
    9.2391   14.1834   28.1460 O   0  0  0  0  0  0  0  0  0  0  0  0
    9.7046   15.8811   26.4045 O   0  0  0  0  0  0  0  0  0  0  0  0
   10.2986   13.5013   25.9280 N   0  0  0  0  0  0  0  0  0  0  0  0
    9.9419   12.0801   25.8750 C   0  0  0  0  0  0  0  0  0  0  0  0
   10.9982   11.1990   25.2350 C   0  0  0  0  0  0  0  0  0  0  0  0
   12.4417   11.5792   25.5547 C   0  0  0  0  0  0  0  0  0  0  0  0
   12.6544   13.0439   25.3211 C   0  0  0  0  0  0  0  0  0  0  0  0
   11.7109   13.7977   26.2381 C   0  0  0  0  0  0  0  0  0  0  0  0
    6.9368   15.5345   25.9477 C   0  0  0  0  0  0  0  0  0  0  0  0
    5.7092   15.2581   25.0864 C   0  0  0  0  0  0  0  0  0  0  0  0
  1  2  1  0
  3  2  1  6
  3  4  1  0
  4  5  1  0
  5  6  1  0
  6  7  2  0
  7  8  1  0
  8  9  2  0
  9 10  1  0
  9 11  1  0
 11 12  2  0
  3 13  1  0
 13 14  1  0
 14 15  2  0
 14 16  1  0
 16 17  1  0
 17 18  1  0
 18 19  1  0
 19 20  1  0
 20 21  2  0
 20 22  2  0
 20 23  1  0
 23 24  1  0
 24 25  1  0
 25 26  1  0
 26 27  1  0
 27 28  1  0
 19 29  1  0
 29 30  1  0
 12  6  1  0
 30 16  1  0
 28 23  1  0
M  END
>  <energy_score>  (1183) 
-32.210445

>  <inchikey>  (1183) 
None

>  <smiles>  (1183) 
None

>  <ref_pdb>  (1183) 
A4706a

>  <alias>  (1183) 
None

>  <HIPPO Pose ID>  (1183) 
500495

>  <name>  (1183) 
P500495

>  <HIPPO Compound ID>  (1183) 
314825

>  <ref_mols>  (1183) 
A4706a,A0875a

>  <distance_score>  (1183) 
1.921322

>  <inspiration_score>  (1183) 
None

$$$$
P500499
     RDKit          3D

 30 32  0  0  0  0  0  0  0  0999 V2000
    3.2140   14.3196   21.8602 C   0  0  0  0  0  0  0  0  0  0  0  0
    4.3371   14.9459   22.4862 O   0  0  0  0  0  0  0  0  0  0  0  0
    5.5479   14.6674   21.8885 C   0  0  0  0  0  0  0  0  0  0  0  0
    5.6165   13.9883   20.8780 O   0  0  0  0  0  0  0  0  0  0  0  0
    6.7298   15.2293   22.7251 C   0  0  1  0  0  0  0  0  0  0  0  0
    6.4482   16.7107   22.9371 C   0  0  0  0  0  0  0  0  0  0  0  0
    6.5550   14.7180   24.0740 O   0  0  0  0  0  0  0  0  0  0  0  0
    6.1867   13.4312   24.2201 C   0  0  0  0  0  0  0  0  0  0  0  0
    6.2579   12.5934   23.3346 O   0  0  0  0  0  0  0  0  0  0  0  0
    5.6051   13.1631   25.5960 C   0  0  0  0  0  0  0  0  0  0  0  0
    6.0346   11.7711   26.0594 C   0  0  0  0  0  0  0  0  0  0  0  0
    7.5437   11.6480   26.1277 C   0  0  0  0  0  0  0  0  0  0  0  0
    8.1419   12.9108   26.5924 N   0  0  0  0  0  0  0  0  0  0  0  0
    9.2020   13.7138   25.5679 S   0  0  0  0  0  0  0  0  0  0  0  0
    9.2819   15.0772   26.0308 O   0  0  0  0  0  0  0  0  0  0  0  0
    8.9297   13.3225   24.2137 O   0  0  0  0  0  0  0  0  0  0  0  0
   10.6459   12.9534   25.9539 N   0  0  0  0  0  0  0  0  0  0  0  0
   10.8523   11.6439   25.2902 C   0  0  0  0  0  0  0  0  0  0  0  0
   12.2617   11.1835   25.6494 C   0  0  0  0  0  0  0  0  0  0  0  0
   13.3589   12.0555   25.1343 C   0  0  0  0  0  0  0  0  0  0  0  0
   12.7467   13.3768   24.7287 C   0  0  0  0  0  0  0  0  0  0  0  0
   11.8047   13.8580   25.8180 C   0  0  0  0  0  0  0  0  0  0  0  0
    7.2489   13.7526   27.4265 C   0  0  0  0  0  0  0  0  0  0  0  0
    6.0198   14.1988   26.6506 C   0  0  0  0  0  0  0  0  0  0  0  0
    8.1865   15.1241   22.1691 C   0  0  0  0  0  0  0  0  0  0  0  0
    8.4942   14.7120   20.8852 C   0  0  0  0  0  0  0  0  0  0  0  0
    9.7340   14.7195   20.3166 N   0  0  0  0  0  0  0  0  0  0  0  0
   10.7250   15.1417   21.1107 C   0  0  0  0  0  0  0  0  0  0  0  0
   10.4713   15.5656   22.3926 C   0  0  0  0  0  0  0  0  0  0  0  0
    9.2234   15.5838   22.9299 N   0  0  0  0  0  0  0  0  0  0  0  0
  1  2  1  0
  2  3  1  0
  3  4  2  0
  3  5  1  0
  5  6  1  1
  5  7  1  0
  7  8  1  0
  8  9  2  0
  8 10  1  0
 10 11  1  0
 11 12  1  0
 12 13  1  0
 13 14  1  0
 14 15  2  0
 14 16  2  0
 14 17  1  0
 17 18  1  0
 18 19  1  0
 19 20  1  0
 20 21  1  0
 21 22  1  0
 13 23  1  0
 23 24  1  0
  5 25  1  0
 25 26  2  0
 26 27  1  0
 27 28  2  0
 28 29  1  0
 29 30  2  0
 24 10  1  0
 30 25  1  0
 22 17  1  0
M  END
>  <energy_score>  (1184) 
-48.323893

>  <inchikey>  (1184) 
None

>  <smiles>  (1184) 
None

>  <ref_pdb>  (1184) 
A4706a

>  <alias>  (1184) 
None

>  <HIPPO Pose ID>  (1184) 
500499

>  <name>  (1184) 
P500499

>  <HIPPO Compound ID>  (1184) 
314829

>  <ref_mols>  (1184) 
A4706a,A0875a

>  <distance_score>  (1184) 
1.828086

>  <inspiration_score>  (1184) 
None

$$$$
P500500
     RDKit          3D

 30 32  0  0  0  0  0  0  0  0999 V2000
    8.3545   18.3696   20.6101 C   0  0  0  0  0  0  0  0  0  0  0  0
    8.5457   17.2064   21.4062 O   0  0  0  0  0  0  0  0  0  0  0  0
    7.5127   16.4105   21.7744 C   0  0  0  0  0  0  0  0  0  0  0  0
    6.4902   16.7240   22.3742 O   0  0  0  0  0  0  0  0  0  0  0  0
    7.8044   14.9593   21.4427 C   0  0  2  0  0  0  0  0  0  0  0  0
    7.6277   14.3330   22.7460 O   0  0  0  0  0  0  0  0  0  0  0  0
    6.3819   13.8496   22.9412 C   0  0  0  0  0  0  0  0  0  0  0  0
    5.8078   13.1943   22.0760 O   0  0  0  0  0  0  0  0  0  0  0  0
    5.7792   14.0679   24.3308 C   0  0  0  0  0  0  0  0  0  0  0  0
    5.7752   12.7357   25.0753 C   0  0  0  0  0  0  0  0  0  0  0  0
    7.1684   12.3946   25.5498 C   0  0  0  0  0  0  0  0  0  0  0  0
    7.7436   13.4404   26.4054 N   0  0  0  0  0  0  0  0  0  0  0  0
    9.3360   13.9234   26.1902 S   0  0  0  0  0  0  0  0  0  0  0  0
    9.6675   14.6637   27.3790 O   0  0  0  0  0  0  0  0  0  0  0  0
    9.4566   14.5773   24.9143 O   0  0  0  0  0  0  0  0  0  0  0  0
   10.3088   12.5294   26.2359 N   0  0  0  0  0  0  0  0  0  0  0  0
   11.7662   12.8949   26.4094 C   0  0  0  0  0  0  0  0  0  0  0  0
   12.5994   12.5250   25.1897 C   0  0  0  0  0  0  0  0  0  0  0  0
   11.7859   12.8342   23.9435 C   0  0  0  0  0  0  0  0  0  0  0  0
   10.4589   12.0672   23.8535 C   0  0  0  0  0  0  0  0  0  0  0  0
   10.1371   11.4840   25.2002 C   0  0  0  0  0  0  0  0  0  0  0  0
    6.8356   14.6208   26.5784 C   0  0  0  0  0  0  0  0  0  0  0  0
    6.3888   15.1605   25.2161 C   0  0  0  0  0  0  0  0  0  0  0  0
    9.1679   14.7959   20.8148 C   0  0  0  0  0  0  0  0  0  0  0  0
    9.4723   14.9927   19.4498 C   0  0  0  0  0  0  0  0  0  0  0  0
   10.7477   14.8272   18.9242 C   0  0  0  0  0  0  0  0  0  0  0  0
   11.7820   14.6709   19.7877 C   0  0  0  0  0  0  0  0  0  0  0  0
   11.4827   14.7825   21.1228 C   0  0  0  0  0  0  0  0  0  0  0  0
   12.6872   15.6091   22.1860 Br  0  0  0  0  0  0  0  0  0  0  0  0
   10.2277   14.7347   21.6608 C   0  0  0  0  0  0  0  0  0  0  0  0
  1  2  1  0
  2  3  1  0
  3  4  2  0
  3  5  1  0
  5  6  1  1
  6  7  1  0
  7  8  2  0
  7  9  1  0
  9 10  1  0
 10 11  1  0
 11 12  1  0
 12 13  1  0
 13 14  2  0
 13 15  2  0
 13 16  1  0
 16 17  1  0
 17 18  1  0
 18 19  1  0
 19 20  1  0
 20 21  1  0
 12 22  1  0
 22 23  1  0
  5 24  1  0
 24 25  2  0
 25 26  1  0
 26 27  2  0
 27 28  1  0
 28 29  1  0
 28 30  2  0
 23  9  1  0
 30 24  1  0
 21 16  1  0
M  END
>  <energy_score>  (1185) 
-3.285753

>  <inchikey>  (1185) 
None

>  <smiles>  (1185) 
None

>  <ref_pdb>  (1185) 
A4706a

>  <alias>  (1185) 
None

>  <HIPPO Pose ID>  (1185) 
500500

>  <name>  (1185) 
P500500

>  <HIPPO Compound ID>  (1185) 
314832

>  <ref_mols>  (1185) 
A4706a,A0875a

>  <distance_score>  (1185) 
1.96539

>  <inspiration_score>  (1185) 
None

$$$$
P500501
     RDKit          3D

 30 32  0  0  0  0  0  0  0  0999 V2000
    8.1804   18.7370   20.2527 C   0  0  0  0  0  0  0  0  0  0  0  0
    8.5616   17.4185   20.6245 O   0  0  0  0  0  0  0  0  0  0  0  0
    7.8888   16.7519   21.6012 C   0  0  0  0  0  0  0  0  0  0  0  0
    7.0472   17.1698   22.3796 O   0  0  0  0  0  0  0  0  0  0  0  0
    8.3079   15.3056   21.6732 C   0  0  2  0  0  0  0  0  0  0  0  0
    7.3394   14.3435   21.0393 C   0  0  0  0  0  0  0  0  0  0  0  0
    8.2680   14.9448   23.0602 O   0  0  0  0  0  0  0  0  0  0  0  0
    7.1010   14.6747   23.7355 C   0  0  0  0  0  0  0  0  0  0  0  0
    5.9467   14.8019   23.3811 O   0  0  0  0  0  0  0  0  0  0  0  0
    7.5784   14.0852   24.9901 C   0  0  0  0  0  0  0  0  0  0  0  0
    8.0063   12.6333   24.7400 C   0  0  0  0  0  0  0  0  0  0  0  0
    8.6447   12.0628   25.9894 C   0  0  0  0  0  0  0  0  0  0  0  0
    9.1670   13.1678   26.8250 N   0  0  0  0  0  0  0  0  0  0  0  0
   10.5989   13.9539   26.3380 S   0  0  0  0  0  0  0  0  0  0  0  0
   10.8599   14.9508   27.3399 O   0  0  0  0  0  0  0  0  0  0  0  0
   10.5050   14.3340   24.9513 O   0  0  0  0  0  0  0  0  0  0  0  0
   11.7951   12.7341   26.4325 N   0  0  0  0  0  0  0  0  0  0  0  0
   12.9145   12.9553   27.3949 C   0  0  0  0  0  0  0  0  0  0  0  0
   14.3059   12.7524   26.8001 C   0  0  0  0  0  0  0  0  0  0  0  0
   14.4420   11.3998   26.1824 C   0  0  0  0  0  0  0  0  0  0  0  0
   13.3120   11.1828   25.2091 C   0  0  0  0  0  0  0  0  0  0  0  0
   12.2410   12.2702   25.1068 C   0  0  0  0  0  0  0  0  0  0  0  0
    8.0210   14.0883   27.3275 C   0  0  0  0  0  0  0  0  0  0  0  0
    6.8797   14.2177   26.3025 C   0  0  0  0  0  0  0  0  0  0  0  0
    9.7257   15.1306   21.1457 C   0  0  0  0  0  0  0  0  0  0  0  0
    9.9995   15.0257   19.7715 C   0  0  0  0  0  0  0  0  0  0  0  0
   11.2914   14.8622   19.3412 C   0  0  0  0  0  0  0  0  0  0  0  0
   12.3226   14.8752   20.1903 N   0  0  0  0  0  0  0  0  0  0  0  0
   12.0671   15.1436   21.4862 C   0  0  0  0  0  0  0  0  0  0  0  0
   10.8073   15.2684   22.0035 C   0  0  0  0  0  0  0  0  0  0  0  0
  1  2  1  0
  2  3  1  0
  3  4  2  0
  3  5  1  0
  5  6  1  6
  5  7  1  0
  7  8  1  0
  8  9  2  0
  8 10  1  0
 10 11  1  0
 11 12  1  0
 12 13  1  0
 13 14  1  0
 14 15  2  0
 14 16  2  0
 14 17  1  0
 17 18  1  0
 18 19  1  0
 19 20  1  0
 20 21  1  0
 21 22  1  0
 13 23  1  0
 23 24  1  0
  5 25  1  0
 25 26  2  0
 26 27  1  0
 27 28  2  0
 28 29  1  0
 29 30  2  0
 24 10  1  0
 30 25  1  0
 22 17  1  0
M  END
>  <energy_score>  (1186) 
-20.538724

>  <inchikey>  (1186) 
None

>  <smiles>  (1186) 
None

>  <ref_pdb>  (1186) 
A4706a

>  <alias>  (1186) 
None

>  <HIPPO Pose ID>  (1186) 
500501

>  <name>  (1186) 
P500501

>  <HIPPO Compound ID>  (1186) 
314834

>  <ref_mols>  (1186) 
A0875a,A4706a

>  <distance_score>  (1186) 
1.584331

>  <inspiration_score>  (1186) 
None

$$$$
P500502
     RDKit          3D

 30 32  0  0  0  0  0  0  0  0999 V2000
    5.8056   17.0972   24.5242 C   0  0  0  0  0  0  0  0  0  0  0  0
    6.6763   16.0300   24.1633 O   0  0  0  0  0  0  0  0  0  0  0  0
    7.1006   15.9889   22.8749 C   0  0  0  0  0  0  0  0  0  0  0  0
    7.1319   16.9237   22.0971 O   0  0  0  0  0  0  0  0  0  0  0  0
    7.5375   14.5944   22.4388 C   0  0  2  0  0  0  0  0  0  0  0  0
    6.5840   14.1857   21.3187 C   0  0  0  0  0  0  0  0  0  0  0  0
    7.2857   13.6180   23.5164 O   0  0  0  0  0  0  0  0  0  0  0  0
    5.9691   13.5407   23.9412 C   0  0  0  0  0  0  0  0  0  0  0  0
    5.0244   14.1219   23.4076 O   0  0  0  0  0  0  0  0  0  0  0  0
    5.6924   12.7245   25.1771 C   0  0  0  0  0  0  0  0  0  0  0  0
    6.7173   11.6429   25.5061 C   0  0  0  0  0  0  0  0  0  0  0  0
    7.6242   12.1090   26.6286 C   0  0  0  0  0  0  0  0  0  0  0  0
    7.8486   13.5396   26.4141 N   0  0  0  0  0  0  0  0  0  0  0  0
    9.3075   14.2800   26.6790 S   0  0  0  0  0  0  0  0  0  0  0  0
    9.4745   14.4272   28.1003 O   0  0  0  0  0  0  0  0  0  0  0  0
    9.3720   15.4383   25.8288 O   0  0  0  0  0  0  0  0  0  0  0  0
   10.4360   13.1706   26.1750 N   0  0  0  0  0  0  0  0  0  0  0  0
   11.8269   13.6277   26.3755 C   0  0  0  0  0  0  0  0  0  0  0  0
   12.7561   12.4232   26.4086 C   0  0  0  0  0  0  0  0  0  0  0  0
   12.4628   11.4659   25.2621 C   0  0  0  0  0  0  0  0  0  0  0  0
   10.9518   11.2057   25.0131 C   0  0  0  0  0  0  0  0  0  0  0  0
   10.2961   12.5461   24.8589 C   0  0  0  0  0  0  0  0  0  0  0  0
    6.6862   14.3324   26.8725 C   0  0  0  0  0  0  0  0  0  0  0  0
    5.4147   13.6802   26.3453 C   0  0  0  0  0  0  0  0  0  0  0  0
    9.0147   14.7247   21.9312 C   0  0  0  0  0  0  0  0  0  0  0  0
    9.4322   14.8763   20.5990 C   0  0  0  0  0  0  0  0  0  0  0  0
   10.7724   15.0487   20.2410 C   0  0  0  0  0  0  0  0  0  0  0  0
   11.6977   15.1458   21.2556 C   0  0  0  0  0  0  0  0  0  0  0  0
   11.3655   15.0986   22.5565 N   0  0  0  0  0  0  0  0  0  0  0  0
   10.0424   14.9515   22.8238 C   0  0  0  0  0  0  0  0  0  0  0  0
  1  2  1  0
  2  3  1  0
  3  4  2  0
  3  5  1  0
  5  6  1  6
  5  7  1  0
  7  8  1  0
  8  9  2  0
  8 10  1  0
 10 11  1  0
 11 12  1  0
 12 13  1  0
 13 14  1  0
 14 15  2  0
 14 16  2  0
 14 17  1  0
 17 18  1  0
 18 19  1  0
 19 20  1  0
 20 21  1  0
 21 22  1  0
 13 23  1  0
 23 24  1  0
  5 25  1  0
 25 26  2  0
 26 27  1  0
 27 28  2  0
 28 29  1  0
 29 30  2  0
 24 10  1  0
 30 25  1  0
 22 17  1  0
M  END
>  <energy_score>  (1187) 
-48.383768

>  <inchikey>  (1187) 
None

>  <smiles>  (1187) 
None

>  <ref_pdb>  (1187) 
A4706a

>  <alias>  (1187) 
None

>  <HIPPO Pose ID>  (1187) 
500502

>  <name>  (1187) 
P500502

>  <HIPPO Compound ID>  (1187) 
314837

>  <ref_mols>  (1187) 
A4706a,A0875a

>  <distance_score>  (1187) 
1.780883

>  <inspiration_score>  (1187) 
None

$$$$
P500504
     RDKit          3D

 30 32  0  0  0  0  0  0  0  0999 V2000
    8.2272   18.6369   20.3760 C   0  0  0  0  0  0  0  0  0  0  0  0
    8.6386   17.3271   20.7348 O   0  0  0  0  0  0  0  0  0  0  0  0
    7.8840   16.5333   21.5503 C   0  0  0  0  0  0  0  0  0  0  0  0
    7.0005   16.8518   22.3315 O   0  0  0  0  0  0  0  0  0  0  0  0
    8.2312   15.0697   21.2799 C   0  0  2  0  0  0  0  0  0  0  0  0
    8.0301   14.2113   22.3946 O   0  0  0  0  0  0  0  0  0  0  0  0
    6.7367   14.0205   22.7949 C   0  0  0  0  0  0  0  0  0  0  0  0
    5.7706   13.9350   22.0595 O   0  0  0  0  0  0  0  0  0  0  0  0
    6.7613   13.8878   24.2924 C   0  0  0  0  0  0  0  0  0  0  0  0
    6.2869   12.6211   24.9709 C   0  0  0  0  0  0  0  0  0  0  0  0
    6.8300   12.5812   26.4138 C   0  0  0  0  0  0  0  0  0  0  0  0
    7.5011   13.8474   26.8219 N   0  0  0  0  0  0  0  0  0  0  0  0
    9.1354   14.2723   26.5936 S   0  0  0  0  0  0  0  0  0  0  0  0
    9.3271   14.9316   25.3250 O   0  0  0  0  0  0  0  0  0  0  0  0
    9.5224   14.9799   27.7885 O   0  0  0  0  0  0  0  0  0  0  0  0
   10.0462   12.8536   26.5580 N   0  0  0  0  0  0  0  0  0  0  0  0
   11.5143   13.1392   26.6432 C   0  0  0  0  0  0  0  0  0  0  0  0
   12.1129   13.4884   25.2941 C   0  0  0  0  0  0  0  0  0  0  0  0
   11.5044   12.6928   24.1639 C   0  0  0  0  0  0  0  0  0  0  0  0
   10.8282   11.4377   24.6785 C   0  0  0  0  0  0  0  0  0  0  0  0
    9.6865   11.8379   25.5518 C   0  0  0  0  0  0  0  0  0  0  0  0
    6.5747   14.9941   26.5638 C   0  0  0  0  0  0  0  0  0  0  0  0
    6.3174   15.1329   25.0560 C   0  0  0  0  0  0  0  0  0  0  0  0
    9.6533   14.9811   20.8197 C   0  0  0  0  0  0  0  0  0  0  0  0
    9.9470   14.9796   19.4482 C   0  0  0  0  0  0  0  0  0  0  0  0
   11.2353   14.8203   19.0129 C   0  0  0  0  0  0  0  0  0  0  0  0
   12.2318   14.7787   19.9640 C   0  0  0  0  0  0  0  0  0  0  0  0
   11.9848   15.0138   21.3130 C   0  0  0  0  0  0  0  0  0  0  0  0
   10.6888   15.1166   21.7291 C   0  0  0  0  0  0  0  0  0  0  0  0
   10.4444   15.4101   23.0087 F   0  0  0  0  0  0  0  0  0  0  0  0
  1  2  1  0
  2  3  1  0
  3  4  2  0
  3  5  1  0
  5  6  1  1
  6  7  1  0
  7  8  2  0
  7  9  1  0
  9 10  1  0
 10 11  1  0
 11 12  1  0
 12 13  1  0
 13 14  2  0
 13 15  2  0
 13 16  1  0
 16 17  1  0
 17 18  1  0
 18 19  1  0
 19 20  1  0
 20 21  1  0
 12 22  1  0
 22 23  1  0
  5 24  1  0
 24 25  2  0
 25 26  1  0
 26 27  2  0
 27 28  1  0
 28 29  2  0
 29 30  1  0
 23  9  1  0
 29 24  1  0
 21 16  1  0
M  END
>  <energy_score>  (1188) 
-4.286493

>  <inchikey>  (1188) 
None

>  <smiles>  (1188) 
None

>  <ref_pdb>  (1188) 
A4706a

>  <alias>  (1188) 
None

>  <HIPPO Pose ID>  (1188) 
500504

>  <name>  (1188) 
P500504

>  <HIPPO Compound ID>  (1188) 
314842

>  <ref_mols>  (1188) 
A4706a,A0875a

>  <distance_score>  (1188) 
1.853449

>  <inspiration_score>  (1188) 
None

$$$$
P500505
     RDKit          3D

 30 32  0  0  0  0  0  0  0  0999 V2000
    6.0223   17.0194   23.8579 C   0  0  0  0  0  0  0  0  0  0  0  0
    6.3769   15.9092   23.0443 O   0  0  0  0  0  0  0  0  0  0  0  0
    7.3281   16.0413   22.0811 C   0  0  0  0  0  0  0  0  0  0  0  0
    7.8604   17.0889   21.7466 O   0  0  0  0  0  0  0  0  0  0  0  0
    7.6556   14.6791   21.4302 C   0  0  2  0  0  0  0  0  0  0  0  0
    7.4424   13.4532   22.1502 O   0  0  0  0  0  0  0  0  0  0  0  0
    6.3722   13.4505   22.9955 C   0  0  0  0  0  0  0  0  0  0  0  0
    5.2141   13.5170   22.6349 O   0  0  0  0  0  0  0  0  0  0  0  0
    6.9089   13.3338   24.3850 C   0  0  0  0  0  0  0  0  0  0  0  0
    7.5323   11.9684   24.6425 C   0  0  0  0  0  0  0  0  0  0  0  0
    8.0093   11.8542   26.0734 C   0  0  0  0  0  0  0  0  0  0  0  0
    8.3554   13.1762   26.6054 N   0  0  0  0  0  0  0  0  0  0  0  0
    9.7691   14.0008   26.1582 S   0  0  0  0  0  0  0  0  0  0  0  0
    9.6580   14.5221   24.8255 O   0  0  0  0  0  0  0  0  0  0  0  0
   10.0086   14.9152   27.2484 O   0  0  0  0  0  0  0  0  0  0  0  0
   10.9923   12.8461   26.1565 N   0  0  0  0  0  0  0  0  0  0  0  0
   11.1478   11.9530   24.9839 C   0  0  0  0  0  0  0  0  0  0  0  0
   12.2562   10.9776   25.3600 C   0  0  0  0  0  0  0  0  0  0  0  0
   13.6438   11.5335   25.4161 C   0  0  0  0  0  0  0  0  0  0  0  0
   13.5242   12.9698   25.8702 C   0  0  0  0  0  0  0  0  0  0  0  0
   12.2959   13.2642   26.7627 C   0  0  0  0  0  0  0  0  0  0  0  0
    7.1215   14.0476   26.7356 C   0  0  0  0  0  0  0  0  0  0  0  0
    6.1115   13.7788   25.5935 C   0  0  0  0  0  0  0  0  0  0  0  0
    9.1104   14.7423   20.9906 C   0  0  0  0  0  0  0  0  0  0  0  0
    9.5308   15.0590   19.6940 C   0  0  0  0  0  0  0  0  0  0  0  0
   10.8746   15.0728   19.3707 C   0  0  0  0  0  0  0  0  0  0  0  0
   11.7735   14.9152   20.3949 C   0  0  0  0  0  0  0  0  0  0  0  0
   11.2875   14.7512   21.6775 C   0  0  0  0  0  0  0  0  0  0  0  0
   12.1842   14.8027   22.8359 C   0  0  0  0  0  0  0  0  0  0  0  0
    9.9977   14.5756   21.9764 N   0  0  0  0  0  0  0  0  0  0  0  0
  1  2  1  0
  2  3  1  0
  3  4  2  0
  3  5  1  0
  5  6  1  1
  6  7  1  0
  7  8  2  0
  7  9  1  0
  9 10  1  0
 10 11  1  0
 11 12  1  0
 12 13  1  0
 13 14  2  0
 13 15  2  0
 13 16  1  0
 16 17  1  0
 17 18  1  0
 18 19  1  0
 19 20  1  0
 20 21  1  0
 12 22  1  0
 22 23  1  0
  5 24  1  0
 24 25  2  0
 25 26  1  0
 26 27  2  0
 27 28  1  0
 28 29  1  0
 28 30  2  0
 23  9  1  0
 30 24  1  0
 21 16  1  0
M  END
>  <energy_score>  (1189) 
-11.660651

>  <inchikey>  (1189) 
None

>  <smiles>  (1189) 
None

>  <ref_pdb>  (1189) 
A4706a

>  <alias>  (1189) 
None

>  <HIPPO Pose ID>  (1189) 
500505

>  <name>  (1189) 
P500505

>  <HIPPO Compound ID>  (1189) 
314846

>  <ref_mols>  (1189) 
A4706a,A0875a

>  <distance_score>  (1189) 
1.331558

>  <inspiration_score>  (1189) 
None

$$$$
P500506
     RDKit          3D

 30 31  0  0  0  0  0  0  0  0999 V2000
   14.7539   10.0505   31.5393 C   0  0  0  0  0  0  0  0  0  0  0  0
   14.6046   11.5573   31.6481 C   0  0  0  0  0  0  0  0  0  0  0  0
   14.8134   12.2025   30.3932 O   0  0  0  0  0  0  0  0  0  0  0  0
   16.1912   12.2527   29.9898 C   0  0  0  0  0  0  0  0  0  0  0  0
   16.5781   13.6191   29.7908 O   0  0  0  0  0  0  0  0  0  0  0  0
   16.7415   14.3253   31.0157 C   0  0  0  0  0  0  0  0  0  0  0  0
   17.1899   15.7375   30.6949 C   0  0  0  0  0  0  0  0  0  0  0  0
   16.3094   11.5104   28.6370 C   0  0  2  0  0  0  0  0  0  0  0  0
   17.7555   11.3493   28.1757 C   0  0  0  0  0  0  0  0  0  0  0  0
   18.4993   10.5074   29.1236 N   0  0  0  0  0  0  0  0  0  0  0  0
   19.5993   10.0932   28.7112 N   0  0  0  0  0  0  0  0  0  0  0  0
   20.6030    9.7132   28.3297 N   0  0  0  0  0  0  0  0  0  0  0  0
   15.5718   12.2963   27.6662 O   0  0  0  0  0  0  0  0  0  0  0  0
   14.8896   11.6376   26.7036 C   0  0  0  0  0  0  0  0  0  0  0  0
   15.0839   10.4910   26.3349 O   0  0  0  0  0  0  0  0  0  0  0  0
   13.7971   12.5338   26.1719 C   0  0  0  0  0  0  0  0  0  0  0  0
   12.9094   12.9746   27.3203 C   0  0  0  0  0  0  0  0  0  0  0  0
   11.6474   13.7185   26.9103 C   0  0  0  0  0  0  0  0  0  0  0  0
   10.9531   13.1061   25.7472 N   0  0  0  0  0  0  0  0  0  0  0  0
    9.5853   14.0256   25.2911 S   0  0  0  0  0  0  0  0  0  0  0  0
    9.2487   13.7642   23.9148 O   0  0  0  0  0  0  0  0  0  0  0  0
    9.7799   15.3658   25.7829 O   0  0  0  0  0  0  0  0  0  0  0  0
    8.4479   13.2710   26.2873 N   0  0  0  0  0  0  0  0  0  0  0  0
    7.2971   14.1249   26.6755 C   0  0  0  0  0  0  0  0  0  0  0  0
    6.3276   14.2786   25.5120 C   0  0  0  0  0  0  0  0  0  0  0  0
    6.0801   12.9550   24.7887 C   0  0  0  0  0  0  0  0  0  0  0  0
    6.5819   11.7687   25.6006 C   0  0  0  0  0  0  0  0  0  0  0  0
    8.0676   11.8913   25.8871 C   0  0  0  0  0  0  0  0  0  0  0  0
   11.8544   12.7877   24.6269 C   0  0  0  0  0  0  0  0  0  0  0  0
   12.9240   11.8321   25.1522 C   0  0  0  0  0  0  0  0  0  0  0  0
  1  2  1  0
  2  3  1  0
  3  4  1  0
  4  5  1  0
  5  6  1  0
  6  7  1  0
  4  8  1  0
  8  9  1  6
  9 10  1  0
 10 11  2  0
 11 12  2  0
  8 13  1  0
 13 14  1  0
 14 15  2  0
 14 16  1  0
 16 17  1  0
 17 18  1  0
 18 19  1  0
 19 20  1  0
 20 21  2  0
 20 22  2  0
 20 23  1  0
 23 24  1  0
 24 25  1  0
 25 26  1  0
 26 27  1  0
 27 28  1  0
 19 29  1  0
 29 30  1  0
 30 16  1  0
 28 23  1  0
M  CHG  2  11   1  12  -1
M  END
>  <energy_score>  (1190) 
-73.703773

>  <inchikey>  (1190) 
None

>  <smiles>  (1190) 
None

>  <ref_pdb>  (1190) 
A4706a

>  <alias>  (1190) 
None

>  <HIPPO Pose ID>  (1190) 
500506

>  <name>  (1190) 
P500506

>  <HIPPO Compound ID>  (1190) 
314850

>  <ref_mols>  (1190) 
A4706a,A0875a

>  <distance_score>  (1190) 
1.981127

>  <inspiration_score>  (1190) 
None

$$$$
P500509
     RDKit          3D

 30 32  0  0  0  0  0  0  0  0999 V2000
    4.5836   13.8927   20.9225 C   0  0  0  0  0  0  0  0  0  0  0  0
    5.9395   14.3482   21.0732 O   0  0  0  0  0  0  0  0  0  0  0  0
    6.0467   15.4568   21.8487 C   0  0  0  0  0  0  0  0  0  0  0  0
    5.0574   16.1174   22.1786 O   0  0  0  0  0  0  0  0  0  0  0  0
    7.4487   15.7782   22.3848 C   0  0  1  0  0  0  0  0  0  0  0  0
    7.3672   15.3113   23.7646 O   0  0  0  0  0  0  0  0  0  0  0  0
    6.7646   14.0983   23.9606 C   0  0  0  0  0  0  0  0  0  0  0  0
    6.6388   13.2120   23.1230 O   0  0  0  0  0  0  0  0  0  0  0  0
    6.1470   13.9884   25.3356 C   0  0  0  0  0  0  0  0  0  0  0  0
    6.1795   12.5198   25.7770 C   0  0  0  0  0  0  0  0  0  0  0  0
    7.2846   12.2493   26.7739 C   0  0  0  0  0  0  0  0  0  0  0  0
    8.5091   13.0586   26.5114 N   0  0  0  0  0  0  0  0  0  0  0  0
    9.5550   12.4029   25.3844 S   0  0  0  0  0  0  0  0  0  0  0  0
    9.0739   12.7311   24.0756 O   0  0  0  0  0  0  0  0  0  0  0  0
    9.7453   11.0215   25.7247 O   0  0  0  0  0  0  0  0  0  0  0  0
   11.0178   13.1840   25.5812 N   0  0  0  0  0  0  0  0  0  0  0  0
   11.5627   13.6060   26.8745 C   0  0  0  0  0  0  0  0  0  0  0  0
   12.8538   12.8989   27.3205 C   0  0  0  0  0  0  0  0  0  0  0  0
   13.7942   12.3964   26.2498 C   0  0  0  0  0  0  0  0  0  0  0  0
   12.9821   11.7781   25.1510 C   0  0  0  0  0  0  0  0  0  0  0  0
   12.0325   12.8220   24.5812 C   0  0  0  0  0  0  0  0  0  0  0  0
    8.2917   14.5178   26.5373 C   0  0  0  0  0  0  0  0  0  0  0  0
    6.8237   14.8867   26.3648 C   0  0  0  0  0  0  0  0  0  0  0  0
    8.7905   15.4888   21.6860 C   0  0  0  0  0  0  0  0  0  0  0  0
    9.1559   16.0787   20.4740 C   0  0  0  0  0  0  0  0  0  0  0  0
   10.2604   15.6561   19.7227 C   0  0  0  0  0  0  0  0  0  0  0  0
   11.1700   14.8086   20.3026 C   0  0  0  0  0  0  0  0  0  0  0  0
   12.2464   14.4089   19.6179 F   0  0  0  0  0  0  0  0  0  0  0  0
   11.0112   14.4569   21.6247 C   0  0  0  0  0  0  0  0  0  0  0  0
    9.8434   14.8189   22.3054 C   0  0  0  0  0  0  0  0  0  0  0  0
  1  2  1  0
  2  3  1  0
  3  4  2  0
  3  5  1  0
  5  6  1  1
  6  7  1  0
  7  8  2  0
  7  9  1  0
  9 10  1  0
 10 11  1  0
 11 12  1  0
 12 13  1  0
 13 14  2  0
 13 15  2  0
 13 16  1  0
 16 17  1  0
 17 18  1  0
 18 19  1  0
 19 20  1  0
 20 21  1  0
 12 22  1  0
 22 23  1  0
  5 24  1  0
 24 25  2  0
 25 26  1  0
 26 27  2  0
 27 28  1  0
 27 29  1  0
 29 30  2  0
 23  9  1  0
 30 24  1  0
 21 16  1  0
M  END
>  <energy_score>  (1191) 
-14.877533

>  <inchikey>  (1191) 
None

>  <smiles>  (1191) 
None

>  <ref_pdb>  (1191) 
A4706a

>  <alias>  (1191) 
None

>  <HIPPO Pose ID>  (1191) 
500509

>  <name>  (1191) 
P500509

>  <HIPPO Compound ID>  (1191) 
314857

>  <ref_mols>  (1191) 
A4706a,A0875a

>  <distance_score>  (1191) 
1.914939

>  <inspiration_score>  (1191) 
None

$$$$
P500510
     RDKit          3D

 30 33  0  0  0  0  0  0  0  0999 V2000
    6.9147   14.2091   21.5305 O   0  0  0  0  0  0  0  0  0  0  0  0
    7.3354   14.8389   22.4898 C   0  0  0  0  0  0  0  0  0  0  0  0
    7.7397   16.1344   22.4768 O   0  0  0  0  0  0  0  0  0  0  0  0
    8.9589   16.5751   21.7809 C   0  0  0  0  0  0  0  0  0  0  0  0
   10.2610   16.1186   22.4700 C   0  0  0  0  0  0  0  0  0  0  0  0
   10.6968   14.6880   22.3736 C   0  0  1  0  0  0  0  0  0  0  0  0
   10.1627   13.8419   21.2845 C   0  0  0  0  0  0  0  0  0  0  0  0
   11.0620   14.3419   20.2223 C   0  0  0  0  0  0  0  0  0  0  0  0
   10.6536   14.3884   18.7892 C   0  0  0  0  0  0  0  0  0  0  0  0
   11.7948   15.3215   17.9268 Cl  0  0  0  0  0  0  0  0  0  0  0  0
   12.1758   14.8051   20.6874 N   0  0  0  0  0  0  0  0  0  0  0  0
   12.0962   14.6948   22.0902 O   0  0  0  0  0  0  0  0  0  0  0  0
    9.1218   16.4807   20.2905 C   0  0  0  0  0  0  0  0  0  0  0  0
    8.5144   17.7536   20.0291 O   0  0  0  0  0  0  0  0  0  0  0  0
    8.8713   18.1114   21.3675 C   0  0  0  0  0  0  0  0  0  0  0  0
    7.5778   14.2267   23.8542 C   0  0  0  0  0  0  0  0  0  0  0  0
    7.4723   12.7093   23.9518 C   0  0  0  0  0  0  0  0  0  0  0  0
    8.0814   12.1562   25.2441 C   0  0  0  0  0  0  0  0  0  0  0  0
    8.3064   13.2107   26.2388 N   0  0  0  0  0  0  0  0  0  0  0  0
    9.7479   14.0408   26.4649 S   0  0  0  0  0  0  0  0  0  0  0  0
    9.9875   14.9766   25.3973 O   0  0  0  0  0  0  0  0  0  0  0  0
    9.6520   14.5581   27.8085 O   0  0  0  0  0  0  0  0  0  0  0  0
   11.0603   12.9558   26.4536 N   0  0  0  0  0  0  0  0  0  0  0  0
   11.5616   12.4669   25.1486 C   0  0  0  0  0  0  0  0  0  0  0  0
   12.6257   11.3829   25.4024 C   0  0  0  0  0  0  0  0  0  0  0  0
   13.5255   11.6303   26.5990 C   0  0  0  0  0  0  0  0  0  0  0  0
   13.5940   13.0903   26.7970 C   0  0  0  0  0  0  0  0  0  0  0  0
   12.2064   13.6294   27.1839 C   0  0  0  0  0  0  0  0  0  0  0  0
    7.0886   14.0891   26.3392 C   0  0  0  0  0  0  0  0  0  0  0  0
    6.8803   14.8870   25.0401 C   0  0  0  0  0  0  0  0  0  0  0  0
  1  2  2  0
  2  3  1  0
  3  4  1  0
  4  5  1  0
  6  5  1  6
  6  7  1  0
  7  8  1  0
  8  9  1  0
  9 10  1  0
  8 11  2  0
 11 12  1  0
  4 13  1  0
 13 14  1  0
 14 15  1  0
  2 16  1  0
 16 17  1  0
 17 18  1  0
 18 19  1  0
 19 20  1  0
 20 21  2  0
 20 22  2  0
 20 23  1  0
 23 24  1  0
 24 25  1  0
 25 26  1  0
 26 27  1  0
 27 28  1  0
 19 29  1  0
 29 30  1  0
 15  4  1  0
 30 16  1  0
 12  6  1  0
 28 23  1  0
M  END
>  <energy_score>  (1192) 
-6.105974

>  <inchikey>  (1192) 
None

>  <smiles>  (1192) 
None

>  <ref_pdb>  (1192) 
A4706a

>  <alias>  (1192) 
None

>  <HIPPO Pose ID>  (1192) 
500510

>  <name>  (1192) 
P500510

>  <HIPPO Compound ID>  (1192) 
314859

>  <ref_mols>  (1192) 
A0875a,A4706a

>  <distance_score>  (1192) 
1.811774

>  <inspiration_score>  (1192) 
None

$$$$
P500511
     RDKit          3D

 30 32  0  0  0  0  0  0  0  0999 V2000
    8.5131   18.3806   21.0770 C   0  0  0  0  0  0  0  0  0  0  0  0
    8.3946   16.9789   20.9141 O   0  0  0  0  0  0  0  0  0  0  0  0
    7.6816   16.1727   21.7495 C   0  0  0  0  0  0  0  0  0  0  0  0
    6.9875   16.4927   22.7017 O   0  0  0  0  0  0  0  0  0  0  0  0
    7.9313   14.7057   21.2847 C   0  0  2  0  0  0  0  0  0  0  0  0
    7.5631   13.5979   22.0952 O   0  0  0  0  0  0  0  0  0  0  0  0
    6.4564   13.7825   22.8699 C   0  0  0  0  0  0  0  0  0  0  0  0
    5.3455   14.0342   22.4495 O   0  0  0  0  0  0  0  0  0  0  0  0
    6.9162   13.6103   24.2863 C   0  0  0  0  0  0  0  0  0  0  0  0
    7.5693   12.2408   24.5046 C   0  0  0  0  0  0  0  0  0  0  0  0
    7.9835   12.0146   25.9408 C   0  0  0  0  0  0  0  0  0  0  0  0
    8.1276   13.2894   26.6373 N   0  0  0  0  0  0  0  0  0  0  0  0
    9.5068   14.2429   26.4661 S   0  0  0  0  0  0  0  0  0  0  0  0
    9.5387   15.0569   27.6548 O   0  0  0  0  0  0  0  0  0  0  0  0
    9.5464   14.8760   25.1728 O   0  0  0  0  0  0  0  0  0  0  0  0
   10.8233   13.1222   26.5393 N   0  0  0  0  0  0  0  0  0  0  0  0
   11.9139   13.7255   27.3683 C   0  0  0  0  0  0  0  0  0  0  0  0
   13.1581   12.8418   27.4443 C   0  0  0  0  0  0  0  0  0  0  0  0
   13.6780   12.4012   26.0988 C   0  0  0  0  0  0  0  0  0  0  0  0
   12.5520   11.8896   25.2407 C   0  0  0  0  0  0  0  0  0  0  0  0
   11.3453   12.8032   25.1784 C   0  0  0  0  0  0  0  0  0  0  0  0
    6.8290   14.0558   26.7209 C   0  0  0  0  0  0  0  0  0  0  0  0
    5.9866   13.9222   25.4364 C   0  0  0  0  0  0  0  0  0  0  0  0
    9.4219   14.5977   20.9957 C   0  0  0  0  0  0  0  0  0  0  0  0
    9.9346   14.9103   19.7213 C   0  0  0  0  0  0  0  0  0  0  0  0
   11.2897   15.0445   19.5226 C   0  0  0  0  0  0  0  0  0  0  0  0
   12.1162   15.0001   20.6345 C   0  0  0  0  0  0  0  0  0  0  0  0
   11.6280   14.7047   21.8925 C   0  0  0  0  0  0  0  0  0  0  0  0
   12.4468   14.6982   22.9469 F   0  0  0  0  0  0  0  0  0  0  0  0
   10.2939   14.4580   22.0705 C   0  0  0  0  0  0  0  0  0  0  0  0
  1  2  1  0
  2  3  1  0
  3  4  2  0
  3  5  1  0
  5  6  1  1
  6  7  1  0
  7  8  2  0
  7  9  1  0
  9 10  1  0
 10 11  1  0
 11 12  1  0
 12 13  1  0
 13 14  2  0
 13 15  2  0
 13 16  1  0
 16 17  1  0
 17 18  1  0
 18 19  1  0
 19 20  1  0
 20 21  1  0
 12 22  1  0
 22 23  1  0
  5 24  1  0
 24 25  2  0
 25 26  1  0
 26 27  2  0
 27 28  1  0
 28 29  1  0
 28 30  2  0
 23  9  1  0
 30 24  1  0
 21 16  1  0
M  END
>  <energy_score>  (1193) 
-39.293825

>  <inchikey>  (1193) 
None

>  <smiles>  (1193) 
None

>  <ref_pdb>  (1193) 
A4706a

>  <alias>  (1193) 
None

>  <HIPPO Pose ID>  (1193) 
500511

>  <name>  (1193) 
P500511

>  <HIPPO Compound ID>  (1193) 
314860

>  <ref_mols>  (1193) 
A4706a,A0875a

>  <distance_score>  (1193) 
1.555088

>  <inspiration_score>  (1193) 
None

$$$$
P500513
     RDKit          3D

 30 32  0  0  0  0  0  0  0  0999 V2000
    6.0475   17.1334   23.6558 C   0  0  0  0  0  0  0  0  0  0  0  0
    6.4898   16.0492   22.8536 O   0  0  0  0  0  0  0  0  0  0  0  0
    7.5435   16.2253   21.9955 C   0  0  0  0  0  0  0  0  0  0  0  0
    8.0238   17.2864   21.6328 O   0  0  0  0  0  0  0  0  0  0  0  0
    8.0715   14.8639   21.5602 C   0  0  2  0  0  0  0  0  0  0  0  0
    7.9146   13.9413   22.6720 O   0  0  0  0  0  0  0  0  0  0  0  0
    6.6571   13.4859   22.9168 C   0  0  0  0  0  0  0  0  0  0  0  0
    5.8408   13.3041   22.0189 O   0  0  0  0  0  0  0  0  0  0  0  0
    6.3466   13.1009   24.3780 C   0  0  0  0  0  0  0  0  0  0  0  0
    7.0937   11.8147   24.7506 C   0  0  0  0  0  0  0  0  0  0  0  0
    7.4878   11.6496   26.1994 C   0  0  0  0  0  0  0  0  0  0  0  0
    8.0119   12.8977   26.7466 N   0  0  0  0  0  0  0  0  0  0  0  0
    9.4195   13.5626   26.1083 S   0  0  0  0  0  0  0  0  0  0  0  0
    9.7636   14.6841   26.9460 O   0  0  0  0  0  0  0  0  0  0  0  0
    9.1716   13.7273   24.7115 O   0  0  0  0  0  0  0  0  0  0  0  0
   10.6577   12.4070   26.1951 N   0  0  0  0  0  0  0  0  0  0  0  0
   11.9891   13.0991   26.2611 C   0  0  0  0  0  0  0  0  0  0  0  0
   13.1239   12.1087   26.4571 C   0  0  0  0  0  0  0  0  0  0  0  0
   13.0899   11.0187   25.3986 C   0  0  0  0  0  0  0  0  0  0  0  0
   11.6924   10.3694   25.2625 C   0  0  0  0  0  0  0  0  0  0  0  0
   10.6420   11.4424   25.0427 C   0  0  0  0  0  0  0  0  0  0  0  0
    6.8880   13.8825   26.7859 C   0  0  0  0  0  0  0  0  0  0  0  0
    6.4760   14.2711   25.3684 C   0  0  0  0  0  0  0  0  0  0  0  0
    9.4966   14.9460   21.0013 C   0  0  0  0  0  0  0  0  0  0  0  0
    9.6782   15.0162   19.6102 C   0  0  0  0  0  0  0  0  0  0  0  0
   10.9143   14.8539   19.0021 C   0  0  0  0  0  0  0  0  0  0  0  0
   12.0268   14.7386   19.7899 C   0  0  0  0  0  0  0  0  0  0  0  0
   11.9143   14.9386   21.1472 C   0  0  0  0  0  0  0  0  0  0  0  0
   10.6669   15.0496   21.7375 C   0  0  0  0  0  0  0  0  0  0  0  0
   10.7714   15.5336   23.5155 Br  0  0  0  0  0  0  0  0  0  0  0  0
  1  2  1  0
  2  3  1  0
  3  4  2  0
  3  5  1  0
  5  6  1  1
  6  7  1  0
  7  8  2  0
  7  9  1  0
  9 10  1  0
 10 11  1  0
 11 12  1  0
 12 13  1  0
 13 14  2  0
 13 15  2  0
 13 16  1  0
 16 17  1  0
 17 18  1  0
 18 19  1  0
 19 20  1  0
 20 21  1  0
 12 22  1  0
 22 23  1  0
  5 24  1  0
 24 25  2  0
 25 26  1  0
 26 27  2  0
 27 28  1  0
 28 29  2  0
 29 30  1  0
 23  9  1  0
 29 24  1  0
 21 16  1  0
M  END
>  <energy_score>  (1194) 
-9.430214

>  <inchikey>  (1194) 
None

>  <smiles>  (1194) 
None

>  <ref_pdb>  (1194) 
A4706a

>  <alias>  (1194) 
None

>  <HIPPO Pose ID>  (1194) 
500513

>  <name>  (1194) 
P500513

>  <HIPPO Compound ID>  (1194) 
314865

>  <ref_mols>  (1194) 
A4706a,A0875a

>  <distance_score>  (1194) 
1.263052

>  <inspiration_score>  (1194) 
None

$$$$
P500515
     RDKit          3D

 30 33  0  0  0  0  0  0  0  0999 V2000
   12.2036   14.3842   22.9538 C   0  0  0  0  0  0  0  0  0  0  0  0
   11.5260   14.8598   21.7244 C   0  0  0  0  0  0  0  0  0  0  0  0
   12.4044   15.1218   20.5524 C   0  0  0  0  0  0  0  0  0  0  0  0
   10.8574   16.0645   22.0818 O   0  0  0  0  0  0  0  0  0  0  0  0
    9.5116   15.6263   22.1004 C   0  0  1  0  0  0  0  0  0  0  0  0
    8.5343   16.6301   21.6554 C   0  0  2  0  0  0  0  0  0  0  0  0
    7.1246   16.1988   22.1600 C   0  0  0  0  0  0  0  0  0  0  0  0
    6.7245   14.8564   21.8188 O   0  0  0  0  0  0  0  0  0  0  0  0
    6.3762   13.8772   22.6791 C   0  0  0  0  0  0  0  0  0  0  0  0
    5.6392   12.9843   22.2817 O   0  0  0  0  0  0  0  0  0  0  0  0
    6.9803   13.8345   24.0633 C   0  0  0  0  0  0  0  0  0  0  0  0
    7.4688   12.4002   24.3703 C   0  0  0  0  0  0  0  0  0  0  0  0
    7.7095   12.1432   25.8440 C   0  0  0  0  0  0  0  0  0  0  0  0
    8.1444   13.3661   26.4986 N   0  0  0  0  0  0  0  0  0  0  0  0
    9.6737   14.0371   26.3131 S   0  0  0  0  0  0  0  0  0  0  0  0
    9.7174   14.7559   25.0707 O   0  0  0  0  0  0  0  0  0  0  0  0
    9.8878   14.7687   27.5367 O   0  0  0  0  0  0  0  0  0  0  0  0
   10.8406   12.8264   26.2388 N   0  0  0  0  0  0  0  0  0  0  0  0
   12.1913   13.2630   26.7574 C   0  0  0  0  0  0  0  0  0  0  0  0
   13.3910   12.9592   25.8358 C   0  0  0  0  0  0  0  0  0  0  0  0
   13.4787   11.5436   25.3241 C   0  0  0  0  0  0  0  0  0  0  0  0
   12.1001   10.9696   25.3596 C   0  0  0  0  0  0  0  0  0  0  0  0
   10.9312   11.9050   25.0824 C   0  0  0  0  0  0  0  0  0  0  0  0
    7.0226   14.3811   26.5244 C   0  0  0  0  0  0  0  0  0  0  0  0
    6.1579   14.3403   25.2378 C   0  0  0  0  0  0  0  0  0  0  0  0
    8.8111   16.6947   20.2616 O   0  0  0  0  0  0  0  0  0  0  0  0
    9.3998   15.5414   19.8426 C   0  0  0  0  0  0  0  0  0  0  0  0
    9.7832   15.3691   18.7042 O   0  0  0  0  0  0  0  0  0  0  0  0
    9.4708   14.5980   21.0221 C   0  0  1  0  0  0  0  0  0  0  0  0
   10.5921   13.8622   21.3515 O   0  0  0  0  0  0  0  0  0  0  0  0
  1  2  1  0
  2  3  1  0
  2  4  1  0
  5  4  1  6
  5  6  1  0
  6  7  1  6
  7  8  1  0
  8  9  1  0
  9 10  2  0
  9 11  1  0
 11 12  1  0
 12 13  1  0
 13 14  1  0
 14 15  1  0
 15 16  2  0
 15 17  2  0
 15 18  1  0
 18 19  1  0
 19 20  1  0
 20 21  1  0
 21 22  1  0
 22 23  1  0
 14 24  1  0
 24 25  1  0
  6 26  1  0
 26 27  1  0
 27 28  2  0
 27 29  1  0
 29 30  1  6
 30  2  1  0
 29  5  1  0
 25 11  1  0
 23 18  1  0
M  END
>  <energy_score>  (1195) 
-20.041828

>  <inchikey>  (1195) 
None

>  <smiles>  (1195) 
None

>  <ref_pdb>  (1195) 
A4706a

>  <alias>  (1195) 
None

>  <HIPPO Pose ID>  (1195) 
500515

>  <name>  (1195) 
P500515

>  <HIPPO Compound ID>  (1195) 
314866

>  <ref_mols>  (1195) 
A4706a,A0875a

>  <distance_score>  (1195) 
1.675366

>  <inspiration_score>  (1195) 
None

$$$$
P500516
     RDKit          3D

 30 32  0  0  0  0  0  0  0  0999 V2000
    8.3134   18.5745   20.3031 C   0  0  0  0  0  0  0  0  0  0  0  0
    7.8543   17.4894   21.1114 O   0  0  0  0  0  0  0  0  0  0  0  0
    8.8400   16.7702   21.6652 C   0  0  0  0  0  0  0  0  0  0  0  0
   10.0231   17.0794   21.5994 O   0  0  0  0  0  0  0  0  0  0  0  0
    8.2849   15.4621   22.2902 C   0  0  1  0  0  0  0  0  0  0  0  0
    9.5113   14.5006   22.3265 C   0  0  0  0  0  0  0  0  0  0  0  0
   10.2585   14.5165   21.0407 C   0  0  0  0  0  0  0  0  0  0  0  0
    9.5359   14.7680   19.8888 C   0  0  0  0  0  0  0  0  0  0  0  0
   10.1259   15.0427   18.6928 C   0  0  0  0  0  0  0  0  0  0  0  0
   11.4773   14.9506   18.5968 C   0  0  0  0  0  0  0  0  0  0  0  0
   12.2101   14.6363   19.7278 C   0  0  0  0  0  0  0  0  0  0  0  0
   11.6257   14.4512   20.9675 C   0  0  0  0  0  0  0  0  0  0  0  0
    7.5538   15.4760   23.5226 O   0  0  0  0  0  0  0  0  0  0  0  0
    6.5425   14.5565   23.6171 C   0  0  0  0  0  0  0  0  0  0  0  0
    6.1747   13.8351   22.6916 O   0  0  0  0  0  0  0  0  0  0  0  0
    5.9032   14.4699   25.0205 C   0  0  0  0  0  0  0  0  0  0  0  0
    5.7079   12.9942   25.4645 C   0  0  0  0  0  0  0  0  0  0  0  0
    6.7699   12.3779   26.3917 C   0  0  0  0  0  0  0  0  0  0  0  0
    7.9056   13.3039   26.6213 N   0  0  0  0  0  0  0  0  0  0  0  0
    9.0177   13.3855   25.3719 S   0  0  0  0  0  0  0  0  0  0  0  0
    9.5140   14.7383   25.2999 O   0  0  0  0  0  0  0  0  0  0  0  0
    8.3717   12.7171   24.2708 O   0  0  0  0  0  0  0  0  0  0  0  0
   10.2714   12.3754   25.8584 N   0  0  0  0  0  0  0  0  0  0  0  0
   11.5470   13.0682   26.1811 C   0  0  0  0  0  0  0  0  0  0  0  0
   12.6410   12.6611   25.2145 C   0  0  0  0  0  0  0  0  0  0  0  0
   12.8998   11.1807   25.4161 C   0  0  0  0  0  0  0  0  0  0  0  0
   11.6056   10.3356   25.2650 C   0  0  0  0  0  0  0  0  0  0  0  0
   10.3754   11.1710   24.9702 C   0  0  0  0  0  0  0  0  0  0  0  0
    7.4026   14.5937   27.1371 C   0  0  0  0  0  0  0  0  0  0  0  0
    6.5423   15.3361   26.1152 C   0  0  0  0  0  0  0  0  0  0  0  0
  1  2  1  0
  2  3  1  0
  3  4  2  0
  3  5  1  0
  5  6  1  1
  6  7  1  0
  7  8  2  0
  8  9  1  0
  9 10  2  0
 10 11  1  0
 11 12  2  0
  5 13  1  0
 13 14  1  0
 14 15  2  0
 14 16  1  0
 16 17  1  0
 17 18  1  0
 18 19  1  0
 19 20  1  0
 20 21  2  0
 20 22  2  0
 20 23  1  0
 23 24  1  0
 24 25  1  0
 25 26  1  0
 26 27  1  0
 27 28  1  0
 19 29  1  0
 29 30  1  0
 12  7  1  0
 30 16  1  0
 28 23  1  0
M  END
>  <energy_score>  (1196) 
-23.650937

>  <inchikey>  (1196) 
None

>  <smiles>  (1196) 
None

>  <ref_pdb>  (1196) 
A4706a

>  <alias>  (1196) 
None

>  <HIPPO Pose ID>  (1196) 
500516

>  <name>  (1196) 
P500516

>  <HIPPO Compound ID>  (1196) 
314874

>  <ref_mols>  (1196) 
A4706a,A0875a

>  <distance_score>  (1196) 
1.553041

>  <inspiration_score>  (1196) 
None

$$$$
P500517
     RDKit          3D

 30 32  0  0  0  0  0  0  0  0999 V2000
    8.5253   18.6127   21.0559 C   0  0  0  0  0  0  0  0  0  0  0  0
    8.5244   17.2219   20.8137 O   0  0  0  0  0  0  0  0  0  0  0  0
    7.8251   16.3849   21.6279 C   0  0  0  0  0  0  0  0  0  0  0  0
    7.0247   16.6746   22.5047 O   0  0  0  0  0  0  0  0  0  0  0  0
    8.1965   14.9419   21.2765 C   0  0  2  0  0  0  0  0  0  0  0  0
    8.0080   14.0265   22.3607 O   0  0  0  0  0  0  0  0  0  0  0  0
    6.7204   13.9148   22.8151 C   0  0  0  0  0  0  0  0  0  0  0  0
    5.7355   13.8540   22.1019 O   0  0  0  0  0  0  0  0  0  0  0  0
    6.7653   13.8185   24.3180 C   0  0  0  0  0  0  0  0  0  0  0  0
    6.4077   12.4814   24.9514 C   0  0  0  0  0  0  0  0  0  0  0  0
    6.8975   12.4339   26.4120 C   0  0  0  0  0  0  0  0  0  0  0  0
    7.3695   13.7592   26.8613 N   0  0  0  0  0  0  0  0  0  0  0  0
    8.9618   14.3238   26.8079 S   0  0  0  0  0  0  0  0  0  0  0  0
    9.0969   15.2894   25.7464 O   0  0  0  0  0  0  0  0  0  0  0  0
    9.2779   14.7208   28.1566 O   0  0  0  0  0  0  0  0  0  0  0  0
    9.9742   13.0224   26.4350 N   0  0  0  0  0  0  0  0  0  0  0  0
   11.4020   13.2986   26.8033 C   0  0  0  0  0  0  0  0  0  0  0  0
   12.3579   13.3326   25.6446 C   0  0  0  0  0  0  0  0  0  0  0  0
   12.2125   12.1676   24.7170 C   0  0  0  0  0  0  0  0  0  0  0  0
   10.8697   11.4604   24.7958 C   0  0  0  0  0  0  0  0  0  0  0  0
    9.7996   12.4447   25.0991 C   0  0  0  0  0  0  0  0  0  0  0  0
    6.3384   14.8066   26.6013 C   0  0  0  0  0  0  0  0  0  0  0  0
    6.1112   14.9619   25.0886 C   0  0  0  0  0  0  0  0  0  0  0  0
    9.6318   14.9007   20.7933 C   0  0  0  0  0  0  0  0  0  0  0  0
    9.8916   14.9632   19.4130 C   0  0  0  0  0  0  0  0  0  0  0  0
   11.1642   14.8090   18.9168 C   0  0  0  0  0  0  0  0  0  0  0  0
   12.1997   14.7235   19.8136 C   0  0  0  0  0  0  0  0  0  0  0  0
   11.9963   14.9265   21.1671 C   0  0  0  0  0  0  0  0  0  0  0  0
   10.7172   15.0115   21.6509 C   0  0  0  0  0  0  0  0  0  0  0  0
   10.5803   15.4166   23.2889 Cl  0  0  0  0  0  0  0  0  0  0  0  0
  1  2  1  0
  2  3  1  0
  3  4  2  0
  3  5  1  0
  5  6  1  1
  6  7  1  0
  7  8  2  0
  7  9  1  0
  9 10  1  0
 10 11  1  0
 11 12  1  0
 12 13  1  0
 13 14  2  0
 13 15  2  0
 13 16  1  0
 16 17  1  0
 17 18  1  0
 18 19  1  0
 19 20  1  0
 20 21  1  0
 12 22  1  0
 22 23  1  0
  5 24  1  0
 24 25  2  0
 25 26  1  0
 26 27  2  0
 27 28  1  0
 28 29  2  0
 29 30  1  0
 23  9  1  0
 29 24  1  0
 21 16  1  0
M  END
>  <energy_score>  (1197) 
-34.987916

>  <inchikey>  (1197) 
None

>  <smiles>  (1197) 
None

>  <ref_pdb>  (1197) 
A4706a

>  <alias>  (1197) 
None

>  <HIPPO Pose ID>  (1197) 
500517

>  <name>  (1197) 
P500517

>  <HIPPO Compound ID>  (1197) 
314877

>  <ref_mols>  (1197) 
A4706a,A0875a

>  <distance_score>  (1197) 
1.640707

>  <inspiration_score>  (1197) 
None

$$$$
P500519
     RDKit          3D

 30 32  0  0  0  0  0  0  0  0999 V2000
    7.8145   19.4794   19.2607 C   0  0  0  0  0  0  0  0  0  0  0  0
    8.1722   18.1771   19.6750 O   0  0  0  0  0  0  0  0  0  0  0  0
    8.2994   18.0414   21.0251 C   0  0  0  0  0  0  0  0  0  0  0  0
    8.5052   19.0009   21.7417 O   0  0  0  0  0  0  0  0  0  0  0  0
    8.1339   16.5461   21.4430 C   0  0  2  0  0  0  0  0  0  0  0  0
    7.5743   16.1326   22.7168 O   0  0  0  0  0  0  0  0  0  0  0  0
    6.8810   14.9579   22.7296 C   0  0  0  0  0  0  0  0  0  0  0  0
    6.7567   14.2069   21.7598 O   0  0  0  0  0  0  0  0  0  0  0  0
    6.2296   14.5730   24.0726 C   0  0  0  0  0  0  0  0  0  0  0  0
    6.6431   13.1006   24.3599 C   0  0  0  0  0  0  0  0  0  0  0  0
    6.8777   12.7227   25.8101 C   0  0  0  0  0  0  0  0  0  0  0  0
    7.5705   13.8007   26.5276 N   0  0  0  0  0  0  0  0  0  0  0  0
    9.1273   14.2998   26.0943 S   0  0  0  0  0  0  0  0  0  0  0  0
    9.1289   14.7017   24.7133 O   0  0  0  0  0  0  0  0  0  0  0  0
    9.5439   15.2360   27.1098 O   0  0  0  0  0  0  0  0  0  0  0  0
   10.1389   12.9357   26.2071 N   0  0  0  0  0  0  0  0  0  0  0  0
   11.5361   13.4193   26.4916 C   0  0  0  0  0  0  0  0  0  0  0  0
   12.5999   12.3403   26.4526 C   0  0  0  0  0  0  0  0  0  0  0  0
   12.4111   11.3766   25.3047 C   0  0  0  0  0  0  0  0  0  0  0  0
   10.9566   10.9148   25.0948 C   0  0  0  0  0  0  0  0  0  0  0  0
   10.0571   12.1029   24.9800 C   0  0  0  0  0  0  0  0  0  0  0  0
    6.6216   14.9515   26.6119 C   0  0  0  0  0  0  0  0  0  0  0  0
    6.4082   15.5727   25.2313 C   0  0  0  0  0  0  0  0  0  0  0  0
    9.4117   15.8351   21.0645 C   0  0  0  0  0  0  0  0  0  0  0  0
    9.7631   15.5229   19.7387 C   0  0  0  0  0  0  0  0  0  0  0  0
   10.9494   14.8847   19.4439 C   0  0  0  0  0  0  0  0  0  0  0  0
   11.7612   14.5080   20.4956 C   0  0  0  0  0  0  0  0  0  0  0  0
   11.4170   14.8197   21.8038 C   0  0  0  0  0  0  0  0  0  0  0  0
   12.2396   14.2736   23.1707 Cl  0  0  0  0  0  0  0  0  0  0  0  0
   10.2976   15.5519   22.0736 C   0  0  0  0  0  0  0  0  0  0  0  0
  1  2  1  0
  2  3  1  0
  3  4  2  0
  3  5  1  0
  5  6  1  1
  6  7  1  0
  7  8  2  0
  7  9  1  0
  9 10  1  0
 10 11  1  0
 11 12  1  0
 12 13  1  0
 13 14  2  0
 13 15  2  0
 13 16  1  0
 16 17  1  0
 17 18  1  0
 18 19  1  0
 19 20  1  0
 20 21  1  0
 12 22  1  0
 22 23  1  0
  5 24  1  0
 24 25  2  0
 25 26  1  0
 26 27  2  0
 27 28  1  0
 28 29  1  0
 28 30  2  0
 23  9  1  0
 30 24  1  0
 21 16  1  0
M  END
>  <energy_score>  (1198) 
-20.562751

>  <inchikey>  (1198) 
None

>  <smiles>  (1198) 
None

>  <ref_pdb>  (1198) 
A4706a

>  <alias>  (1198) 
None

>  <HIPPO Pose ID>  (1198) 
500519

>  <name>  (1198) 
P500519

>  <HIPPO Compound ID>  (1198) 
314878

>  <ref_mols>  (1198) 
A4706a,A0875a

>  <distance_score>  (1198) 
1.609148

>  <inspiration_score>  (1198) 
None

$$$$
P500520
     RDKit          3D

 30 32  0  0  0  0  0  0  0  0999 V2000
    5.1193   17.4297   25.8251 C   0  0  0  0  0  0  0  0  0  0  0  0
    5.4008   17.0482   24.3816 C   0  0  0  0  0  0  0  0  0  0  0  0
    6.6723   16.3925   24.2826 O   0  0  0  0  0  0  0  0  0  0  0  0
    6.9569   15.9778   23.0173 C   0  0  0  0  0  0  0  0  0  0  0  0
    6.2603   16.1815   22.0387 O   0  0  0  0  0  0  0  0  0  0  0  0
    8.1827   15.1269   22.9232 C   0  0  2  0  0  0  0  0  0  0  0  0
    7.9341   13.7943   23.4748 O   0  0  0  0  0  0  0  0  0  0  0  0
    6.6808   13.2858   23.3634 C   0  0  0  0  0  0  0  0  0  0  0  0
    6.1328   13.1728   22.2718 O   0  0  0  0  0  0  0  0  0  0  0  0
    6.0252   12.7545   24.6491 C   0  0  0  0  0  0  0  0  0  0  0  0
    6.7727   11.5837   25.3075 C   0  0  0  0  0  0  0  0  0  0  0  0
    7.6261   12.0458   26.4842 C   0  0  0  0  0  0  0  0  0  0  0  0
    7.9278   13.4495   26.2375 N   0  0  0  0  0  0  0  0  0  0  0  0
    9.4005   14.1506   26.4436 S   0  0  0  0  0  0  0  0  0  0  0  0
    9.4146   15.3934   25.7198 O   0  0  0  0  0  0  0  0  0  0  0  0
    9.7070   14.1652   27.8488 O   0  0  0  0  0  0  0  0  0  0  0  0
   10.4895   13.1398   25.7319 N   0  0  0  0  0  0  0  0  0  0  0  0
   11.8675   13.6508   25.7666 C   0  0  0  0  0  0  0  0  0  0  0  0
   12.8046   12.6733   25.0819 C   0  0  0  0  0  0  0  0  0  0  0  0
   12.3853   11.2654   25.4576 C   0  0  0  0  0  0  0  0  0  0  0  0
   10.9118   10.9567   25.0394 C   0  0  0  0  0  0  0  0  0  0  0  0
   10.2255   12.2411   24.6122 C   0  0  0  0  0  0  0  0  0  0  0  0
    6.7673   14.2930   26.5471 C   0  0  0  0  0  0  0  0  0  0  0  0
    5.6136   13.8013   25.6843 C   0  0  0  0  0  0  0  0  0  0  0  0
    9.6669   15.4377   23.1246 C   0  0  0  0  0  0  0  0  0  0  0  0
    9.1357   15.5255   21.7681 C   0  0  1  0  0  0  0  0  0  0  0  0
    9.6562   14.6137   20.7716 C   0  0  0  0  0  0  0  0  0  0  0  0
    9.7858   15.1938   19.5643 F   0  0  0  0  0  0  0  0  0  0  0  0
    8.7719   13.6199   20.7057 F   0  0  0  0  0  0  0  0  0  0  0  0
   10.8577   14.1176   21.1388 F   0  0  0  0  0  0  0  0  0  0  0  0
  1  2  1  0
  2  3  1  0
  3  4  1  0
  4  5  2  0
  4  6  1  0
  6  7  1  6
  7  8  1  0
  8  9  2  0
  8 10  1  0
 10 11  1  0
 11 12  1  0
 12 13  1  0
 13 14  1  0
 14 15  2  0
 14 16  2  0
 14 17  1  0
 17 18  1  0
 18 19  1  0
 19 20  1  0
 20 21  1  0
 21 22  1  0
 13 23  1  0
 23 24  1  0
  6 25  1  0
 25 26  1  0
 26 27  1  6
 27 28  1  0
 27 29  1  0
 27 30  1  0
 26  6  1  0
 24 10  1  0
 22 17  1  0
M  END
>  <energy_score>  (1199) 
-27.856529

>  <inchikey>  (1199) 
None

>  <smiles>  (1199) 
None

>  <ref_pdb>  (1199) 
A4706a

>  <alias>  (1199) 
None

>  <HIPPO Pose ID>  (1199) 
500520

>  <name>  (1199) 
P500520

>  <HIPPO Compound ID>  (1199) 
314880

>  <ref_mols>  (1199) 
A0875a,A4706a

>  <distance_score>  (1199) 
1.467494

>  <inspiration_score>  (1199) 
None

$$$$
P500524
     RDKit          3D

 30 32  0  0  0  0  0  0  0  0999 V2000
    5.2023   17.1536   24.4258 C   0  0  0  0  0  0  0  0  0  0  0  0
    6.3446   16.6259   23.7706 O   0  0  0  0  0  0  0  0  0  0  0  0
    6.0581   15.9012   22.6517 C   0  0  0  0  0  0  0  0  0  0  0  0
    5.0454   16.0274   21.9730 O   0  0  0  0  0  0  0  0  0  0  0  0
    7.1188   14.8421   22.4267 C   0  0  2  0  0  0  0  0  0  0  0  0
    7.3015   14.3451   23.7642 O   0  0  0  0  0  0  0  0  0  0  0  0
    6.4045   13.3955   24.0941 C   0  0  0  0  0  0  0  0  0  0  0  0
    5.9220   12.6297   23.2761 O   0  0  0  0  0  0  0  0  0  0  0  0
    6.0199   13.3868   25.5554 C   0  0  0  0  0  0  0  0  0  0  0  0
    6.3279   12.0099   26.1390 C   0  0  0  0  0  0  0  0  0  0  0  0
    7.8228   11.7250   26.1392 C   0  0  0  0  0  0  0  0  0  0  0  0
    8.6088   12.9548   26.4277 N   0  0  0  0  0  0  0  0  0  0  0  0
    9.7081   13.4478   25.2573 S   0  0  0  0  0  0  0  0  0  0  0  0
    9.3689   12.7622   24.0360 O   0  0  0  0  0  0  0  0  0  0  0  0
    9.8770   14.8785   25.3327 O   0  0  0  0  0  0  0  0  0  0  0  0
   11.1499   12.7587   25.8222 N   0  0  0  0  0  0  0  0  0  0  0  0
   12.1399   12.6362   24.7282 C   0  0  0  0  0  0  0  0  0  0  0  0
   13.1918   11.6488   25.2079 C   0  0  0  0  0  0  0  0  0  0  0  0
   13.9897   12.2838   26.3211 C   0  0  0  0  0  0  0  0  0  0  0  0
   13.0672   12.7919   27.4193 C   0  0  0  0  0  0  0  0  0  0  0  0
   11.7714   13.4847   26.9566 C   0  0  0  0  0  0  0  0  0  0  0  0
    7.8729   14.0065   27.1663 C   0  0  0  0  0  0  0  0  0  0  0  0
    6.6693   14.4971   26.3879 C   0  0  0  0  0  0  0  0  0  0  0  0
    8.4150   15.1477   21.7346 C   0  0  0  0  0  0  0  0  0  0  0  0
    8.4916   14.8740   20.3914 C   0  0  0  0  0  0  0  0  0  0  0  0
    9.5388   14.9957   19.5459 N   0  0  0  0  0  0  0  0  0  0  0  0
   10.6922   15.2408   20.1297 C   0  0  0  0  0  0  0  0  0  0  0  0
   10.7553   15.4507   21.4858 C   0  0  0  0  0  0  0  0  0  0  0  0
   12.4071   15.4521   22.2526 Br  0  0  0  0  0  0  0  0  0  0  0  0
    9.6170   15.5043   22.2809 C   0  0  0  0  0  0  0  0  0  0  0  0
  1  2  1  0
  2  3  1  0
  3  4  2  0
  3  5  1  0
  5  6  1  1
  6  7  1  0
  7  8  2  0
  7  9  1  0
  9 10  1  0
 10 11  1  0
 11 12  1  0
 12 13  1  0
 13 14  2  0
 13 15  2  0
 13 16  1  0
 16 17  1  0
 17 18  1  0
 18 19  1  0
 19 20  1  0
 20 21  1  0
 12 22  1  0
 22 23  1  0
  5 24  1  0
 24 25  2  0
 25 26  1  0
 26 27  2  0
 27 28  1  0
 28 29  1  0
 28 30  2  0
 23  9  1  0
 30 24  1  0
 21 16  1  0
M  END
>  <energy_score>  (1200) 
-27.923699

>  <inchikey>  (1200) 
None

>  <smiles>  (1200) 
None

>  <ref_pdb>  (1200) 
A4706a

>  <alias>  (1200) 
None

>  <HIPPO Pose ID>  (1200) 
500524

>  <name>  (1200) 
P500524

>  <HIPPO Compound ID>  (1200) 
314882

>  <ref_mols>  (1200) 
A4706a,A0875a

>  <distance_score>  (1200) 
1.847765

>  <inspiration_score>  (1200) 
None

$$$$
P500526
     RDKit          3D

 30 33  0  0  0  0  0  0  0  0999 V2000
    6.3026   12.8715   22.6188 O   0  0  0  0  0  0  0  0  0  0  0  0
    6.3551   13.7915   23.4262 C   0  0  0  0  0  0  0  0  0  0  0  0
    6.7917   15.0274   23.1156 O   0  0  0  0  0  0  0  0  0  0  0  0
    7.3046   15.2337   21.7592 C   0  0  0  0  0  0  0  0  0  0  0  0
    8.2368   16.4438   21.8364 C   0  0  2  0  0  0  0  0  0  0  0  0
    8.5241   17.4893   20.7617 C   0  0  0  0  0  0  0  0  0  0  0  0
    9.2237   16.9990   19.6407 O   0  0  0  0  0  0  0  0  0  0  0  0
   10.0660   16.0087   19.9931 C   0  0  0  0  0  0  0  0  0  0  0  0
   10.7564   15.4996   18.9198 C   0  0  0  0  0  0  0  0  0  0  0  0
   11.6721   14.5304   19.1228 C   0  0  0  0  0  0  0  0  0  0  0  0
   11.8910   14.1062   20.4095 C   0  0  0  0  0  0  0  0  0  0  0  0
   11.2901   14.6799   21.5114 C   0  0  0  0  0  0  0  0  0  0  0  0
   11.8587   14.2534   23.0538 Cl  0  0  0  0  0  0  0  0  0  0  0  0
   10.2864   15.5828   21.3030 C   0  0  0  0  0  0  0  0  0  0  0  0
    9.5110   16.0053   22.3460 O   0  0  0  0  0  0  0  0  0  0  0  0
    5.8617   13.6752   24.8723 C   0  0  0  0  0  0  0  0  0  0  0  0
    6.1532   12.2784   25.4428 C   0  0  0  0  0  0  0  0  0  0  0  0
    7.6095   12.0278   25.8155 C   0  0  0  0  0  0  0  0  0  0  0  0
    8.2666   13.2487   26.3433 N   0  0  0  0  0  0  0  0  0  0  0  0
    9.4098   13.9793   25.3197 S   0  0  0  0  0  0  0  0  0  0  0  0
    9.5771   15.3318   25.7849 O   0  0  0  0  0  0  0  0  0  0  0  0
    9.0391   13.6509   23.9695 O   0  0  0  0  0  0  0  0  0  0  0  0
   10.7993   13.1421   25.6991 N   0  0  0  0  0  0  0  0  0  0  0  0
   11.6110   13.6489   26.7978 C   0  0  0  0  0  0  0  0  0  0  0  0
   13.0568   13.2168   26.6336 C   0  0  0  0  0  0  0  0  0  0  0  0
   13.2101   11.7491   26.5553 C   0  0  0  0  0  0  0  0  0  0  0  0
   12.4068   11.2874   25.3665 C   0  0  0  0  0  0  0  0  0  0  0  0
   10.9522   11.7627   25.2631 C   0  0  0  0  0  0  0  0  0  0  0  0
    7.2850   14.1998   26.9302 C   0  0  0  0  0  0  0  0  0  0  0  0
    6.3572   14.7560   25.8506 C   0  0  0  0  0  0  0  0  0  0  0  0
  1  2  2  0
  2  3  1  0
  3  4  1  0
  5  4  1  6
  5  6  1  0
  6  7  1  0
  7  8  1  0
  8  9  2  0
  9 10  1  0
 10 11  2  0
 11 12  1  0
 12 13  1  0
 12 14  2  0
 14 15  1  0
  2 16  1  0
 16 17  1  0
 17 18  1  0
 18 19  1  0
 19 20  1  0
 20 21  2  0
 20 22  2  0
 20 23  1  0
 23 24  1  0
 24 25  1  0
 25 26  1  0
 26 27  1  0
 27 28  1  0
 19 29  1  0
 29 30  1  0
 15  5  1  0
 30 16  1  0
 14  8  1  0
 28 23  1  0
M  END
>  <energy_score>  (1201) 
-44.417972

>  <inchikey>  (1201) 
None

>  <smiles>  (1201) 
None

>  <ref_pdb>  (1201) 
A4706a

>  <alias>  (1201) 
None

>  <HIPPO Pose ID>  (1201) 
500526

>  <name>  (1201) 
P500526

>  <HIPPO Compound ID>  (1201) 
314886

>  <ref_mols>  (1201) 
A4706a,A0875a

>  <distance_score>  (1201) 
1.985894

>  <inspiration_score>  (1201) 
None

$$$$
P500528
     RDKit          3D

 30 33  0  0  0  0  0  0  0  0999 V2000
   11.5629   14.7646   18.4513 C   0  0  0  0  0  0  0  0  0  0  0  0
   11.3217   15.5027   19.6214 O   0  0  0  0  0  0  0  0  0  0  0  0
   10.0867   16.0238   19.6612 C   0  0  0  0  0  0  0  0  0  0  0  0
    9.3887   16.1644   18.6709 O   0  0  0  0  0  0  0  0  0  0  0  0
    9.7120   16.4422   21.0483 C   0  0  1  0  0  0  0  0  0  0  0  0
    8.2567   16.1092   21.2847 C   0  0  0  0  0  0  0  0  0  0  0  0
    8.0632   15.7089   22.6236 O   0  0  0  0  0  0  0  0  0  0  0  0
    9.3206   15.3111   23.1099 C   0  0  2  0  0  0  0  0  0  0  0  0
   10.4409   15.7313   22.1719 C   0  0  1  0  0  0  0  0  0  0  0  0
   11.1238   14.5135   21.8087 O   0  0  0  0  0  0  0  0  0  0  0  0
   10.1641   13.4676   21.9097 C   0  0  0  0  0  0  0  0  0  0  0  0
    9.4777   13.8246   23.1712 C   0  0  2  0  0  0  0  0  0  0  0  0
    8.4602   12.9608   23.6285 O   0  0  0  0  0  0  0  0  0  0  0  0
    7.1788   13.1443   23.2778 C   0  0  0  0  0  0  0  0  0  0  0  0
    6.8003   13.3173   22.1286 O   0  0  0  0  0  0  0  0  0  0  0  0
    6.2503   13.0013   24.4745 C   0  0  0  0  0  0  0  0  0  0  0  0
    6.7106   11.8821   25.4229 C   0  0  0  0  0  0  0  0  0  0  0  0
    7.6911   12.3536   26.5011 C   0  0  0  0  0  0  0  0  0  0  0  0
    8.3053   13.6206   26.0837 N   0  0  0  0  0  0  0  0  0  0  0  0
    9.7489   14.1480   26.7240 S   0  0  0  0  0  0  0  0  0  0  0  0
    9.4889   14.4713   28.1030 O   0  0  0  0  0  0  0  0  0  0  0  0
   10.2972   15.1545   25.8479 O   0  0  0  0  0  0  0  0  0  0  0  0
   10.8727   12.8664   26.7243 N   0  0  0  0  0  0  0  0  0  0  0  0
   12.1372   13.4136   27.3513 C   0  0  0  0  0  0  0  0  0  0  0  0
   13.3569   12.5437   27.0901 C   0  0  0  0  0  0  0  0  0  0  0  0
   13.6129   12.3364   25.6045 C   0  0  0  0  0  0  0  0  0  0  0  0
   12.3840   12.7233   24.7876 C   0  0  0  0  0  0  0  0  0  0  0  0
   11.1522   12.1430   25.4573 C   0  0  0  0  0  0  0  0  0  0  0  0
    7.2821   14.7137   26.0562 C   0  0  0  0  0  0  0  0  0  0  0  0
    6.0821   14.3278   25.2006 C   0  0  0  0  0  0  0  0  0  0  0  0
  1  2  1  0
  2  3  1  0
  3  4  2  0
  5  3  1  6
  5  6  1  0
  6  7  1  0
  8  7  1  6
  8  9  1  0
  9 10  1  6
 10 11  1  0
 11 12  1  0
 12 13  1  6
 13 14  1  0
 14 15  2  0
 14 16  1  0
 16 17  1  0
 17 18  1  0
 18 19  1  0
 19 20  1  0
 20 21  2  0
 20 22  2  0
 20 23  1  0
 23 24  1  0
 24 25  1  0
 25 26  1  0
 26 27  1  0
 27 28  1  0
 19 29  1  0
 29 30  1  0
  9  5  1  0
 30 16  1  0
 12  8  1  0
 28 23  1  0
M  END
>  <energy_score>  (1202) 
-25.16215

>  <inchikey>  (1202) 
None

>  <smiles>  (1202) 
None

>  <ref_pdb>  (1202) 
A4706a

>  <alias>  (1202) 
None

>  <HIPPO Pose ID>  (1202) 
500528

>  <name>  (1202) 
P500528

>  <HIPPO Compound ID>  (1202) 
314893

>  <ref_mols>  (1202) 
A4706a,A0875a

>  <distance_score>  (1202) 
1.597848

>  <inspiration_score>  (1202) 
None

$$$$
P500534
     RDKit          3D

 30 32  0  0  0  0  0  0  0  0999 V2000
    8.4767   18.5236   20.9994 C   0  0  0  0  0  0  0  0  0  0  0  0
    8.1297   17.1511   20.9657 O   0  0  0  0  0  0  0  0  0  0  0  0
    7.4635   16.5306   21.9715 C   0  0  0  0  0  0  0  0  0  0  0  0
    6.7412   17.0084   22.8359 O   0  0  0  0  0  0  0  0  0  0  0  0
    7.8443   15.0565   21.9435 C   0  0  2  0  0  0  0  0  0  0  0  0
    6.9737   14.2091   21.0768 C   0  0  0  0  0  0  0  0  0  0  0  0
    7.6098   14.5112   23.2457 O   0  0  0  0  0  0  0  0  0  0  0  0
    6.3255   14.3631   23.7347 C   0  0  0  0  0  0  0  0  0  0  0  0
    5.2567   14.4937   23.1692 O   0  0  0  0  0  0  0  0  0  0  0  0
    6.4979   13.9442   25.1382 C   0  0  0  0  0  0  0  0  0  0  0  0
    6.2828   12.5244   25.5846 C   0  0  0  0  0  0  0  0  0  0  0  0
    7.2286   12.3108   26.7803 C   0  0  0  0  0  0  0  0  0  0  0  0
    7.8363   13.5960   27.2742 N   0  0  0  0  0  0  0  0  0  0  0  0
    9.3108   14.2934   26.7735 S   0  0  0  0  0  0  0  0  0  0  0  0
    9.1208   15.2307   25.6906 O   0  0  0  0  0  0  0  0  0  0  0  0
    9.9284   14.7737   27.9839 O   0  0  0  0  0  0  0  0  0  0  0  0
   10.3256   13.1016   26.1815 N   0  0  0  0  0  0  0  0  0  0  0  0
    9.9675   12.3605   24.9649 C   0  0  0  0  0  0  0  0  0  0  0  0
   10.7701   11.0716   25.0326 C   0  0  0  0  0  0  0  0  0  0  0  0
   12.2513   11.3630   25.4214 C   0  0  0  0  0  0  0  0  0  0  0  0
   12.6120   12.8033   25.1599 C   0  0  0  0  0  0  0  0  0  0  0  0
   11.7183   13.6661   26.0474 C   0  0  0  0  0  0  0  0  0  0  0  0
    6.7640   14.6144   27.5127 C   0  0  0  0  0  0  0  0  0  0  0  0
    6.1117   14.9796   26.1769 C   0  0  0  0  0  0  0  0  0  0  0  0
    9.3393   14.9299   21.5569 C   0  0  0  0  0  0  0  0  0  0  0  0
    9.7546   14.9703   20.2045 C   0  0  0  0  0  0  0  0  0  0  0  0
   11.0848   14.9947   19.8343 C   0  0  0  0  0  0  0  0  0  0  0  0
   12.0302   15.0559   20.8358 C   0  0  0  0  0  0  0  0  0  0  0  0
   11.6696   15.0642   22.1755 C   0  0  0  0  0  0  0  0  0  0  0  0
   10.3328   15.0207   22.5305 C   0  0  0  0  0  0  0  0  0  0  0  0
  1  2  1  0
  2  3  1  0
  3  4  2  0
  3  5  1  0
  5  6  1  6
  5  7  1  0
  7  8  1  0
  8  9  2  0
  8 10  1  0
 10 11  1  0
 11 12  1  0
 12 13  1  0
 13 14  1  0
 14 15  2  0
 14 16  2  0
 14 17  1  0
 17 18  1  0
 18 19  1  0
 19 20  1  0
 20 21  1  0
 21 22  1  0
 13 23  1  0
 23 24  1  0
  5 25  1  0
 25 26  2  0
 26 27  1  0
 27 28  2  0
 28 29  1  0
 29 30  2  0
 24 10  1  0
 30 25  1  0
 22 17  1  0
M  END
>  <energy_score>  (1203) 
-1.239608

>  <inchikey>  (1203) 
None

>  <smiles>  (1203) 
None

>  <ref_pdb>  (1203) 
A4706a

>  <alias>  (1203) 
None

>  <HIPPO Pose ID>  (1203) 
500534

>  <name>  (1203) 
P500534

>  <HIPPO Compound ID>  (1203) 
314894

>  <ref_mols>  (1203) 
A0875a,A4706a

>  <distance_score>  (1203) 
1.606533

>  <inspiration_score>  (1203) 
None

$$$$
P500537
     RDKit          3D

 30 32  0  0  0  0  0  0  0  0999 V2000
    8.7730   17.9270   20.8817 C   0  0  0  0  0  0  0  0  0  0  0  0
    7.8043   17.4174   21.8117 O   0  0  0  0  0  0  0  0  0  0  0  0
    7.2081   16.2380   21.9972 C   0  0  0  0  0  0  0  0  0  0  0  0
    6.1483   16.1850   22.6353 O   0  0  0  0  0  0  0  0  0  0  0  0
    7.8578   14.9511   21.5428 C   0  0  2  0  0  0  0  0  0  0  0  0
    7.8583   14.1702   22.7906 O   0  0  0  0  0  0  0  0  0  0  0  0
    6.7509   13.4757   23.0970 C   0  0  0  0  0  0  0  0  0  0  0  0
    5.9689   13.0610   22.2540 O   0  0  0  0  0  0  0  0  0  0  0  0
    6.6370   13.1712   24.5835 C   0  0  0  0  0  0  0  0  0  0  0  0
    7.3816   11.8777   24.9362 C   0  0  0  0  0  0  0  0  0  0  0  0
    8.8610   12.1288   25.1677 C   0  0  0  0  0  0  0  0  0  0  0  0
    9.0858   13.0764   26.2684 N   0  0  0  0  0  0  0  0  0  0  0  0
   10.5239   13.9494   26.3122 S   0  0  0  0  0  0  0  0  0  0  0  0
   10.5166   14.6254   27.5825 O   0  0  0  0  0  0  0  0  0  0  0  0
   10.6750   14.6982   25.0879 O   0  0  0  0  0  0  0  0  0  0  0  0
   11.7552   12.7598   26.3557 N   0  0  0  0  0  0  0  0  0  0  0  0
   12.8584   13.0031   27.3441 C   0  0  0  0  0  0  0  0  0  0  0  0
   14.2716   12.7685   26.8094 C   0  0  0  0  0  0  0  0  0  0  0  0
   14.4149   11.4289   26.1664 C   0  0  0  0  0  0  0  0  0  0  0  0
   13.2906   11.2243   25.1840 C   0  0  0  0  0  0  0  0  0  0  0  0
   12.2722   12.3581   25.0427 C   0  0  0  0  0  0  0  0  0  0  0  0
    7.8674   13.8549   26.6805 C   0  0  0  0  0  0  0  0  0  0  0  0
    7.0815   14.3408   25.4731 C   0  0  0  0  0  0  0  0  0  0  0  0
    9.2875   15.0155   21.1003 C   0  0  0  0  0  0  0  0  0  0  0  0
    9.7156   15.0733   19.7706 C   0  0  0  0  0  0  0  0  0  0  0  0
   11.0638   15.0157   19.4609 C   0  0  0  0  0  0  0  0  0  0  0  0
   11.9844   14.9480   20.4979 C   0  0  0  0  0  0  0  0  0  0  0  0
   11.5720   14.9717   21.8135 C   0  0  0  0  0  0  0  0  0  0  0  0
   12.4416   14.9128   22.8454 O   0  0  0  0  0  0  0  0  0  0  0  0
   10.2409   15.0474   22.1025 C   0  0  0  0  0  0  0  0  0  0  0  0
  1  2  1  0
  2  3  1  0
  3  4  2  0
  3  5  1  0
  5  6  1  1
  6  7  1  0
  7  8  2  0
  7  9  1  0
  9 10  1  0
 10 11  1  0
 11 12  1  0
 12 13  1  0
 13 14  2  0
 13 15  2  0
 13 16  1  0
 16 17  1  0
 17 18  1  0
 18 19  1  0
 19 20  1  0
 20 21  1  0
 12 22  1  0
 22 23  1  0
  5 24  1  0
 24 25  2  0
 25 26  1  0
 26 27  2  0
 27 28  1  0
 28 29  1  0
 28 30  2  0
 23  9  1  0
 30 24  1  0
 21 16  1  0
M  END
>  <energy_score>  (1204) 
-61.731746

>  <inchikey>  (1204) 
None

>  <smiles>  (1204) 
None

>  <ref_pdb>  (1204) 
A4706a

>  <alias>  (1204) 
None

>  <HIPPO Pose ID>  (1204) 
500537

>  <name>  (1204) 
P500537

>  <HIPPO Compound ID>  (1204) 
314902

>  <ref_mols>  (1204) 
A4706a,A0875a

>  <distance_score>  (1204) 
1.672323

>  <inspiration_score>  (1204) 
None

$$$$
P500538
     RDKit          3D

 30 33  0  0  0  0  0  0  0  0999 V2000
    6.6760   12.9464   22.3391 O   0  0  0  0  0  0  0  0  0  0  0  0
    6.7021   13.9826   23.0026 C   0  0  0  0  0  0  0  0  0  0  0  0
    7.2835   15.1291   22.5541 O   0  0  0  0  0  0  0  0  0  0  0  0
    8.0936   14.9154   21.3629 C   0  0  0  0  0  0  0  0  0  0  0  0
    8.7714   16.2134   20.8542 C   0  0  2  0  0  0  0  0  0  0  0  0
    9.5051   16.1115   19.4895 C   0  0  0  0  0  0  0  0  0  0  0  0
   10.7178   15.3899   19.4552 O   0  0  0  0  0  0  0  0  0  0  0  0
   11.1579   15.1765   20.7106 C   0  0  0  0  0  0  0  0  0  0  0  0
   11.8679   14.0507   20.9057 C   0  0  0  0  0  0  0  0  0  0  0  0
   12.3342   13.3699   19.8506 F   0  0  0  0  0  0  0  0  0  0  0  0
   12.0262   13.5963   22.1961 C   0  0  0  0  0  0  0  0  0  0  0  0
   11.8669   14.4318   23.2712 C   0  0  0  0  0  0  0  0  0  0  0  0
   11.2106   15.6091   23.0819 C   0  0  0  0  0  0  0  0  0  0  0  0
   10.7556   15.8873   21.8239 C   0  0  0  0  0  0  0  0  0  0  0  0
    9.7151   16.7443   21.7659 O   0  0  0  0  0  0  0  0  0  0  0  0
    6.0206   14.0595   24.3757 C   0  0  0  0  0  0  0  0  0  0  0  0
    6.0553   12.6759   25.0700 C   0  0  0  0  0  0  0  0  0  0  0  0
    7.3852   12.2927   25.7276 C   0  0  0  0  0  0  0  0  0  0  0  0
    8.0661   13.4650   26.3404 N   0  0  0  0  0  0  0  0  0  0  0  0
    9.4086   14.0518   25.4943 S   0  0  0  0  0  0  0  0  0  0  0  0
    9.6588   15.3782   25.9981 O   0  0  0  0  0  0  0  0  0  0  0  0
    9.1650   13.7890   24.1030 O   0  0  0  0  0  0  0  0  0  0  0  0
   10.6883   13.0995   25.9764 N   0  0  0  0  0  0  0  0  0  0  0  0
   11.6362   13.6821   26.9337 C   0  0  0  0  0  0  0  0  0  0  0  0
   13.0630   13.2036   26.7389 C   0  0  0  0  0  0  0  0  0  0  0  0
   13.1695   11.7371   26.6522 C   0  0  0  0  0  0  0  0  0  0  0  0
   12.3526   11.3104   25.4495 C   0  0  0  0  0  0  0  0  0  0  0  0
   10.8998   11.7927   25.3638 C   0  0  0  0  0  0  0  0  0  0  0  0
    7.0817   14.5514   26.6486 C   0  0  0  0  0  0  0  0  0  0  0  0
    6.5019   15.1394   25.3530 C   0  0  0  0  0  0  0  0  0  0  0  0
  1  2  2  0
  2  3  1  0
  3  4  1  0
  5  4  1  1
  5  6  1  0
  6  7  1  0
  7  8  1  0
  8  9  2  0
  9 10  1  0
  9 11  1  0
 11 12  2  0
 12 13  1  0
 13 14  2  0
 14 15  1  0
  2 16  1  0
 16 17  1  0
 17 18  1  0
 18 19  1  0
 19 20  1  0
 20 21  2  0
 20 22  2  0
 20 23  1  0
 23 24  1  0
 24 25  1  0
 25 26  1  0
 26 27  1  0
 27 28  1  0
 19 29  1  0
 29 30  1  0
 15  5  1  0
 30 16  1  0
 14  8  1  0
 28 23  1  0
M  END
>  <energy_score>  (1205) 
-22.386822

>  <inchikey>  (1205) 
None

>  <smiles>  (1205) 
None

>  <ref_pdb>  (1205) 
A4706a

>  <alias>  (1205) 
None

>  <HIPPO Pose ID>  (1205) 
500538

>  <name>  (1205) 
P500538

>  <HIPPO Compound ID>  (1205) 
314903

>  <ref_mols>  (1205) 
A4706a,A0875a

>  <distance_score>  (1205) 
1.600239

>  <inspiration_score>  (1205) 
None

$$$$
P500539
     RDKit          3D

 31 33  0  0  0  0  0  0  0  0999 V2000
    4.2265   13.6880   21.1028 C   0  0  0  0  0  0  0  0  0  0  0  0
    5.2373   14.6963   21.2119 O   0  0  0  0  0  0  0  0  0  0  0  0
    6.4661   14.3118   21.6558 C   0  0  0  0  0  0  0  0  0  0  0  0
    6.7903   13.1395   21.8307 O   0  0  0  0  0  0  0  0  0  0  0  0
    7.3487   15.5218   22.0117 C   0  0  1  0  0  0  0  0  0  0  0  0
    7.2144   15.5090   23.4709 O   0  0  0  0  0  0  0  0  0  0  0  0
    5.9592   15.5678   23.9983 C   0  0  0  0  0  0  0  0  0  0  0  0
    5.0207   16.1799   23.5085 O   0  0  0  0  0  0  0  0  0  0  0  0
    5.8239   14.6794   25.2338 C   0  0  0  0  0  0  0  0  0  0  0  0
    6.3177   13.2458   24.9161 C   0  0  0  0  0  0  0  0  0  0  0  0
    6.8469   12.4598   26.0975 C   0  0  0  0  0  0  0  0  0  0  0  0
    7.7360   13.2967   26.9139 N   0  0  0  0  0  0  0  0  0  0  0  0
    9.2461   13.8085   26.3505 S   0  0  0  0  0  0  0  0  0  0  0  0
    9.0544   14.6005   25.1752 O   0  0  0  0  0  0  0  0  0  0  0  0
    9.9280   14.3670   27.4917 O   0  0  0  0  0  0  0  0  0  0  0  0
   10.0721   12.4248   25.8948 N   0  0  0  0  0  0  0  0  0  0  0  0
   11.5321   12.5465   26.1647 C   0  0  0  0  0  0  0  0  0  0  0  0
   12.3218   11.4418   25.4808 C   0  0  0  0  0  0  0  0  0  0  0  0
   11.4794   10.1727   25.1974 C   0  0  0  0  0  0  0  0  0  0  0  0
   10.1286   10.4313   24.5369 C   0  0  0  0  0  0  0  0  0  0  0  0
    9.8019   11.9077   24.5287 C   0  0  0  0  0  0  0  0  0  0  0  0
    6.9406   14.4053   27.5145 C   0  0  0  0  0  0  0  0  0  0  0  0
    6.4680   15.3713   26.4366 C   0  0  0  0  0  0  0  0  0  0  0  0
    8.8264   15.3434   21.5849 C   0  0  0  0  0  0  0  0  0  0  0  0
    9.2740   15.1501   20.2732 C   0  0  0  0  0  0  0  0  0  0  0  0
   10.6254   14.9515   19.9656 C   0  0  0  0  0  0  0  0  0  0  0  0
   11.1739   14.7232   18.3804 Cl  0  0  0  0  0  0  0  0  0  0  0  0
   11.5632   14.8530   20.9562 C   0  0  0  0  0  0  0  0  0  0  0  0
   11.1370   14.9838   22.2460 C   0  0  0  0  0  0  0  0  0  0  0  0
   12.1496   14.4781   23.4967 Cl  0  0  0  0  0  0  0  0  0  0  0  0
    9.8363   15.3572   22.5349 C   0  0  0  0  0  0  0  0  0  0  0  0
  1  2  1  0
  2  3  1  0
  3  4  2  0
  3  5  1  0
  5  6  1  1
  6  7  1  0
  7  8  2  0
  7  9  1  0
  9 10  1  0
 10 11  1  0
 11 12  1  0
 12 13  1  0
 13 14  2  0
 13 15  2  0
 13 16  1  0
 16 17  1  0
 17 18  1  0
 18 19  1  0
 19 20  1  0
 20 21  1  0
 12 22  1  0
 22 23  1  0
  5 24  1  0
 24 25  2  0
 25 26  1  0
 26 27  1  0
 26 28  2  0
 28 29  1  0
 29 30  1  0
 29 31  2  0
 23  9  1  0
 31 24  1  0
 21 16  1  0
M  END
>  <energy_score>  (1206) 
-21.783988

>  <inchikey>  (1206) 
None

>  <smiles>  (1206) 
None

>  <ref_pdb>  (1206) 
A4706a

>  <alias>  (1206) 
None

>  <HIPPO Pose ID>  (1206) 
500539

>  <name>  (1206) 
P500539

>  <HIPPO Compound ID>  (1206) 
314909

>  <ref_mols>  (1206) 
A4706a,A0875a

>  <distance_score>  (1206) 
1.979356

>  <inspiration_score>  (1206) 
None

$$$$
P500540
     RDKit          3D

 31 33  0  0  0  0  0  0  0  0999 V2000
    5.6429   15.6278   22.3572 O   0  0  0  0  0  0  0  0  0  0  0  0
    6.6440   15.3669   22.9954 C   0  0  0  0  0  0  0  0  0  0  0  0
    7.9553   15.6177   22.6732 O   0  0  0  0  0  0  0  0  0  0  0  0
    8.3092   15.9639   21.3410 C   0  0  1  0  0  0  0  0  0  0  0  0
    8.5489   17.4627   21.2076 C   0  0  0  0  0  0  0  0  0  0  0  0
    8.7016   17.9017   19.8758 O   0  0  0  0  0  0  0  0  0  0  0  0
    8.0775   19.1376   19.6795 C   0  0  0  0  0  0  0  0  0  0  0  0
    8.1297   19.9120   20.7635 F   0  0  0  0  0  0  0  0  0  0  0  0
    8.6871   19.7430   18.6588 F   0  0  0  0  0  0  0  0  0  0  0  0
    6.8362   18.9033   19.2881 F   0  0  0  0  0  0  0  0  0  0  0  0
    9.6206   15.3379   20.9341 C   0  0  0  0  0  0  0  0  0  0  0  0
    9.8675   15.1314   19.5668 C   0  0  0  0  0  0  0  0  0  0  0  0
   11.1159   14.7816   19.1183 C   0  0  0  0  0  0  0  0  0  0  0  0
   12.1269   14.6787   20.0492 C   0  0  0  0  0  0  0  0  0  0  0  0
   11.9198   14.9240   21.4071 C   0  0  0  0  0  0  0  0  0  0  0  0
   10.6624   15.2414   21.8524 C   0  0  0  0  0  0  0  0  0  0  0  0
    6.7281   14.5970   24.2822 C   0  0  0  0  0  0  0  0  0  0  0  0
    6.9177   13.1119   23.9327 C   0  0  0  0  0  0  0  0  0  0  0  0
    7.2855   12.2616   25.1416 C   0  0  0  0  0  0  0  0  0  0  0  0
    7.8184   13.1338   26.2043 N   0  0  0  0  0  0  0  0  0  0  0  0
    9.3272   13.8963   25.9059 S   0  0  0  0  0  0  0  0  0  0  0  0
    9.5501   14.1219   24.5019 O   0  0  0  0  0  0  0  0  0  0  0  0
    9.4171   14.9836   26.8420 O   0  0  0  0  0  0  0  0  0  0  0  0
   10.4675   12.7543   26.3339 N   0  0  0  0  0  0  0  0  0  0  0  0
   11.7849   13.3692   26.6964 C   0  0  0  0  0  0  0  0  0  0  0  0
   12.8166   13.3178   25.5778 C   0  0  0  0  0  0  0  0  0  0  0  0
   12.8494   12.0530   24.7823 C   0  0  0  0  0  0  0  0  0  0  0  0
   11.9608   11.0544   25.4395 C   0  0  0  0  0  0  0  0  0  0  0  0
   10.5483   11.5876   25.4167 C   0  0  0  0  0  0  0  0  0  0  0  0
    6.6916   14.0636   26.6860 C   0  0  0  0  0  0  0  0  0  0  0  0
    5.8716   14.6911   25.5148 C   0  0  0  0  0  0  0  0  0  0  0  0
  1  2  2  0
  2  3  1  0
  3  4  1  0
  4  5  1  1
  5  6  1  0
  6  7  1  0
  7  8  1  0
  7  9  1  0
  7 10  1  0
  4 11  1  0
 11 12  2  0
 12 13  1  0
 13 14  2  0
 14 15  1  0
 15 16  2  0
  2 17  1  0
 17 18  1  0
 18 19  1  0
 19 20  1  0
 20 21  1  0
 21 22  2  0
 21 23  2  0
 21 24  1  0
 24 25  1  0
 25 26  1  0
 26 27  1  0
 27 28  1  0
 28 29  1  0
 20 30  1  0
 30 31  1  0
 16 11  1  0
 31 17  1  0
 29 24  1  0
M  END
>  <energy_score>  (1207) 
-4.248288

>  <inchikey>  (1207) 
None

>  <smiles>  (1207) 
None

>  <ref_pdb>  (1207) 
A4706a

>  <alias>  (1207) 
None

>  <HIPPO Pose ID>  (1207) 
500540

>  <name>  (1207) 
P500540

>  <HIPPO Compound ID>  (1207) 
314911

>  <ref_mols>  (1207) 
A4706a,A0875a

>  <distance_score>  (1207) 
1.590939

>  <inspiration_score>  (1207) 
None

$$$$
P500541
     RDKit          3D

 31 34  0  0  0  0  0  0  0  0999 V2000
   14.9218   10.3970   26.2944 O   0  0  0  0  0  0  0  0  0  0  0  0
   14.9314   11.5951   26.5333 C   0  0  0  0  0  0  0  0  0  0  0  0
   15.8744   12.2623   27.2395 O   0  0  0  0  0  0  0  0  0  0  0  0
   16.6920   11.4589   28.1020 C   0  0  1  0  0  0  0  0  0  0  0  0
   18.0622   12.0937   28.3306 C   0  0  0  0  0  0  0  0  0  0  0  0
   18.4760   11.6585   29.7389 C   0  0  0  0  0  0  0  0  0  0  0  0
   17.2551   10.9675   30.3560 C   0  0  0  0  0  0  0  0  0  0  0  0
   16.0788   11.4422   29.5129 C   0  0  1  0  0  0  0  0  0  0  0  0
   15.7475   12.7989   29.8397 O   0  0  0  0  0  0  0  0  0  0  0  0
   14.8394   13.0689   30.8145 C   0  0  0  0  0  0  0  0  0  0  0  0
   14.1411   12.1430   31.5875 C   0  0  0  0  0  0  0  0  0  0  0  0
   13.2224   12.5868   32.5472 C   0  0  0  0  0  0  0  0  0  0  0  0
   13.0071   13.9524   32.7370 C   0  0  0  0  0  0  0  0  0  0  0  0
   13.7167   14.8647   31.9683 C   0  0  0  0  0  0  0  0  0  0  0  0
   13.5336   16.1811   32.1447 F   0  0  0  0  0  0  0  0  0  0  0  0
   14.6256   14.4338   31.0129 C   0  0  0  0  0  0  0  0  0  0  0  0
   13.8233   12.5273   26.1156 C   0  0  0  0  0  0  0  0  0  0  0  0
   12.9871   12.9332   27.3119 C   0  0  0  0  0  0  0  0  0  0  0  0
   11.7063   13.6911   26.9601 C   0  0  0  0  0  0  0  0  0  0  0  0
   10.9644   13.1105   25.8054 N   0  0  0  0  0  0  0  0  0  0  0  0
    9.6089   14.0688   25.3838 S   0  0  0  0  0  0  0  0  0  0  0  0
    9.2631   13.8342   24.0054 O   0  0  0  0  0  0  0  0  0  0  0  0
    9.8516   15.3997   25.8798 O   0  0  0  0  0  0  0  0  0  0  0  0
    8.4510   13.3580   26.3850 N   0  0  0  0  0  0  0  0  0  0  0  0
    8.0377   11.9742   26.0671 C   0  0  0  0  0  0  0  0  0  0  0  0
    7.0342   11.9312   24.9326 C   0  0  0  0  0  0  0  0  0  0  0  0
    5.8716   12.8935   25.1353 C   0  0  0  0  0  0  0  0  0  0  0  0
    6.3272   14.2909   25.5329 C   0  0  0  0  0  0  0  0  0  0  0  0
    7.2855   14.2225   26.7112 C   0  0  0  0  0  0  0  0  0  0  0  0
   11.8255   12.8038   24.6482 C   0  0  0  0  0  0  0  0  0  0  0  0
   12.9061   11.8456   25.1233 C   0  0  0  0  0  0  0  0  0  0  0  0
  1  2  2  0
  2  3  1  0
  4  3  1  6
  4  5  1  0
  5  6  1  0
  6  7  1  0
  7  8  1  0
  8  9  1  1
  9 10  1  0
 10 11  2  0
 11 12  1  0
 12 13  2  0
 13 14  1  0
 14 15  1  0
 14 16  2  0
  2 17  1  0
 17 18  1  0
 18 19  1  0
 19 20  1  0
 20 21  1  0
 21 22  2  0
 21 23  2  0
 21 24  1  0
 24 25  1  0
 25 26  1  0
 26 27  1  0
 27 28  1  0
 28 29  1  0
 20 30  1  0
 30 31  1  0
  8  4  1  0
 16 10  1  0
 31 17  1  0
 29 24  1  0
M  END
>  <energy_score>  (1208) 
-65.792382

>  <inchikey>  (1208) 
None

>  <smiles>  (1208) 
None

>  <ref_pdb>  (1208) 
A4706a

>  <alias>  (1208) 
None

>  <HIPPO Pose ID>  (1208) 
500541

>  <name>  (1208) 
P500541

>  <HIPPO Compound ID>  (1208) 
314922

>  <ref_mols>  (1208) 
A0875a,A4706a

>  <distance_score>  (1208) 
1.938677

>  <inspiration_score>  (1208) 
None

$$$$
P500542
     RDKit          3D

 31 33  0  0  0  0  0  0  0  0999 V2000
    4.1865   13.4868   20.7347 C   0  0  0  0  0  0  0  0  0  0  0  0
    5.4853   13.8558   21.2184 O   0  0  0  0  0  0  0  0  0  0  0  0
    5.5382   15.0762   21.8148 C   0  0  0  0  0  0  0  0  0  0  0  0
    4.5675   15.8290   21.8524 O   0  0  0  0  0  0  0  0  0  0  0  0
    6.8684   15.3743   22.5232 C   0  0  1  0  0  0  0  0  0  0  0  0
    6.6739   14.8436   23.8481 O   0  0  0  0  0  0  0  0  0  0  0  0
    6.4850   13.5059   23.9386 C   0  0  0  0  0  0  0  0  0  0  0  0
    6.9433   12.6873   23.1511 O   0  0  0  0  0  0  0  0  0  0  0  0
    5.5491   13.1281   25.0824 C   0  0  0  0  0  0  0  0  0  0  0  0
    6.1507   11.9445   25.8575 C   0  0  0  0  0  0  0  0  0  0  0  0
    7.1900   12.4113   26.8773 C   0  0  0  0  0  0  0  0  0  0  0  0
    7.6192   13.7574   26.4821 N   0  0  0  0  0  0  0  0  0  0  0  0
    9.1438   14.3491   26.7604 S   0  0  0  0  0  0  0  0  0  0  0  0
    9.3851   15.3958   25.8012 O   0  0  0  0  0  0  0  0  0  0  0  0
    9.2584   14.6077   28.1707 O   0  0  0  0  0  0  0  0  0  0  0  0
   10.1938   13.0868   26.4026 N   0  0  0  0  0  0  0  0  0  0  0  0
   11.5974   13.5658   26.5942 C   0  0  0  0  0  0  0  0  0  0  0  0
   12.6109   12.4559   26.4234 C   0  0  0  0  0  0  0  0  0  0  0  0
   12.3259   11.6010   25.2094 C   0  0  0  0  0  0  0  0  0  0  0  0
   10.8405   11.2557   24.9910 C   0  0  0  0  0  0  0  0  0  0  0  0
    9.9855   12.4848   25.0782 C   0  0  0  0  0  0  0  0  0  0  0  0
    6.5488   14.7585   26.7327 C   0  0  0  0  0  0  0  0  0  0  0  0
    5.2710   14.2872   26.0443 C   0  0  0  0  0  0  0  0  0  0  0  0
    8.2290   15.0934   21.8908 C   0  0  0  0  0  0  0  0  0  0  0  0
    8.4086   14.8549   20.5471 C   0  0  0  0  0  0  0  0  0  0  0  0
    9.6291   14.9291   19.8758 C   0  0  0  0  0  0  0  0  0  0  0  0
   10.7783   14.9328   20.6102 C   0  0  0  0  0  0  0  0  0  0  0  0
   12.0599   14.7107   19.8944 C   0  0  0  0  0  0  0  0  0  0  0  0
   10.6404   14.9988   21.9855 C   0  0  0  0  0  0  0  0  0  0  0  0
   12.0886   14.6793   23.0812 Br  0  0  0  0  0  0  0  0  0  0  0  0
    9.4050   15.1887   22.6027 C   0  0  0  0  0  0  0  0  0  0  0  0
  1  2  1  0
  2  3  1  0
  3  4  2  0
  3  5  1  0
  5  6  1  1
  6  7  1  0
  7  8  2  0
  7  9  1  0
  9 10  1  0
 10 11  1  0
 11 12  1  0
 12 13  1  0
 13 14  2  0
 13 15  2  0
 13 16  1  0
 16 17  1  0
 17 18  1  0
 18 19  1  0
 19 20  1  0
 20 21  1  0
 12 22  1  0
 22 23  1  0
  5 24  1  0
 24 25  2  0
 25 26  1  0
 26 27  2  0
 27 28  1  0
 27 29  1  0
 29 30  1  0
 29 31  2  0
 23  9  1  0
 31 24  1  0
 21 16  1  0
M  END
>  <energy_score>  (1209) 
-30.75667

>  <inchikey>  (1209) 
None

>  <smiles>  (1209) 
None

>  <ref_pdb>  (1209) 
A4706a

>  <alias>  (1209) 
None

>  <HIPPO Pose ID>  (1209) 
500542

>  <name>  (1209) 
P500542

>  <HIPPO Compound ID>  (1209) 
314930

>  <ref_mols>  (1209) 
A4706a,A0875a

>  <distance_score>  (1209) 
1.87942

>  <inspiration_score>  (1209) 
None

$$$$
P500543
     RDKit          3D

 31 34  0  0  0  0  0  0  0  0999 V2000
   14.0713    9.3725   32.0338 C   0  0  0  0  0  0  0  0  0  0  0  0
   14.4127   10.7316   31.7845 O   0  0  0  0  0  0  0  0  0  0  0  0
   15.5841   10.8318   30.9744 C   0  0  1  0  0  0  0  0  0  0  0  0
   15.2067   10.6253   29.5992 O   0  0  0  0  0  0  0  0  0  0  0  0
   15.3276   11.8759   28.9064 C   0  0  1  0  0  0  0  0  0  0  0  0
   14.1311   12.1238   27.9914 C   0  0  0  0  0  0  0  0  0  0  0  0
   14.1533   11.1983   26.8871 O   0  0  0  0  0  0  0  0  0  0  0  0
   13.6789   11.5861   25.6878 C   0  0  0  0  0  0  0  0  0  0  0  0
   14.2998   11.3433   24.6628 O   0  0  0  0  0  0  0  0  0  0  0  0
   12.3480   12.2912   25.6629 C   0  0  0  0  0  0  0  0  0  0  0  0
   12.4973   13.4321   24.6648 C   0  0  0  0  0  0  0  0  0  0  0  0
   11.3070   14.3462   24.7695 C   0  0  0  0  0  0  0  0  0  0  0  0
   10.1180   13.5158   25.0152 N   0  0  0  0  0  0  0  0  0  0  0  0
    8.7282   14.3724   25.1871 S   0  0  0  0  0  0  0  0  0  0  0  0
    8.0596   14.3495   23.9147 O   0  0  0  0  0  0  0  0  0  0  0  0
    9.1104   15.6103   25.8233 O   0  0  0  0  0  0  0  0  0  0  0  0
    7.8574   13.5636   26.3794 N   0  0  0  0  0  0  0  0  0  0  0  0
    7.4420   12.1695   26.2295 C   0  0  0  0  0  0  0  0  0  0  0  0
    6.3910   12.0388   25.1548 C   0  0  0  0  0  0  0  0  0  0  0  0
    5.4113   13.2090   25.1406 C   0  0  0  0  0  0  0  0  0  0  0  0
    5.3701   13.9151   26.4872 C   0  0  0  0  0  0  0  0  0  0  0  0
    6.7446   14.3971   26.9451 C   0  0  0  0  0  0  0  0  0  0  0  0
   10.1807   12.2244   24.3182 C   0  0  0  0  0  0  0  0  0  0  0  0
   11.1088   11.4489   25.2556 C   0  0  0  0  0  0  0  0  0  0  0  0
   15.4194   12.9552   29.9775 C   0  0  2  0  0  0  0  0  0  0  0  0
   16.2692   14.0208   29.5719 O   0  0  0  0  0  0  0  0  0  0  0  0
   17.5698   13.6919   30.1061 C   0  0  0  0  0  0  0  0  0  0  0  0
   17.9554   14.7553   31.1313 C   0  0  0  0  0  0  0  0  0  0  0  0
   18.5942   13.6290   28.9811 C   0  0  0  0  0  0  0  0  0  0  0  0
   17.4992   12.4058   30.7442 O   0  0  0  0  0  0  0  0  0  0  0  0
   16.1201   12.2536   31.0957 C   0  0  2  0  0  0  0  0  0  0  0  0
  1  2  1  0
  3  2  1  1
  3  4  1  0
  4  5  1  0
  5  6  1  6
  6  7  1  0
  7  8  1  0
  8  9  2  0
  8 10  1  0
 10 11  1  0
 11 12  1  0
 12 13  1  0
 13 14  1  0
 14 15  2  0
 14 16  2  0
 14 17  1  0
 17 18  1  0
 18 19  1  0
 19 20  1  0
 20 21  1  0
 21 22  1  0
 13 23  1  0
 23 24  1  0
  5 25  1  0
 25 26  1  6
 26 27  1  0
 27 28  1  0
 27 29  1  0
 27 30  1  0
 31 30  1  6
 31  3  1  0
 24 10  1  0
 31 25  1  0
 22 17  1  0
M  END
>  <energy_score>  (1210) 
-51.923666

>  <inchikey>  (1210) 
None

>  <smiles>  (1210) 
None

>  <ref_pdb>  (1210) 
A4706a

>  <alias>  (1210) 
None

>  <HIPPO Pose ID>  (1210) 
500543

>  <name>  (1210) 
P500543

>  <HIPPO Compound ID>  (1210) 
314938

>  <ref_mols>  (1210) 
A4706a,A0875a

>  <distance_score>  (1210) 
1.807841

>  <inspiration_score>  (1210) 
None

$$$$
P500546
     RDKit          3D

 31 33  0  0  0  0  0  0  0  0999 V2000
   10.2744   12.7294   22.5665 N   0  0  0  0  0  0  0  0  0  0  0  0
    9.1919   13.0705   22.5177 N   0  0  0  0  0  0  0  0  0  0  0  0
    7.9820   13.3498   22.4512 N   0  0  0  0  0  0  0  0  0  0  0  0
    7.5885   14.2761   21.3793 C   0  0  0  0  0  0  0  0  0  0  0  0
    7.8478   15.7433   21.7023 C   0  0  1  0  0  0  0  0  0  0  0  0
    7.3644   16.0526   23.0254 O   0  0  0  0  0  0  0  0  0  0  0  0
    6.1314   15.5541   23.3867 C   0  0  0  0  0  0  0  0  0  0  0  0
    5.1031   15.6216   22.7349 O   0  0  0  0  0  0  0  0  0  0  0  0
    6.3267   14.8227   24.6888 C   0  0  0  0  0  0  0  0  0  0  0  0
    5.8284   13.4039   24.9027 C   0  0  0  0  0  0  0  0  0  0  0  0
    6.8885   12.6752   25.7682 C   0  0  0  0  0  0  0  0  0  0  0  0
    7.6412   13.6125   26.6873 N   0  0  0  0  0  0  0  0  0  0  0  0
    9.2076   14.2260   26.3185 S   0  0  0  0  0  0  0  0  0  0  0  0
    9.5354   15.1595   27.3682 O   0  0  0  0  0  0  0  0  0  0  0  0
    9.3278   14.6366   24.9427 O   0  0  0  0  0  0  0  0  0  0  0  0
   10.2962   12.9445   26.4887 N   0  0  0  0  0  0  0  0  0  0  0  0
   11.6890   13.4959   26.3977 C   0  0  0  0  0  0  0  0  0  0  0  0
   12.5052   12.9191   25.2641 C   0  0  0  0  0  0  0  0  0  0  0  0
   12.5114   11.4354   25.4525 C   0  0  0  0  0  0  0  0  0  0  0  0
   11.1043   10.8678   25.2534 C   0  0  0  0  0  0  0  0  0  0  0  0
    9.9698   11.7672   25.6799 C   0  0  0  0  0  0  0  0  0  0  0  0
    6.7071   14.7038   27.1525 C   0  0  0  0  0  0  0  0  0  0  0  0
    6.3126   15.6173   25.9794 C   0  0  0  0  0  0  0  0  0  0  0  0
    9.3172   16.1906   21.3988 C   0  0  1  0  0  0  0  0  0  0  0  0
   10.2026   15.8503   22.4837 O   0  0  0  0  0  0  0  0  0  0  0  0
   11.3786   15.3757   22.0039 C   0  0  0  0  0  0  0  0  0  0  0  0
   12.3565   15.0878   22.6654 O   0  0  0  0  0  0  0  0  0  0  0  0
   11.2520   15.1866   20.5562 C   0  0  0  0  0  0  0  0  0  0  0  0
   12.1989   14.6677   19.7230 O   0  0  0  0  0  0  0  0  0  0  0  0
   10.0521   15.6289   20.2139 C   0  0  0  0  0  0  0  0  0  0  0  0
    9.5776   15.6270   18.9298 O   0  0  0  0  0  0  0  0  0  0  0  0
  1  2  2  0
  2  3  2  0
  3  4  1  0
  5  4  1  1
  5  6  1  0
  6  7  1  0
  7  8  2  0
  7  9  1  0
  9 10  1  0
 10 11  1  0
 11 12  1  0
 12 13  1  0
 13 14  2  0
 13 15  2  0
 13 16  1  0
 16 17  1  0
 17 18  1  0
 18 19  1  0
 19 20  1  0
 20 21  1  0
 12 22  1  0
 22 23  1  0
  5 24  1  0
 24 25  1  1
 25 26  1  0
 26 27  2  0
 26 28  1  0
 28 29  1  0
 28 30  2  0
 30 31  1  0
 23  9  1  0
 30 24  1  0
 21 16  1  0
M  CHG  2   1  -1   2   1
M  END
>  <energy_score>  (1211) 
-38.858788

>  <inchikey>  (1211) 
None

>  <smiles>  (1211) 
None

>  <ref_pdb>  (1211) 
A4706a

>  <alias>  (1211) 
None

>  <HIPPO Pose ID>  (1211) 
500546

>  <name>  (1211) 
P500546

>  <HIPPO Compound ID>  (1211) 
314939

>  <ref_mols>  (1211) 
A0875a,A4706a

>  <distance_score>  (1211) 
1.888005

>  <inspiration_score>  (1211) 
None

$$$$
P500547
     RDKit          3D

 31 33  0  0  0  0  0  0  0  0999 V2000
    8.2462   18.5342   20.4982 C   0  0  0  0  0  0  0  0  0  0  0  0
    8.5234   17.2255   20.9757 O   0  0  0  0  0  0  0  0  0  0  0  0
    7.7080   16.4828   21.7692 C   0  0  0  0  0  0  0  0  0  0  0  0
    6.7941   16.8326   22.5033 O   0  0  0  0  0  0  0  0  0  0  0  0
    8.0842   15.0166   21.6188 C   0  0  2  0  0  0  0  0  0  0  0  0
    7.9079   14.3958   22.9040 O   0  0  0  0  0  0  0  0  0  0  0  0
    6.8506   13.5761   23.0374 C   0  0  0  0  0  0  0  0  0  0  0  0
    6.2022   13.1200   22.1047 O   0  0  0  0  0  0  0  0  0  0  0  0
    6.5929   13.1710   24.4722 C   0  0  0  0  0  0  0  0  0  0  0  0
    7.6458   12.1672   24.9550 C   0  0  0  0  0  0  0  0  0  0  0  0
    8.3374   12.6325   26.2314 C   0  0  0  0  0  0  0  0  0  0  0  0
    8.8586   13.9895   26.0040 N   0  0  0  0  0  0  0  0  0  0  0  0
   10.0609   14.5754   27.0353 S   0  0  0  0  0  0  0  0  0  0  0  0
   10.6003   15.7728   26.4276 O   0  0  0  0  0  0  0  0  0  0  0  0
    9.5046   14.6020   28.3654 O   0  0  0  0  0  0  0  0  0  0  0  0
   11.2981   13.3843   27.0061 N   0  0  0  0  0  0  0  0  0  0  0  0
   12.3766   13.7710   27.9831 C   0  0  0  0  0  0  0  0  0  0  0  0
   13.5268   12.7591   28.0065 C   0  0  0  0  0  0  0  0  0  0  0  0
   14.0372   12.3420   26.6354 C   0  0  0  0  0  0  0  0  0  0  0  0
   12.8985   12.0214   25.6887 C   0  0  0  0  0  0  0  0  0  0  0  0
   11.8480   13.1128   25.6580 C   0  0  0  0  0  0  0  0  0  0  0  0
    7.7587   14.9989   25.8232 C   0  0  0  0  0  0  0  0  0  0  0  0
    6.4348   14.3793   25.3898 C   0  0  0  0  0  0  0  0  0  0  0  0
    9.4903   14.8843   21.0753 C   0  0  0  0  0  0  0  0  0  0  0  0
    9.6624   14.9791   19.6816 C   0  0  0  0  0  0  0  0  0  0  0  0
   10.8883   14.8582   19.0881 C   0  0  0  0  0  0  0  0  0  0  0  0
   11.9625   14.7418   19.9150 C   0  0  0  0  0  0  0  0  0  0  0  0
   13.1374   14.5618   19.3473 F   0  0  0  0  0  0  0  0  0  0  0  0
   11.8660   14.8460   21.2880 C   0  0  0  0  0  0  0  0  0  0  0  0
   10.6223   14.9013   21.8839 C   0  0  0  0  0  0  0  0  0  0  0  0
   10.5411   15.0069   23.3556 C   0  0  0  0  0  0  0  0  0  0  0  0
  1  2  1  0
  2  3  1  0
  3  4  2  0
  3  5  1  0
  5  6  1  1
  6  7  1  0
  7  8  2  0
  7  9  1  0
  9 10  1  0
 10 11  1  0
 11 12  1  0
 12 13  1  0
 13 14  2  0
 13 15  2  0
 13 16  1  0
 16 17  1  0
 17 18  1  0
 18 19  1  0
 19 20  1  0
 20 21  1  0
 12 22  1  0
 22 23  1  0
  5 24  1  0
 24 25  2  0
 25 26  1  0
 26 27  2  0
 27 28  1  0
 27 29  1  0
 29 30  2  0
 30 31  1  0
 23  9  1  0
 30 24  1  0
 21 16  1  0
M  END
>  <energy_score>  (1212) 
-65.751751

>  <inchikey>  (1212) 
None

>  <smiles>  (1212) 
None

>  <ref_pdb>  (1212) 
A4706a

>  <alias>  (1212) 
None

>  <HIPPO Pose ID>  (1212) 
500547

>  <name>  (1212) 
P500547

>  <HIPPO Compound ID>  (1212) 
314941

>  <ref_mols>  (1212) 
A4706a,A0875a

>  <distance_score>  (1212) 
1.908777

>  <inspiration_score>  (1212) 
None

$$$$
P500548
     RDKit          3D

 31 33  0  0  0  0  0  0  0  0999 V2000
    8.4259   19.3165   20.9238 C   0  0  0  0  0  0  0  0  0  0  0  0
    8.0906   18.1114   21.5712 O   0  0  0  0  0  0  0  0  0  0  0  0
    8.6086   17.1198   20.8632 C   0  0  0  0  0  0  0  0  0  0  0  0
    9.2970   17.3184   19.8597 O   0  0  0  0  0  0  0  0  0  0  0  0
    8.2475   15.7135   21.4095 C   0  0  2  0  0  0  0  0  0  0  0  0
    7.8156   15.5800   22.7558 O   0  0  0  0  0  0  0  0  0  0  0  0
    6.9668   14.5437   23.0165 C   0  0  0  0  0  0  0  0  0  0  0  0
    6.5172   13.7719   22.1720 O   0  0  0  0  0  0  0  0  0  0  0  0
    6.5977   14.4407   24.5127 C   0  0  0  0  0  0  0  0  0  0  0  0
    6.4548   12.9374   24.8934 C   0  0  0  0  0  0  0  0  0  0  0  0
    7.1529   12.4793   26.1674 C   0  0  0  0  0  0  0  0  0  0  0  0
    8.4431   13.1993   26.3467 N   0  0  0  0  0  0  0  0  0  0  0  0
    9.6112   12.7697   25.2145 S   0  0  0  0  0  0  0  0  0  0  0  0
    9.2361   13.3193   23.9389 O   0  0  0  0  0  0  0  0  0  0  0  0
    9.8096   11.3504   25.3582 O   0  0  0  0  0  0  0  0  0  0  0  0
   11.0399   13.5244   25.6417 N   0  0  0  0  0  0  0  0  0  0  0  0
   11.4648   13.6386   27.0438 C   0  0  0  0  0  0  0  0  0  0  0  0
   12.7824   12.9433   27.3856 C   0  0  0  0  0  0  0  0  0  0  0  0
   13.1259   11.8688   26.4050 C   0  0  0  0  0  0  0  0  0  0  0  0
   13.2878   12.5095   25.0838 C   0  0  0  0  0  0  0  0  0  0  0  0
   12.1052   13.3471   24.6273 C   0  0  0  0  0  0  0  0  0  0  0  0
    8.1414   14.6095   26.6119 C   0  0  0  0  0  0  0  0  0  0  0  0
    7.5332   15.2842   25.4056 C   0  0  0  0  0  0  0  0  0  0  0  0
    9.5269   14.9876   21.0848 C   0  0  0  0  0  0  0  0  0  0  0  0
    9.7564   14.7857   19.7055 C   0  0  0  0  0  0  0  0  0  0  0  0
   10.9990   14.5971   19.1886 C   0  0  0  0  0  0  0  0  0  0  0  0
   12.0277   14.6703   20.0776 C   0  0  0  0  0  0  0  0  0  0  0  0
   13.2194   14.5772   19.5268 F   0  0  0  0  0  0  0  0  0  0  0  0
   11.8493   14.9334   21.4367 C   0  0  0  0  0  0  0  0  0  0  0  0
   12.8737   15.2192   22.2404 F   0  0  0  0  0  0  0  0  0  0  0  0
   10.5923   15.0539   21.9633 C   0  0  0  0  0  0  0  0  0  0  0  0
  1  2  1  0
  2  3  1  0
  3  4  2  0
  3  5  1  0
  5  6  1  1
  6  7  1  0
  7  8  2  0
  7  9  1  0
  9 10  1  0
 10 11  1  0
 11 12  1  0
 12 13  1  0
 13 14  2  0
 13 15  2  0
 13 16  1  0
 16 17  1  0
 17 18  1  0
 18 19  1  0
 19 20  1  0
 20 21  1  0
 12 22  1  0
 22 23  1  0
  5 24  1  0
 24 25  2  0
 25 26  1  0
 26 27  2  0
 27 28  1  0
 27 29  1  0
 29 30  1  0
 29 31  2  0
 23  9  1  0
 31 24  1  0
 21 16  1  0
M  END
>  <energy_score>  (1213) 
-7.138016

>  <inchikey>  (1213) 
None

>  <smiles>  (1213) 
None

>  <ref_pdb>  (1213) 
A4706a

>  <alias>  (1213) 
None

>  <HIPPO Pose ID>  (1213) 
500548

>  <name>  (1213) 
P500548

>  <HIPPO Compound ID>  (1213) 
314953

>  <ref_mols>  (1213) 
A0875a,A4706a

>  <distance_score>  (1213) 
1.68137

>  <inspiration_score>  (1213) 
None

$$$$
P500551
     RDKit          3D

 31 33  0  0  0  0  0  0  0  0999 V2000
    3.6319   14.7994   22.1650 C   0  0  0  0  0  0  0  0  0  0  0  0
    4.8701   15.4623   22.4427 O   0  0  0  0  0  0  0  0  0  0  0  0
    5.9399   14.8958   21.7880 C   0  0  0  0  0  0  0  0  0  0  0  0
    5.7923   14.0486   20.9223 O   0  0  0  0  0  0  0  0  0  0  0  0
    7.2677   15.4064   22.3834 C   0  0  1  0  0  0  0  0  0  0  0  0
    7.2034   14.9760   23.7652 O   0  0  0  0  0  0  0  0  0  0  0  0
    6.7899   13.6938   23.9684 C   0  0  0  0  0  0  0  0  0  0  0  0
    6.8303   12.7973   23.1336 O   0  0  0  0  0  0  0  0  0  0  0  0
    6.1560   13.4990   25.3312 C   0  0  0  0  0  0  0  0  0  0  0  0
    6.4374   12.0717   25.8155 C   0  0  0  0  0  0  0  0  0  0  0  0
    7.9237   11.8332   26.0607 C   0  0  0  0  0  0  0  0  0  0  0  0
    8.5830   13.0580   26.5850 N   0  0  0  0  0  0  0  0  0  0  0  0
    9.7581   13.7665   25.6132 S   0  0  0  0  0  0  0  0  0  0  0  0
    9.9549   15.1227   26.0655 O   0  0  0  0  0  0  0  0  0  0  0  0
    9.4554   13.4279   24.2507 O   0  0  0  0  0  0  0  0  0  0  0  0
   11.1395   12.8638   26.0474 N   0  0  0  0  0  0  0  0  0  0  0  0
   12.0153   12.6288   24.8730 C   0  0  0  0  0  0  0  0  0  0  0  0
   13.0987   11.6430   25.2711 C   0  0  0  0  0  0  0  0  0  0  0  0
   13.9898   12.2355   26.3353 C   0  0  0  0  0  0  0  0  0  0  0  0
   13.1703   12.7340   27.5097 C   0  0  0  0  0  0  0  0  0  0  0  0
   11.8997   13.5090   27.1453 C   0  0  0  0  0  0  0  0  0  0  0  0
    7.6641   13.9772   27.3012 C   0  0  0  0  0  0  0  0  0  0  0  0
    6.5916   14.5267   26.3796 C   0  0  0  0  0  0  0  0  0  0  0  0
    8.6071   15.1715   21.6781 C   0  0  0  0  0  0  0  0  0  0  0  0
    8.7189   14.8822   20.3308 C   0  0  0  0  0  0  0  0  0  0  0  0
    9.9119   14.8808   19.5805 C   0  0  0  0  0  0  0  0  0  0  0  0
   11.0985   15.0270   20.2269 C   0  0  0  0  0  0  0  0  0  0  0  0
   11.0440   15.3067   21.5761 C   0  0  0  0  0  0  0  0  0  0  0  0
   12.2963   15.5655   22.2875 C   0  0  0  0  0  0  0  0  0  0  0  0
    9.8258   15.4187   22.2686 C   0  0  0  0  0  0  0  0  0  0  0  0
    9.8687   15.8157   23.5428 F   0  0  0  0  0  0  0  0  0  0  0  0
  1  2  1  0
  2  3  1  0
  3  4  2  0
  3  5  1  0
  5  6  1  1
  6  7  1  0
  7  8  2  0
  7  9  1  0
  9 10  1  0
 10 11  1  0
 11 12  1  0
 12 13  1  0
 13 14  2  0
 13 15  2  0
 13 16  1  0
 16 17  1  0
 17 18  1  0
 18 19  1  0
 19 20  1  0
 20 21  1  0
 12 22  1  0
 22 23  1  0
  5 24  1  0
 24 25  2  0
 25 26  1  0
 26 27  2  0
 27 28  1  0
 28 29  1  0
 28 30  2  0
 30 31  1  0
 23  9  1  0
 30 24  1  0
 21 16  1  0
M  END
>  <energy_score>  (1214) 
-38.284688

>  <inchikey>  (1214) 
None

>  <smiles>  (1214) 
None

>  <ref_pdb>  (1214) 
A4706a

>  <alias>  (1214) 
None

>  <HIPPO Pose ID>  (1214) 
500551

>  <name>  (1214) 
P500551

>  <HIPPO Compound ID>  (1214) 
314961

>  <ref_mols>  (1214) 
A4706a,A0875a

>  <distance_score>  (1214) 
1.801301

>  <inspiration_score>  (1214) 
None

$$$$
P500552
     RDKit          3D

 32 34  0  0  0  0  0  0  0  0999 V2000
    6.1334   16.1796   25.0767 O   0  0  0  0  0  0  0  0  0  0  0  0
    6.7750   15.1536   24.8698 C   0  0  0  0  0  0  0  0  0  0  0  0
    7.9118   15.1727   24.1462 O   0  0  0  0  0  0  0  0  0  0  0  0
    7.8054   14.9357   22.7267 C   0  0  1  0  0  0  0  0  0  0  0  0
    6.5734   15.6099   22.1055 C   0  0  0  0  0  0  0  0  0  0  0  0
    5.8679   14.5838   21.3914 O   0  0  0  0  0  0  0  0  0  0  0  0
    4.4931   14.5432   21.6987 C   0  0  0  0  0  0  0  0  0  0  0  0
    4.3202   14.3737   23.0218 F   0  0  0  0  0  0  0  0  0  0  0  0
    3.8814   15.6714   21.2893 F   0  0  0  0  0  0  0  0  0  0  0  0
    3.9462   13.5024   21.0452 F   0  0  0  0  0  0  0  0  0  0  0  0
    9.1180   15.1717   21.9524 C   0  0  0  0  0  0  0  0  0  0  0  0
    9.1727   14.9466   20.5691 C   0  0  0  0  0  0  0  0  0  0  0  0
   10.3720   14.9149   19.8500 C   0  0  0  0  0  0  0  0  0  0  0  0
   11.5617   15.0526   20.5384 C   0  0  0  0  0  0  0  0  0  0  0  0
   11.5265   15.3356   21.8921 C   0  0  0  0  0  0  0  0  0  0  0  0
   12.6726   15.4669   22.5601 F   0  0  0  0  0  0  0  0  0  0  0  0
   10.3281   15.4523   22.5804 C   0  0  0  0  0  0  0  0  0  0  0  0
    6.3616   13.8401   25.5249 C   0  0  0  0  0  0  0  0  0  0  0  0
    7.0253   12.5216   25.1047 C   0  0  0  0  0  0  0  0  0  0  0  0
    8.0856   12.0334   26.0936 C   0  0  0  0  0  0  0  0  0  0  0  0
    8.8746   13.1664   26.6390 N   0  0  0  0  0  0  0  0  0  0  0  0
   10.1691   13.6864   25.6931 S   0  0  0  0  0  0  0  0  0  0  0  0
    9.8328   13.3284   24.3377 O   0  0  0  0  0  0  0  0  0  0  0  0
   10.5133   15.0281   26.0857 O   0  0  0  0  0  0  0  0  0  0  0  0
   11.4277   12.6385   26.1852 N   0  0  0  0  0  0  0  0  0  0  0  0
   11.9120   11.8254   25.0691 C   0  0  0  0  0  0  0  0  0  0  0  0
   13.2171   11.0459   25.2867 C   0  0  0  0  0  0  0  0  0  0  0  0
   14.1642   11.5217   26.3469 C   0  0  0  0  0  0  0  0  0  0  0  0
   13.8860   12.9707   26.5392 C   0  0  0  0  0  0  0  0  0  0  0  0
   12.4717   13.1948   27.0644 C   0  0  0  0  0  0  0  0  0  0  0  0
    8.0543   14.2287   27.3080 C   0  0  0  0  0  0  0  0  0  0  0  0
    6.5646   14.0551   27.0239 C   0  0  0  0  0  0  0  0  0  0  0  0
  1  2  2  0
  2  3  1  0
  3  4  1  0
  4  5  1  6
  5  6  1  0
  6  7  1  0
  7  8  1  0
  7  9  1  0
  7 10  1  0
  4 11  1  0
 11 12  2  0
 12 13  1  0
 13 14  2  0
 14 15  1  0
 15 16  1  0
 15 17  2  0
  2 18  1  0
 18 19  1  0
 19 20  1  0
 20 21  1  0
 21 22  1  0
 22 23  2  0
 22 24  2  0
 22 25  1  0
 25 26  1  0
 26 27  1  0
 27 28  1  0
 28 29  1  0
 29 30  1  0
 21 31  1  0
 31 32  1  0
 17 11  1  0
 32 18  1  0
 30 25  1  0
M  END
>  <energy_score>  (1215) 
-21.256363

>  <inchikey>  (1215) 
None

>  <smiles>  (1215) 
None

>  <ref_pdb>  (1215) 
A4706a

>  <alias>  (1215) 
None

>  <HIPPO Pose ID>  (1215) 
500552

>  <name>  (1215) 
P500552

>  <HIPPO Compound ID>  (1215) 
314962

>  <ref_mols>  (1215) 
A4706a,A0875a

>  <distance_score>  (1215) 
1.964037

>  <inspiration_score>  (1215) 
None

$$$$
P500554
     RDKit          3D

 32 34  0  0  0  0  0  0  0  0999 V2000
    7.7953   19.4948   19.2212 C   0  0  0  0  0  0  0  0  0  0  0  0
    8.1694   18.1930   19.6174 O   0  0  0  0  0  0  0  0  0  0  0  0
    8.3376   18.0579   20.9602 C   0  0  0  0  0  0  0  0  0  0  0  0
    8.5464   19.0137   21.6824 O   0  0  0  0  0  0  0  0  0  0  0  0
    8.2516   16.5673   21.3676 C   0  0  2  0  0  0  0  0  0  0  0  0
    7.9029   16.1347   22.6744 O   0  0  0  0  0  0  0  0  0  0  0  0
    6.6318   15.7201   22.9755 C   0  0  0  0  0  0  0  0  0  0  0  0
    5.6029   15.9198   22.3571 O   0  0  0  0  0  0  0  0  0  0  0  0
    6.7787   14.8575   24.2033 C   0  0  0  0  0  0  0  0  0  0  0  0
    6.9122   13.3948   23.7456 C   0  0  0  0  0  0  0  0  0  0  0  0
    7.1438   12.4369   24.9102 C   0  0  0  0  0  0  0  0  0  0  0  0
    7.7356   13.1622   26.0552 N   0  0  0  0  0  0  0  0  0  0  0  0
    9.3086   13.8066   25.8582 S   0  0  0  0  0  0  0  0  0  0  0  0
    9.5213   14.7464   26.9333 O   0  0  0  0  0  0  0  0  0  0  0  0
    9.5417   14.2009   24.4901 O   0  0  0  0  0  0  0  0  0  0  0  0
   10.4012   12.5454   26.1120 N   0  0  0  0  0  0  0  0  0  0  0  0
   11.7754   13.1516   26.2125 C   0  0  0  0  0  0  0  0  0  0  0  0
   12.7216   12.6148   25.1649 C   0  0  0  0  0  0  0  0  0  0  0  0
   12.8375   11.1332   25.3978 C   0  0  0  0  0  0  0  0  0  0  0  0
   11.4600   10.4328   25.2667 C   0  0  0  0  0  0  0  0  0  0  0  0
   10.2901   11.4025   25.1663 C   0  0  0  0  0  0  0  0  0  0  0  0
    6.6928   14.1603   26.5799 C   0  0  0  0  0  0  0  0  0  0  0  0
    5.9189   14.8945   25.4419 C   0  0  0  0  0  0  0  0  0  0  0  0
    9.5452   15.8758   20.9647 C   0  0  0  0  0  0  0  0  0  0  0  0
    9.7899   15.5357   19.6237 C   0  0  0  0  0  0  0  0  0  0  0  0
   10.8979   14.8039   19.2866 C   0  0  0  0  0  0  0  0  0  0  0  0
   11.0945   14.3977   18.0325 F   0  0  0  0  0  0  0  0  0  0  0  0
   11.7597   14.3936   20.2637 C   0  0  0  0  0  0  0  0  0  0  0  0
   12.6816   13.5230   19.8756 F   0  0  0  0  0  0  0  0  0  0  0  0
   11.5855   14.7844   21.5818 C   0  0  0  0  0  0  0  0  0  0  0  0
   12.4013   14.3876   22.5591 F   0  0  0  0  0  0  0  0  0  0  0  0
   10.5044   15.5625   21.9265 C   0  0  0  0  0  0  0  0  0  0  0  0
  1  2  1  0
  2  3  1  0
  3  4  2  0
  3  5  1  0
  5  6  1  1
  6  7  1  0
  7  8  2  0
  7  9  1  0
  9 10  1  0
 10 11  1  0
 11 12  1  0
 12 13  1  0
 13 14  2  0
 13 15  2  0
 13 16  1  0
 16 17  1  0
 17 18  1  0
 18 19  1  0
 19 20  1  0
 20 21  1  0
 12 22  1  0
 22 23  1  0
  5 24  1  0
 24 25  2  0
 25 26  1  0
 26 27  1  0
 26 28  2  0
 28 29  1  0
 28 30  1  0
 30 31  1  0
 30 32  2  0
 23  9  1  0
 32 24  1  0
 21 16  1  0
M  END
>  <energy_score>  (1216) 
-8.428728

>  <inchikey>  (1216) 
None

>  <smiles>  (1216) 
None

>  <ref_pdb>  (1216) 
A4706a

>  <alias>  (1216) 
None

>  <HIPPO Pose ID>  (1216) 
500554

>  <name>  (1216) 
P500554

>  <HIPPO Compound ID>  (1216) 
314972

>  <ref_mols>  (1216) 
A4706a,A0875a

>  <distance_score>  (1216) 
1.639121

>  <inspiration_score>  (1216) 
None

$$$$
P500555
     RDKit          3D

 32 34  0  0  0  0  0  0  0  0999 V2000
    8.4685   18.6119   21.0110 C   0  0  0  0  0  0  0  0  0  0  0  0
    8.1779   17.2282   20.9985 O   0  0  0  0  0  0  0  0  0  0  0  0
    7.5079   16.5992   21.9982 C   0  0  0  0  0  0  0  0  0  0  0  0
    6.7103   17.0450   22.8135 O   0  0  0  0  0  0  0  0  0  0  0  0
    7.9303   15.1556   21.9995 C   0  0  2  0  0  0  0  0  0  0  0  0
    7.6413   14.7166   23.3339 O   0  0  0  0  0  0  0  0  0  0  0  0
    6.7790   13.6883   23.4461 C   0  0  0  0  0  0  0  0  0  0  0  0
    6.4568   12.9616   22.5107 O   0  0  0  0  0  0  0  0  0  0  0  0
    6.2077   13.5033   24.8493 C   0  0  0  0  0  0  0  0  0  0  0  0
    6.4540   12.0750   25.3550 C   0  0  0  0  0  0  0  0  0  0  0  0
    7.8558   11.7978   25.8853 C   0  0  0  0  0  0  0  0  0  0  0  0
    8.4663   13.0068   26.4746 N   0  0  0  0  0  0  0  0  0  0  0  0
    9.7131   13.7229   25.5958 S   0  0  0  0  0  0  0  0  0  0  0  0
    9.8445   15.0755   26.0758 O   0  0  0  0  0  0  0  0  0  0  0  0
    9.5135   13.3763   24.2131 O   0  0  0  0  0  0  0  0  0  0  0  0
   11.0654   12.8190   26.1172 N   0  0  0  0  0  0  0  0  0  0  0  0
   12.0325   13.6139   26.9053 C   0  0  0  0  0  0  0  0  0  0  0  0
   13.4763   13.1227   26.7552 C   0  0  0  0  0  0  0  0  0  0  0  0
   13.5548   11.6487   26.7125 C   0  0  0  0  0  0  0  0  0  0  0  0
   12.8675   11.2149   25.4314 C   0  0  0  0  0  0  0  0  0  0  0  0
   11.6687   12.0654   25.0051 C   0  0  0  0  0  0  0  0  0  0  0  0
    7.4540   13.9491   27.0198 C   0  0  0  0  0  0  0  0  0  0  0  0
    6.6090   14.5471   25.9012 C   0  0  0  0  0  0  0  0  0  0  0  0
    9.3583   15.0144   21.5028 C   0  0  0  0  0  0  0  0  0  0  0  0
    9.5085   14.8710   20.1188 C   0  0  0  0  0  0  0  0  0  0  0  0
   10.7319   14.7136   19.5282 C   0  0  0  0  0  0  0  0  0  0  0  0
   10.8359   14.4538   18.2250 F   0  0  0  0  0  0  0  0  0  0  0  0
   11.8462   14.7925   20.3094 C   0  0  0  0  0  0  0  0  0  0  0  0
   13.0046   14.6063   19.6961 F   0  0  0  0  0  0  0  0  0  0  0  0
   11.7693   15.1004   21.6605 C   0  0  0  0  0  0  0  0  0  0  0  0
   10.5169   15.2349   22.2395 C   0  0  0  0  0  0  0  0  0  0  0  0
   10.4567   15.6517   23.5069 F   0  0  0  0  0  0  0  0  0  0  0  0
  1  2  1  0
  2  3  1  0
  3  4  2  0
  3  5  1  0
  5  6  1  1
  6  7  1  0
  7  8  2  0
  7  9  1  0
  9 10  1  0
 10 11  1  0
 11 12  1  0
 12 13  1  0
 13 14  2  0
 13 15  2  0
 13 16  1  0
 16 17  1  0
 17 18  1  0
 18 19  1  0
 19 20  1  0
 20 21  1  0
 12 22  1  0
 22 23  1  0
  5 24  1  0
 24 25  2  0
 25 26  1  0
 26 27  1  0
 26 28  2  0
 28 29  1  0
 28 30  1  0
 30 31  2  0
 31 32  1  0
 23  9  1  0
 31 24  1  0
 21 16  1  0
M  END
>  <energy_score>  (1217) 
-32.714103

>  <inchikey>  (1217) 
None

>  <smiles>  (1217) 
None

>  <ref_pdb>  (1217) 
A4706a

>  <alias>  (1217) 
None

>  <HIPPO Pose ID>  (1217) 
500555

>  <name>  (1217) 
P500555

>  <HIPPO Compound ID>  (1217) 
314976

>  <ref_mols>  (1217) 
A0875a,A4706a

>  <distance_score>  (1217) 
1.530591

>  <inspiration_score>  (1217) 
None

$$$$
P500557
     RDKit          3D

 32 34  0  0  0  0  0  0  0  0999 V2000
    7.8753   19.4040   19.3344 C   0  0  0  0  0  0  0  0  0  0  0  0
    8.2989   18.1112   19.7428 O   0  0  0  0  0  0  0  0  0  0  0  0
    8.3609   17.9445   21.0955 C   0  0  0  0  0  0  0  0  0  0  0  0
    8.4450   18.9047   21.8321 O   0  0  0  0  0  0  0  0  0  0  0  0
    8.2835   16.4238   21.4863 C   0  0  2  0  0  0  0  0  0  0  0  0
    7.8239   15.9209   22.7701 O   0  0  0  0  0  0  0  0  0  0  0  0
    7.1977   14.7037   22.7684 C   0  0  0  0  0  0  0  0  0  0  0  0
    7.0511   14.0028   21.7651 O   0  0  0  0  0  0  0  0  0  0  0  0
    6.6032   14.2426   24.1254 C   0  0  0  0  0  0  0  0  0  0  0  0
    6.9349   12.7330   24.3593 C   0  0  0  0  0  0  0  0  0  0  0  0
    7.6749   12.2953   25.6264 C   0  0  0  0  0  0  0  0  0  0  0  0
    8.3254   13.4336   26.2919 N   0  0  0  0  0  0  0  0  0  0  0  0
    9.7075   14.0509   25.5276 S   0  0  0  0  0  0  0  0  0  0  0  0
    9.9326   15.3493   26.1133 O   0  0  0  0  0  0  0  0  0  0  0  0
    9.5331   13.8545   24.1125 O   0  0  0  0  0  0  0  0  0  0  0  0
   10.9370   12.9942   26.0583 N   0  0  0  0  0  0  0  0  0  0  0  0
   11.9437   13.6776   26.9135 C   0  0  0  0  0  0  0  0  0  0  0  0
   13.3654   13.1475   26.7223 C   0  0  0  0  0  0  0  0  0  0  0  0
   13.3815   11.6760   26.6834 C   0  0  0  0  0  0  0  0  0  0  0  0
   12.6250   11.2564   25.4374 C   0  0  0  0  0  0  0  0  0  0  0  0
   11.5273   12.2128   24.9536 C   0  0  0  0  0  0  0  0  0  0  0  0
    7.2875   14.4566   26.5970 C   0  0  0  0  0  0  0  0  0  0  0  0
    6.8399   15.1681   25.3262 C   0  0  0  0  0  0  0  0  0  0  0  0
    9.5664   15.7770   21.0195 C   0  0  0  0  0  0  0  0  0  0  0  0
    9.7674   15.4715   19.6589 C   0  0  0  0  0  0  0  0  0  0  0  0
   10.8884   14.8073   19.2300 C   0  0  0  0  0  0  0  0  0  0  0  0
   11.7819   14.3924   20.1843 C   0  0  0  0  0  0  0  0  0  0  0  0
   12.7151   13.5533   19.7554 F   0  0  0  0  0  0  0  0  0  0  0  0
   11.6508   14.7495   21.5218 C   0  0  0  0  0  0  0  0  0  0  0  0
   12.4913   14.3359   22.4707 F   0  0  0  0  0  0  0  0  0  0  0  0
   10.5833   15.5103   21.9150 C   0  0  0  0  0  0  0  0  0  0  0  0
   10.5267   15.9345   23.1821 F   0  0  0  0  0  0  0  0  0  0  0  0
  1  2  1  0
  2  3  1  0
  3  4  2  0
  3  5  1  0
  5  6  1  1
  6  7  1  0
  7  8  2  0
  7  9  1  0
  9 10  1  0
 10 11  1  0
 11 12  1  0
 12 13  1  0
 13 14  2  0
 13 15  2  0
 13 16  1  0
 16 17  1  0
 17 18  1  0
 18 19  1  0
 19 20  1  0
 20 21  1  0
 12 22  1  0
 22 23  1  0
  5 24  1  0
 24 25  2  0
 25 26  1  0
 26 27  2  0
 27 28  1  0
 27 29  1  0
 29 30  1  0
 29 31  2  0
 31 32  1  0
 23  9  1  0
 31 24  1  0
 21 16  1  0
M  END
>  <energy_score>  (1218) 
-15.528239

>  <inchikey>  (1218) 
None

>  <smiles>  (1218) 
None

>  <ref_pdb>  (1218) 
A4706a

>  <alias>  (1218) 
None

>  <HIPPO Pose ID>  (1218) 
500557

>  <name>  (1218) 
P500557

>  <HIPPO Compound ID>  (1218) 
314979

>  <ref_mols>  (1218) 
A4706a,A0875a

>  <distance_score>  (1218) 
1.6626

>  <inspiration_score>  (1218) 
None

$$$$
P500558
     RDKit          3D

 32 34  0  0  0  0  0  0  0  0999 V2000
    7.8888   19.4005   19.3434 C   0  0  0  0  0  0  0  0  0  0  0  0
    8.2583   18.0828   19.7313 O   0  0  0  0  0  0  0  0  0  0  0  0
    8.2697   17.8815   21.0793 C   0  0  0  0  0  0  0  0  0  0  0  0
    8.4113   18.8202   21.8365 O   0  0  0  0  0  0  0  0  0  0  0  0
    8.0548   16.3640   21.4613 C   0  0  2  0  0  0  0  0  0  0  0  0
    7.5990   16.0322   22.7951 O   0  0  0  0  0  0  0  0  0  0  0  0
    6.9975   14.8225   22.9553 C   0  0  0  0  0  0  0  0  0  0  0  0
    7.0985   13.8838   22.1645 O   0  0  0  0  0  0  0  0  0  0  0  0
    6.0652   14.7538   24.1815 C   0  0  0  0  0  0  0  0  0  0  0  0
    5.7744   13.2870   24.5452 C   0  0  0  0  0  0  0  0  0  0  0  0
    6.9795   12.6198   25.1994 C   0  0  0  0  0  0  0  0  0  0  0  0
    7.6004   13.4437   26.2731 N   0  0  0  0  0  0  0  0  0  0  0  0
    9.2023   13.9587   26.0716 S   0  0  0  0  0  0  0  0  0  0  0  0
    9.5442   14.7251   27.2466 O   0  0  0  0  0  0  0  0  0  0  0  0
    9.2959   14.5678   24.7735 O   0  0  0  0  0  0  0  0  0  0  0  0
   10.1842   12.5758   26.1211 N   0  0  0  0  0  0  0  0  0  0  0  0
   10.0082   11.5411   25.0781 C   0  0  0  0  0  0  0  0  0  0  0  0
   10.3701   12.1064   23.7231 C   0  0  0  0  0  0  0  0  0  0  0  0
   11.6804   12.8965   23.8152 C   0  0  0  0  0  0  0  0  0  0  0  0
   12.4786   12.6044   25.0772 C   0  0  0  0  0  0  0  0  0  0  0  0
   11.6352   12.9547   26.2944 C   0  0  0  0  0  0  0  0  0  0  0  0
    6.7175   14.5922   26.6519 C   0  0  0  0  0  0  0  0  0  0  0  0
    6.4880   15.5153   25.4456 C   0  0  0  0  0  0  0  0  0  0  0  0
    9.2613   15.6211   20.9450 C   0  0  0  0  0  0  0  0  0  0  0  0
    9.4395   15.2270   19.6037 C   0  0  0  0  0  0  0  0  0  0  0  0
   10.6339   14.7477   19.1070 C   0  0  0  0  0  0  0  0  0  0  0  0
   11.6909   14.7179   19.9562 C   0  0  0  0  0  0  0  0  0  0  0  0
   12.8567   14.3111   19.4740 F   0  0  0  0  0  0  0  0  0  0  0  0
   11.5492   15.1786   21.2463 C   0  0  0  0  0  0  0  0  0  0  0  0
   12.8561   15.5525   22.1853 Cl  0  0  0  0  0  0  0  0  0  0  0  0
   10.3481   15.5713   21.7600 C   0  0  0  0  0  0  0  0  0  0  0  0
   10.2809   16.0319   23.0111 F   0  0  0  0  0  0  0  0  0  0  0  0
  1  2  1  0
  2  3  1  0
  3  4  2  0
  3  5  1  0
  5  6  1  1
  6  7  1  0
  7  8  2  0
  7  9  1  0
  9 10  1  0
 10 11  1  0
 11 12  1  0
 12 13  1  0
 13 14  2  0
 13 15  2  0
 13 16  1  0
 16 17  1  0
 17 18  1  0
 18 19  1  0
 19 20  1  0
 20 21  1  0
 12 22  1  0
 22 23  1  0
  5 24  1  0
 24 25  2  0
 25 26  1  0
 26 27  2  0
 27 28  1  0
 27 29  1  0
 29 30  1  0
 29 31  2  0
 31 32  1  0
 23  9  1  0
 31 24  1  0
 21 16  1  0
M  END
>  <energy_score>  (1219) 
-26.004975

>  <inchikey>  (1219) 
None

>  <smiles>  (1219) 
None

>  <ref_pdb>  (1219) 
A4706a

>  <alias>  (1219) 
None

>  <HIPPO Pose ID>  (1219) 
500558

>  <name>  (1219) 
P500558

>  <HIPPO Compound ID>  (1219) 
314981

>  <ref_mols>  (1219) 
A4706a,A0875a

>  <distance_score>  (1219) 
1.821068

>  <inspiration_score>  (1219) 
None

$$$$
P500560
     RDKit          3D

 32 34  0  0  0  0  0  0  0  0999 V2000
    8.4816   18.2627   21.0635 C   0  0  0  0  0  0  0  0  0  0  0  0
    8.3472   16.8489   21.1154 O   0  0  0  0  0  0  0  0  0  0  0  0
    7.5689   16.1772   22.0050 C   0  0  0  0  0  0  0  0  0  0  0  0
    6.8247   16.6454   22.8536 O   0  0  0  0  0  0  0  0  0  0  0  0
    7.7703   14.6659   21.7782 C   0  0  2  0  0  0  0  0  0  0  0  0
    7.4603   13.8981   22.9560 O   0  0  0  0  0  0  0  0  0  0  0  0
    6.1390   13.8068   23.2555 C   0  0  0  0  0  0  0  0  0  0  0  0
    5.2428   14.0612   22.4636 O   0  0  0  0  0  0  0  0  0  0  0  0
    5.9045   13.3318   24.6838 C   0  0  0  0  0  0  0  0  0  0  0  0
    6.6424   12.0321   25.0272 C   0  0  0  0  0  0  0  0  0  0  0  0
    8.0711   12.2629   25.4679 C   0  0  0  0  0  0  0  0  0  0  0  0
    8.1529   13.1674   26.6136 N   0  0  0  0  0  0  0  0  0  0  0  0
    9.5005   14.1592   26.7452 S   0  0  0  0  0  0  0  0  0  0  0  0
    9.4650   14.6535   28.1002 O   0  0  0  0  0  0  0  0  0  0  0  0
    9.4832   15.1135   25.6734 O   0  0  0  0  0  0  0  0  0  0  0  0
   10.8759   13.1197   26.6332 N   0  0  0  0  0  0  0  0  0  0  0  0
   11.3793   12.8579   25.2599 C   0  0  0  0  0  0  0  0  0  0  0  0
   12.5591   11.9032   25.2770 C   0  0  0  0  0  0  0  0  0  0  0  0
   13.7113   12.3656   26.1311 C   0  0  0  0  0  0  0  0  0  0  0  0
   13.2247   12.8176   27.4865 C   0  0  0  0  0  0  0  0  0  0  0  0
   11.9860   13.7138   27.4460 C   0  0  0  0  0  0  0  0  0  0  0  0
    6.8770   13.8790   26.9407 C   0  0  0  0  0  0  0  0  0  0  0  0
    6.2310   14.4427   25.6822 C   0  0  0  0  0  0  0  0  0  0  0  0
    9.1793   14.3726   21.2993 C   0  0  0  0  0  0  0  0  0  0  0  0
    9.5809   14.7366   20.0252 C   0  0  0  0  0  0  0  0  0  0  0  0
   10.9011   14.6657   19.6849 C   0  0  0  0  0  0  0  0  0  0  0  0
   11.5129   15.2615   18.0857 Br  0  0  0  0  0  0  0  0  0  0  0  0
   11.8083   14.1812   20.5732 C   0  0  0  0  0  0  0  0  0  0  0  0
   11.5015   13.7913   21.8076 N   0  0  0  0  0  0  0  0  0  0  0  0
   10.2234   14.0466   22.1430 C   0  0  0  0  0  0  0  0  0  0  0  0
   10.1204   14.5915   23.3847 O   0  0  0  0  0  0  0  0  0  0  0  0
   10.9469   15.7536   23.3274 C   0  0  0  0  0  0  0  0  0  0  0  0
  1  2  1  0
  2  3  1  0
  3  4  2  0
  3  5  1  0
  5  6  1  1
  6  7  1  0
  7  8  2  0
  7  9  1  0
  9 10  1  0
 10 11  1  0
 11 12  1  0
 12 13  1  0
 13 14  2  0
 13 15  2  0
 13 16  1  0
 16 17  1  0
 17 18  1  0
 18 19  1  0
 19 20  1  0
 20 21  1  0
 12 22  1  0
 22 23  1  0
  5 24  1  0
 24 25  2  0
 25 26  1  0
 26 27  1  0
 26 28  2  0
 28 29  1  0
 29 30  2  0
 30 31  1  0
 31 32  1  0
 23  9  1  0
 30 24  1  0
 21 16  1  0
M  END
>  <energy_score>  (1220) 
-33.788518

>  <inchikey>  (1220) 
None

>  <smiles>  (1220) 
None

>  <ref_pdb>  (1220) 
A4706a

>  <alias>  (1220) 
None

>  <HIPPO Pose ID>  (1220) 
500560

>  <name>  (1220) 
P500560

>  <HIPPO Compound ID>  (1220) 
314996

>  <ref_mols>  (1220) 
A4706a,A0875a

>  <distance_score>  (1220) 
1.834735

>  <inspiration_score>  (1220) 
None

$$$$
P500562
     RDKit          3D

 32 35  0  0  0  0  0  0  0  0999 V2000
   13.8828   14.2037   30.4214 C   0  0  0  0  0  0  0  0  0  0  0  0
   14.9773   13.1705   30.5712 C   0  0  0  0  0  0  0  0  0  0  0  0
   15.7562   13.1690   29.3754 O   0  0  0  0  0  0  0  0  0  0  0  0
   16.8581   12.2228   29.3518 C   0  0  1  0  0  0  0  0  0  0  0  0
   16.5130   10.7238   29.1860 C   0  0  0  0  0  0  0  0  0  0  0  0
   16.8728   10.8165   27.6864 C   0  0  1  0  0  0  0  0  0  0  0  0
   15.8662   10.8778   26.6296 O   0  0  0  0  0  0  0  0  0  0  0  0
   14.6015   11.2784   26.9010 C   0  0  0  0  0  0  0  0  0  0  0  0
   14.0755   11.3596   28.0005 O   0  0  0  0  0  0  0  0  0  0  0  0
   13.8696   11.7169   25.6405 C   0  0  0  0  0  0  0  0  0  0  0  0
   13.5704   13.1657   25.9001 C   0  0  0  0  0  0  0  0  0  0  0  0
   12.2018   13.4298   26.5857 C   0  0  0  0  0  0  0  0  0  0  0  0
   11.1145   13.0153   25.6876 N   0  0  0  0  0  0  0  0  0  0  0  0
    9.8424   14.0518   25.3669 S   0  0  0  0  0  0  0  0  0  0  0  0
    9.4776   13.9298   23.9778 O   0  0  0  0  0  0  0  0  0  0  0  0
   10.1522   15.3347   25.9472 O   0  0  0  0  0  0  0  0  0  0  0  0
    8.6225   13.3763   26.3268 N   0  0  0  0  0  0  0  0  0  0  0  0
    8.1379   12.0118   26.0319 C   0  0  0  0  0  0  0  0  0  0  0  0
    7.1951   11.9941   24.8465 C   0  0  0  0  0  0  0  0  0  0  0  0
    6.0568   12.9942   25.0044 C   0  0  0  0  0  0  0  0  0  0  0  0
    6.5450   14.3781   25.4172 C   0  0  0  0  0  0  0  0  0  0  0  0
    7.4812   14.2930   26.6158 C   0  0  0  0  0  0  0  0  0  0  0  0
   11.4750   11.9954   24.7101 C   0  0  0  0  0  0  0  0  0  0  0  0
   12.5309   11.0758   25.3731 C   0  0  0  0  0  0  0  0  0  0  0  0
   17.6093   12.1565   28.0004 C   0  0  2  0  0  0  0  0  0  0  0  0
   19.0575   12.2694   28.0395 O   0  0  0  0  0  0  0  0  0  0  0  0
   19.8151   11.1446   28.2078 C   0  0  0  0  0  0  0  0  0  0  0  0
   20.5224   10.6608   27.1092 C   0  0  0  0  0  0  0  0  0  0  0  0
   21.3662    9.5609   27.2587 C   0  0  0  0  0  0  0  0  0  0  0  0
   21.5029    8.9526   28.5066 C   0  0  0  0  0  0  0  0  0  0  0  0
   20.8133    9.4584   29.6093 C   0  0  0  0  0  0  0  0  0  0  0  0
   19.9796   10.5681   29.4637 C   0  0  0  0  0  0  0  0  0  0  0  0
  1  2  1  0
  2  3  1  0
  4  3  1  6
  4  5  1  0
  5  6  1  0
  6  7  1  6
  7  8  1  0
  8  9  2  0
  8 10  1  0
 10 11  1  0
 11 12  1  0
 12 13  1  0
 13 14  1  0
 14 15  2  0
 14 16  2  0
 14 17  1  0
 17 18  1  0
 18 19  1  0
 19 20  1  0
 20 21  1  0
 21 22  1  0
 13 23  1  0
 23 24  1  0
  6 25  1  0
 25 26  1  1
 26 27  1  0
 27 28  2  0
 28 29  1  0
 29 30  2  0
 30 31  1  0
 31 32  2  0
 25  4  1  0
 32 27  1  0
 24 10  1  0
 22 17  1  0
M  END
>  <energy_score>  (1221) 
-65.043572

>  <inchikey>  (1221) 
None

>  <smiles>  (1221) 
None

>  <ref_pdb>  (1221) 
A4706a

>  <alias>  (1221) 
None

>  <HIPPO Pose ID>  (1221) 
500562

>  <name>  (1221) 
P500562

>  <HIPPO Compound ID>  (1221) 
314998

>  <ref_mols>  (1221) 
A4706a,A0875a

>  <distance_score>  (1221) 
1.833265

>  <inspiration_score>  (1221) 
None

$$$$
P500563
     RDKit          3D

 25 26  0  0  0  0  0  0  0  0999 V2000
    8.3864   17.0226   20.9782 C   0  0  0  0  0  0  0  0  0  0  0  0
    8.9735   15.6289   20.9553 C   0  0  2  0  0  0  0  0  0  0  0  0
    8.8219   14.9940   22.2326 N   0  0  0  0  0  0  0  0  0  0  0  0
    7.6283   14.1941   22.8273 C   0  0  0  0  0  0  0  0  0  0  0  0
    6.6213   13.8666   22.3398 O   0  0  0  0  0  0  0  0  0  0  0  0
    8.1367   13.8287   24.2282 C   0  0  0  0  0  0  0  0  0  0  0  0
    7.2407   13.4279   25.3971 C   0  0  0  0  0  0  0  0  0  0  0  0
    7.8933   13.9905   26.5778 O   0  0  0  0  0  0  0  0  0  0  0  0
    7.2382   11.9057   25.6084 C   0  0  0  0  0  0  0  0  0  0  0  0
    6.1991   11.4389   26.6292 C   0  0  0  0  0  0  0  0  0  0  0  0
    5.6653   12.5457   27.4305 N   0  0  0  0  0  0  0  0  0  0  0  0
    4.7300   12.0400   28.4359 C   0  0  0  0  0  0  0  0  0  0  0  0
    4.9835   13.5267   26.5575 C   0  0  0  0  0  0  0  0  0  0  0  0
    5.8443   14.0314   25.3881 C   0  0  0  0  0  0  0  0  0  0  0  0
   10.4412   15.7085   20.4726 C   0  0  0  0  0  0  0  0  0  0  0  0
   10.9960   14.4021   20.0219 C   0  0  0  0  0  0  0  0  0  0  0  0
   11.1266   13.5210   21.2462 C   0  0  0  0  0  0  0  0  0  0  0  0
   11.1457   14.0781   22.5842 N   0  0  0  0  0  0  0  0  0  0  0  0
   11.5981   13.0273   23.4583 C   0  0  0  0  0  0  0  0  0  0  0  0
   11.6146   13.2591   24.9228 C   0  0  0  0  0  0  0  0  0  0  0  0
   12.5388   12.3916   25.3916 F   0  0  0  0  0  0  0  0  0  0  0  0
   11.9914   14.4834   25.3063 F   0  0  0  0  0  0  0  0  0  0  0  0
   10.4335   12.9929   25.4966 F   0  0  0  0  0  0  0  0  0  0  0  0
   11.8575   15.3085   22.6537 C   0  0  0  0  0  0  0  0  0  0  0  0
   11.5480   16.1631   21.4559 C   0  0  0  0  0  0  0  0  0  0  0  0
  2  1  1  1
  2  3  1  0
  3  4  1  0
  4  5  2  0
  4  6  1  0
  6  7  1  0
  7  8  1  0
  7  9  1  0
  9 10  1  0
 10 11  1  0
 11 12  1  0
 11 13  1  0
 13 14  1  0
  2 15  1  0
 15 16  1  0
 16 17  1  0
 17 18  1  0
 18 19  1  0
 19 20  1  0
 20 21  1  0
 20 22  1  0
 20 23  1  0
 18 24  1  0
 24 25  1  0
 14  7  1  0
 25 15  1  0
M  END
>  <energy_score>  (1222) 
-1.160418

>  <inchikey>  (1222) 
None

>  <smiles>  (1222) 
None

>  <ref_pdb>  (1222) 
A4320a

>  <alias>  (1222) 
None

>  <HIPPO Pose ID>  (1222) 
500563

>  <name>  (1222) 
P500563

>  <HIPPO Compound ID>  (1222) 
315067

>  <ref_mols>  (1222) 
A0875a,A4320a

>  <distance_score>  (1222) 
1.501425

>  <inspiration_score>  (1222) 
None

$$$$
P500564
     RDKit          3D

 25 26  0  0  0  0  0  0  0  0999 V2000
    2.8614   12.2137   28.4091 C   0  0  0  0  0  0  0  0  0  0  0  0
    4.2731   12.2584   28.5636 O   0  0  0  0  0  0  0  0  0  0  0  0
    4.8873   12.3349   27.2437 N   0  0  0  0  0  0  0  0  0  0  0  0
    6.0406   11.4341   27.3250 C   0  0  0  0  0  0  0  0  0  0  0  0
    6.9881   11.5950   26.1400 C   0  0  0  0  0  0  0  0  0  0  0  0
    7.3974   13.0616   25.9664 C   0  0  0  0  0  0  0  0  0  0  0  0
    8.4167   13.2666   24.8450 C   0  0  0  0  0  0  0  0  0  0  0  0
    7.8422   13.2863   23.4476 C   0  0  0  0  0  0  0  0  0  0  0  0
    6.8987   12.6735   23.2119 O   0  0  0  0  0  0  0  0  0  0  0  0
    8.6223   14.2515   22.5880 N   0  0  0  0  0  0  0  0  0  0  0  0
    8.3569   14.7494   21.2726 C   0  0  1  0  0  0  0  0  0  0  0  0
    7.2521   15.7590   21.5956 C   0  0  0  0  0  0  0  0  0  0  0  0
    9.5385   15.3395   20.4441 C   0  0  0  0  0  0  0  0  0  0  0  0
   10.6664   14.3995   20.0609 C   0  0  0  0  0  0  0  0  0  0  0  0
   11.2342   13.7298   21.3228 C   0  0  0  0  0  0  0  0  0  0  0  0
   11.2177   14.6696   22.4385 N   0  0  0  0  0  0  0  0  0  0  0  0
   11.9751   14.3013   23.6075 C   0  0  0  0  0  0  0  0  0  0  0  0
   11.6131   13.0752   24.4173 C   0  0  0  0  0  0  0  0  0  0  0  0
   10.9737   13.4800   25.5491 F   0  0  0  0  0  0  0  0  0  0  0  0
   10.8098   12.2114   23.7904 F   0  0  0  0  0  0  0  0  0  0  0  0
   12.7164   12.4169   24.8105 F   0  0  0  0  0  0  0  0  0  0  0  0
   11.5011   15.9813   21.9072 C   0  0  0  0  0  0  0  0  0  0  0  0
   10.1955   16.4400   21.2329 C   0  0  0  0  0  0  0  0  0  0  0  0
    6.1680   13.9621   25.8763 C   0  0  0  0  0  0  0  0  0  0  0  0
    5.2936   13.7417   27.1052 C   0  0  0  0  0  0  0  0  0  0  0  0
  1  2  1  0
  2  3  1  0
  3  4  1  0
  4  5  1  0
  5  6  1  0
  6  7  1  0
  7  8  1  0
  8  9  2  0
  8 10  1  0
 10 11  1  0
 11 12  1  1
 11 13  1  0
 13 14  1  0
 14 15  1  0
 15 16  1  0
 16 17  1  0
 17 18  1  0
 18 19  1  0
 18 20  1  0
 18 21  1  0
 16 22  1  0
 22 23  1  0
  6 24  1  0
 24 25  1  0
 25  3  1  0
 23 13  1  0
M  END
>  <energy_score>  (1223) 
-18.775324

>  <inchikey>  (1223) 
None

>  <smiles>  (1223) 
None

>  <ref_pdb>  (1223) 
A4320a

>  <alias>  (1223) 
None

>  <HIPPO Pose ID>  (1223) 
500564

>  <name>  (1223) 
P500564

>  <HIPPO Compound ID>  (1223) 
315068

>  <ref_mols>  (1223) 
A4320a,A0875a

>  <distance_score>  (1223) 
1.412846

>  <inspiration_score>  (1223) 
None

$$$$
P500566
     RDKit          3D

 25 26  0  0  0  0  0  0  0  0999 V2000
    7.2182   15.7766   21.5799 C   0  0  0  0  0  0  0  0  0  0  0  0
    8.2204   14.6656   21.1887 C   0  0  2  0  0  0  0  0  0  0  0  0
    8.2975   13.9359   22.4383 N   0  0  0  0  0  0  0  0  0  0  0  0
    7.2210   13.7041   23.5414 C   0  0  0  0  0  0  0  0  0  0  0  0
    6.0934   14.0005   23.5699 O   0  0  0  0  0  0  0  0  0  0  0  0
    7.9026   13.0627   24.7667 C   0  0  1  0  0  0  0  0  0  0  0  0
    8.8179   14.0977   25.1871 O   0  0  0  0  0  0  0  0  0  0  0  0
    7.0831   12.7464   26.0328 C   0  0  0  0  0  0  0  0  0  0  0  0
    6.8091   11.2544   26.1924 C   0  0  0  0  0  0  0  0  0  0  0  0
    5.9706   10.9482   27.4337 C   0  0  0  0  0  0  0  0  0  0  0  0
    4.7691   11.7781   27.5313 N   0  0  0  0  0  0  0  0  0  0  0  0
    4.0164   11.4534   28.7355 C   0  0  0  0  0  0  0  0  0  0  0  0
    5.1035   13.2067   27.5189 C   0  0  0  0  0  0  0  0  0  0  0  0
    5.8001   13.5619   26.2170 C   0  0  0  0  0  0  0  0  0  0  0  0
    9.4607   15.3493   20.5026 C   0  0  0  0  0  0  0  0  0  0  0  0
   10.6227   14.6319   19.8115 C   0  0  0  0  0  0  0  0  0  0  0  0
   11.7803   14.3094   20.7454 C   0  0  0  0  0  0  0  0  0  0  0  0
   11.2309   14.1535   22.0949 N   0  0  0  0  0  0  0  0  0  0  0  0
   12.1595   13.5605   23.0395 C   0  0  0  0  0  0  0  0  0  0  0  0
   11.6077   13.0438   24.3545 C   0  0  0  0  0  0  0  0  0  0  0  0
   11.2413   14.0363   25.1879 F   0  0  0  0  0  0  0  0  0  0  0  0
   12.5708   12.3431   24.9927 F   0  0  0  0  0  0  0  0  0  0  0  0
   10.5766   12.2015   24.1685 F   0  0  0  0  0  0  0  0  0  0  0  0
   10.8464   15.4674   22.5715 C   0  0  0  0  0  0  0  0  0  0  0  0
   10.0929   16.2435   21.5082 C   0  0  0  0  0  0  0  0  0  0  0  0
  2  1  1  1
  2  3  1  0
  3  4  1  0
  4  5  2  0
  4  6  1  0
  6  7  1  1
  6  8  1  0
  8  9  1  0
  9 10  1  0
 10 11  1  0
 11 12  1  0
 11 13  1  0
 13 14  1  0
  2 15  1  0
 15 16  1  0
 16 17  1  0
 17 18  1  0
 18 19  1  0
 19 20  1  0
 20 21  1  0
 20 22  1  0
 20 23  1  0
 18 24  1  0
 24 25  1  0
 14  8  1  0
 25 15  1  0
M  END
>  <energy_score>  (1224) 
-17.36171

>  <inchikey>  (1224) 
None

>  <smiles>  (1224) 
None

>  <ref_pdb>  (1224) 
A4320a

>  <alias>  (1224) 
None

>  <HIPPO Pose ID>  (1224) 
500566

>  <name>  (1224) 
P500566

>  <HIPPO Compound ID>  (1224) 
315069

>  <ref_mols>  (1224) 
A0875a,A4320a

>  <distance_score>  (1224) 
1.666056

>  <inspiration_score>  (1224) 
None

$$$$
P500567
     RDKit          3D

 25 26  0  0  0  0  0  0  0  0999 V2000
    3.8187   12.8118   29.0935 C   0  0  0  0  0  0  0  0  0  0  0  0
    4.6598   11.8175   28.3047 C   0  0  0  0  0  0  0  0  0  0  0  0
    5.6098   12.4232   27.3564 N   0  0  0  0  0  0  0  0  0  0  0  0
    6.2485   11.3589   26.5682 C   0  0  0  0  0  0  0  0  0  0  0  0
    7.2543   11.8552   25.5295 C   0  0  0  0  0  0  0  0  0  0  0  0
    7.2242   13.3675   25.3467 C   0  0  0  0  0  0  0  0  0  0  0  0
    8.0905   13.8722   24.2086 C   0  0  0  0  0  0  0  0  0  0  0  0
    7.6942   14.0767   22.7437 C   0  0  0  0  0  0  0  0  0  0  0  0
    6.7951   13.5878   22.1815 O   0  0  0  0  0  0  0  0  0  0  0  0
    8.8410   14.9957   22.2122 N   0  0  0  0  0  0  0  0  0  0  0  0
    9.0507   15.5672   20.9105 C   0  0  1  0  0  0  0  0  0  0  0  0
    8.5023   16.9838   20.8685 C   0  0  0  0  0  0  0  0  0  0  0  0
   10.5303   15.6014   20.4625 C   0  0  0  0  0  0  0  0  0  0  0  0
   11.0870   14.2711   20.0955 C   0  0  0  0  0  0  0  0  0  0  0  0
   11.2038   13.4220   21.3545 C   0  0  0  0  0  0  0  0  0  0  0  0
   11.2387   14.0660   22.6376 N   0  0  0  0  0  0  0  0  0  0  0  0
   11.5804   13.1241   23.6711 C   0  0  0  0  0  0  0  0  0  0  0  0
   11.2312   13.6040   25.0439 C   0  0  0  0  0  0  0  0  0  0  0  0
   10.4784   12.6707   25.6410 F   0  0  0  0  0  0  0  0  0  0  0  0
   12.3554   13.8099   25.7465 F   0  0  0  0  0  0  0  0  0  0  0  0
   10.5263   14.7411   25.1066 F   0  0  0  0  0  0  0  0  0  0  0  0
   11.9322   15.3022   22.6486 C   0  0  0  0  0  0  0  0  0  0  0  0
   11.6047   16.1185   21.4349 C   0  0  0  0  0  0  0  0  0  0  0  0
    5.8372   13.9722   25.3588 C   0  0  0  0  0  0  0  0  0  0  0  0
    4.9610   13.4140   26.4801 C   0  0  0  0  0  0  0  0  0  0  0  0
  1  2  1  0
  2  3  1  0
  3  4  1  0
  4  5  1  0
  5  6  1  0
  6  7  1  0
  7  8  1  0
  8  9  2  0
  8 10  1  0
 10 11  1  0
 11 12  1  1
 11 13  1  0
 13 14  1  0
 14 15  1  0
 15 16  1  0
 16 17  1  0
 17 18  1  0
 18 19  1  0
 18 20  1  0
 18 21  1  0
 16 22  1  0
 22 23  1  0
  6 24  1  0
 24 25  1  0
 25  3  1  0
 23 13  1  0
M  END
>  <energy_score>  (1225) 
-0.867145

>  <inchikey>  (1225) 
None

>  <smiles>  (1225) 
None

>  <ref_pdb>  (1225) 
A4320a

>  <alias>  (1225) 
None

>  <HIPPO Pose ID>  (1225) 
500567

>  <name>  (1225) 
P500567

>  <HIPPO Compound ID>  (1225) 
315071

>  <ref_mols>  (1225) 
A4320a,A0875a

>  <distance_score>  (1225) 
1.392191

>  <inspiration_score>  (1225) 
None

$$$$
P500569
     RDKit          3D

 26 27  0  0  0  0  0  0  0  0999 V2000
    3.2842   12.1927   28.5834 C   0  0  0  0  0  0  0  0  0  0  0  0
    4.7176   11.7866   28.9483 C   0  0  0  0  0  0  0  0  0  0  0  0
    5.0661   12.3142   30.3467 C   0  0  0  0  0  0  0  0  0  0  0  0
    5.7721   12.2044   28.0036 N   0  0  0  0  0  0  0  0  0  0  0  0
    5.9150   11.2376   26.9074 C   0  0  0  0  0  0  0  0  0  0  0  0
    7.0516   11.6005   25.9617 C   0  0  0  0  0  0  0  0  0  0  0  0
    6.8972   13.0254   25.4304 C   0  0  0  0  0  0  0  0  0  0  0  0
    8.1030   13.4302   24.6031 C   0  0  0  0  0  0  0  0  0  0  0  0
    7.8078   13.8153   23.1824 C   0  0  0  0  0  0  0  0  0  0  0  0
    6.9213   13.3572   22.5711 O   0  0  0  0  0  0  0  0  0  0  0  0
    8.9409   14.7986   22.7409 N   0  0  0  0  0  0  0  0  0  0  0  0
    9.1503   15.4854   21.4871 C   0  0  2  0  0  0  0  0  0  0  0  0
    8.2884   14.7279   20.5521 C   0  0  0  0  0  0  0  0  0  0  0  0
   10.5499   15.5470   20.8058 C   0  0  0  0  0  0  0  0  0  0  0  0
   11.1108   14.2304   20.3422 C   0  0  0  0  0  0  0  0  0  0  0  0
   11.3260   13.3246   21.5571 C   0  0  0  0  0  0  0  0  0  0  0  0
   11.4663   13.9987   22.8169 N   0  0  0  0  0  0  0  0  0  0  0  0
   11.7522   13.1791   23.9665 C   0  0  0  0  0  0  0  0  0  0  0  0
   11.2318   13.8058   25.2423 C   0  0  0  0  0  0  0  0  0  0  0  0
   10.3712   12.9689   25.8284 F   0  0  0  0  0  0  0  0  0  0  0  0
   12.2091   14.1046   26.0991 F   0  0  0  0  0  0  0  0  0  0  0  0
   10.5547   14.9453   25.0685 F   0  0  0  0  0  0  0  0  0  0  0  0
   12.0728   15.2831   22.7756 C   0  0  0  0  0  0  0  0  0  0  0  0
   11.7203   16.0899   21.5767 C   0  0  0  0  0  0  0  0  0  0  0  0
    6.7288   13.9924   26.6028 C   0  0  0  0  0  0  0  0  0  0  0  0
    5.5640   13.5644   27.4790 C   0  0  0  0  0  0  0  0  0  0  0  0
  1  2  1  0
  2  3  1  0
  2  4  1  0
  4  5  1  0
  5  6  1  0
  6  7  1  0
  7  8  1  0
  8  9  1  0
  9 10  2  0
  9 11  1  0
 11 12  1  0
 12 13  1  6
 12 14  1  0
 14 15  1  0
 15 16  1  0
 16 17  1  0
 17 18  1  0
 18 19  1  0
 19 20  1  0
 19 21  1  0
 19 22  1  0
 17 23  1  0
 23 24  1  0
  7 25  1  0
 25 26  1  0
 26  4  1  0
 24 14  1  0
M  END
>  <energy_score>  (1226) 
-4.138762

>  <inchikey>  (1226) 
None

>  <smiles>  (1226) 
None

>  <ref_pdb>  (1226) 
A4320a

>  <alias>  (1226) 
None

>  <HIPPO Pose ID>  (1226) 
500569

>  <name>  (1226) 
P500569

>  <HIPPO Compound ID>  (1226) 
315074

>  <ref_mols>  (1226) 
A0875a,A4320a

>  <distance_score>  (1226) 
1.393585

>  <inspiration_score>  (1226) 
None

$$$$
P500570
     RDKit          3D

 26 27  0  0  0  0  0  0  0  0999 V2000
    2.7725   12.7629   28.3152 C   0  0  0  0  0  0  0  0  0  0  0  0
    4.1893   12.2223   28.4169 C   0  0  0  0  0  0  0  0  0  0  0  0
    4.9421   12.3492   27.1649 N   0  0  0  0  0  0  0  0  0  0  0  0
    6.1987   11.6128   27.2864 C   0  0  0  0  0  0  0  0  0  0  0  0
    6.9986   11.6482   25.9974 C   0  0  0  0  0  0  0  0  0  0  0  0
    7.2588   13.0802   25.5083 C   0  0  0  0  0  0  0  0  0  0  0  0
    8.1335   13.2024   24.2376 C   0  0  1  0  0  0  0  0  0  0  0  0
    8.8732   11.9045   23.9125 C   0  0  0  0  0  0  0  0  0  0  0  0
    7.6033   13.7843   22.9002 C   0  0  0  0  0  0  0  0  0  0  0  0
    6.6353   13.4038   22.3716 O   0  0  0  0  0  0  0  0  0  0  0  0
    8.6599   14.8294   22.4376 N   0  0  0  0  0  0  0  0  0  0  0  0
    8.7863   15.5435   21.1920 C   0  0  1  0  0  0  0  0  0  0  0  0
    8.2917   16.9671   21.2437 C   0  0  0  0  0  0  0  0  0  0  0  0
   10.2078   15.4660   20.6175 C   0  0  0  0  0  0  0  0  0  0  0  0
   10.5962   14.0351   20.4639 C   0  0  0  0  0  0  0  0  0  0  0  0
   11.3308   13.4106   21.6649 C   0  0  0  0  0  0  0  0  0  0  0  0
   11.2036   14.1770   22.8968 N   0  0  0  0  0  0  0  0  0  0  0  0
   11.8371   13.5484   24.0540 C   0  0  0  0  0  0  0  0  0  0  0  0
   11.4605   14.1778   25.3938 C   0  0  0  0  0  0  0  0  0  0  0  0
   12.4678   13.9909   26.2489 F   0  0  0  0  0  0  0  0  0  0  0  0
   11.2809   15.5040   25.4024 F   0  0  0  0  0  0  0  0  0  0  0  0
   10.3593   13.6271   25.9232 F   0  0  0  0  0  0  0  0  0  0  0  0
   11.8231   15.4496   22.6427 C   0  0  0  0  0  0  0  0  0  0  0  0
   11.3766   16.0715   21.3628 C   0  0  0  0  0  0  0  0  0  0  0  0
    5.9806   13.9084   25.4939 C   0  0  0  0  0  0  0  0  0  0  0  0
    5.1946   13.7557   26.8010 C   0  0  0  0  0  0  0  0  0  0  0  0
  1  2  1  0
  2  3  1  0
  3  4  1  0
  4  5  1  0
  5  6  1  0
  6  7  1  0
  7  8  1  6
  7  9  1  0
  9 10  2  0
  9 11  1  0
 11 12  1  0
 12 13  1  1
 12 14  1  0
 14 15  1  0
 15 16  1  0
 16 17  1  0
 17 18  1  0
 18 19  1  0
 19 20  1  0
 19 21  1  0
 19 22  1  0
 17 23  1  0
 23 24  1  0
  6 25  1  0
 25 26  1  0
 26  3  1  0
 24 14  1  0
M  END
>  <energy_score>  (1227) 
-18.044522

>  <inchikey>  (1227) 
None

>  <smiles>  (1227) 
None

>  <ref_pdb>  (1227) 
A4320a

>  <alias>  (1227) 
None

>  <HIPPO Pose ID>  (1227) 
500570

>  <name>  (1227) 
P500570

>  <HIPPO Compound ID>  (1227) 
315076

>  <ref_mols>  (1227) 
A4320a,A0875a

>  <distance_score>  (1227) 
1.392332

>  <inspiration_score>  (1227) 
None

$$$$
P500571
     RDKit          3D

 26 27  0  0  0  0  0  0  0  0999 V2000
    2.5447   13.7049   28.2181 C   0  0  0  0  0  0  0  0  0  0  0  0
    3.5896   12.8617   28.9300 C   0  0  0  0  0  0  0  0  0  0  0  0
    4.1745   11.9751   27.9812 O   0  0  0  0  0  0  0  0  0  0  0  0
    5.5739   12.3206   27.6982 N   0  0  0  0  0  0  0  0  0  0  0  0
    6.0233   11.1251   26.9642 C   0  0  0  0  0  0  0  0  0  0  0  0
    7.2500   11.3259   26.0878 C   0  0  0  0  0  0  0  0  0  0  0  0
    7.1203   12.5772   25.2435 C   0  0  0  0  0  0  0  0  0  0  0  0
    8.3101   12.7814   24.3432 C   0  0  0  0  0  0  0  0  0  0  0  0
    7.8891   13.4540   23.0590 C   0  0  0  0  0  0  0  0  0  0  0  0
    7.0418   13.0161   22.3957 O   0  0  0  0  0  0  0  0  0  0  0  0
    8.7077   14.7380   22.9037 N   0  0  0  0  0  0  0  0  0  0  0  0
    8.7249   15.7078   21.8520 C   0  0  2  0  0  0  0  0  0  0  0  0
    7.2993   15.9596   21.5369 C   0  0  0  0  0  0  0  0  0  0  0  0
    9.7003   15.4463   20.7355 C   0  0  0  0  0  0  0  0  0  0  0  0
    9.9976   14.0168   20.5325 C   0  0  0  0  0  0  0  0  0  0  0  0
   10.9968   13.4422   21.5366 C   0  0  0  0  0  0  0  0  0  0  0  0
   11.2962   14.2865   22.6929 N   0  0  0  0  0  0  0  0  0  0  0  0
   12.2560   13.6031   23.5263 C   0  0  0  0  0  0  0  0  0  0  0  0
   11.6493   12.7693   24.5886 C   0  0  0  0  0  0  0  0  0  0  0  0
   12.6547   12.1970   25.2716 F   0  0  0  0  0  0  0  0  0  0  0  0
   10.9329   13.5130   25.4559 F   0  0  0  0  0  0  0  0  0  0  0  0
   10.8807   11.7969   24.0679 F   0  0  0  0  0  0  0  0  0  0  0  0
   11.8508   15.5169   22.2109 C   0  0  0  0  0  0  0  0  0  0  0  0
   11.0504   16.0378   21.0545 C   0  0  0  0  0  0  0  0  0  0  0  0
    6.8322   13.7803   26.1232 C   0  0  0  0  0  0  0  0  0  0  0  0
    5.5143   13.5146   26.8312 C   0  0  0  0  0  0  0  0  0  0  0  0
  1  2  1  0
  2  3  1  0
  3  4  1  0
  4  5  1  0
  5  6  1  0
  6  7  1  0
  7  8  1  0
  8  9  1  0
  9 10  2  0
  9 11  1  0
 11 12  1  0
 12 13  1  6
 12 14  1  0
 14 15  1  0
 15 16  1  0
 16 17  1  0
 17 18  1  0
 18 19  1  0
 19 20  1  0
 19 21  1  0
 19 22  1  0
 17 23  1  0
 23 24  1  0
  7 25  1  0
 25 26  1  0
 26  4  1  0
 24 14  1  0
M  END
>  <energy_score>  (1228) 
-21.197511

>  <inchikey>  (1228) 
None

>  <smiles>  (1228) 
None

>  <ref_pdb>  (1228) 
A4320a

>  <alias>  (1228) 
None

>  <HIPPO Pose ID>  (1228) 
500571

>  <name>  (1228) 
P500571

>  <HIPPO Compound ID>  (1228) 
315077

>  <ref_mols>  (1228) 
A0875a,A4320a

>  <distance_score>  (1228) 
1.292786

>  <inspiration_score>  (1228) 
None

$$$$
P500575
     RDKit          3D

 30 32  0  0  0  0  0  0  0  0999 V2000
    8.8492   17.2110   20.6726 C   0  0  0  0  0  0  0  0  0  0  0  0
    9.1780   15.7476   20.9007 C   0  0  2  0  0  0  0  0  0  0  0  0
    8.7775   15.2642   22.1898 N   0  0  0  0  0  0  0  0  0  0  0  0
    7.5885   14.3505   22.6003 C   0  0  0  0  0  0  0  0  0  0  0  0
    6.7128   13.9173   21.9622 O   0  0  0  0  0  0  0  0  0  0  0  0
    7.8571   14.0230   24.0734 C   0  0  0  0  0  0  0  0  0  0  0  0
    6.7859   13.2819   24.8150 C   0  0  0  0  0  0  0  0  0  0  0  0
    7.2640   12.4798   26.0224 C   0  0  0  0  0  0  0  0  0  0  0  0
    6.1041   11.6919   26.6250 C   0  0  0  0  0  0  0  0  0  0  0  0
    4.9122   12.5113   26.8819 N   0  0  0  0  0  0  0  0  0  0  0  0
    4.8734   13.1107   28.1480 C   0  0  0  0  0  0  0  0  0  0  0  0
    3.6372   13.5495   28.6174 C   0  0  0  0  0  0  0  0  0  0  0  0
    3.5924   14.3784   29.7172 C   0  0  0  0  0  0  0  0  0  0  0  0
    4.7905   14.6789   30.3235 C   0  0  0  0  0  0  0  0  0  0  0  0
    4.8571   15.7008   31.6979 Cl  0  0  0  0  0  0  0  0  0  0  0  0
    5.9754   14.1707   29.9354 N   0  0  0  0  0  0  0  0  0  0  0  0
    6.0103   13.3733   28.8363 N   0  0  0  0  0  0  0  0  0  0  0  0
    4.5297   13.5066   25.8522 C   0  0  0  0  0  0  0  0  0  0  0  0
    5.7053   14.2493   25.2586 C   0  0  0  0  0  0  0  0  0  0  0  0
   10.6387   15.4233   20.5705 C   0  0  0  0  0  0  0  0  0  0  0  0
   10.8593   13.9584   20.5611 C   0  0  0  0  0  0  0  0  0  0  0  0
   10.9411   13.2901   21.9349 C   0  0  0  0  0  0  0  0  0  0  0  0
   12.0125   13.8127   22.7473 N   0  0  0  0  0  0  0  0  0  0  0  0
   12.0503   13.3146   24.1301 C   0  0  0  0  0  0  0  0  0  0  0  0
   10.9853   13.8050   25.1033 C   0  0  0  0  0  0  0  0  0  0  0  0
   10.1953   14.7424   24.5655 F   0  0  0  0  0  0  0  0  0  0  0  0
   11.5119   14.3791   26.1967 F   0  0  0  0  0  0  0  0  0  0  0  0
   10.1985   12.7929   25.5053 F   0  0  0  0  0  0  0  0  0  0  0  0
   12.1145   15.2431   22.6827 C   0  0  0  0  0  0  0  0  0  0  0  0
   11.7743   15.9484   21.4093 C   0  0  0  0  0  0  0  0  0  0  0  0
  2  1  1  1
  2  3  1  0
  3  4  1  0
  4  5  2  0
  4  6  1  0
  6  7  1  0
  7  8  1  0
  8  9  1  0
  9 10  1  0
 10 11  1  0
 11 12  2  0
 12 13  1  0
 13 14  2  0
 14 15  1  0
 14 16  1  0
 16 17  2  0
 10 18  1  0
 18 19  1  0
  2 20  1  0
 20 21  1  0
 21 22  1  0
 22 23  1  0
 23 24  1  0
 24 25  1  0
 25 26  1  0
 25 27  1  0
 25 28  1  0
 23 29  1  0
 29 30  1  0
 19  7  1  0
 30 20  1  0
 17 11  1  0
M  END
>  <energy_score>  (1229) 
-13.147868

>  <inchikey>  (1229) 
None

>  <smiles>  (1229) 
None

>  <ref_pdb>  (1229) 
A4320a

>  <alias>  (1229) 
None

>  <HIPPO Pose ID>  (1229) 
500575

>  <name>  (1229) 
P500575

>  <HIPPO Compound ID>  (1229) 
315085

>  <ref_mols>  (1229) 
A0875a,A4320a

>  <distance_score>  (1229) 
1.974852

>  <inspiration_score>  (1229) 
None

$$$$
P500576
     RDKit          3D

 22 24  0  0  0  0  0  0  0  0999 V2000
    6.8464   11.4671   25.6837 C   0  0  0  0  0  0  0  0  0  0  0  0
    8.2971   11.5067   25.2950 C   0  0  2  0  0  0  0  0  0  0  0  0
    8.6896   12.9081   24.9841 C   0  0  0  0  0  0  0  0  0  0  0  0
    9.9179   12.5377   24.2789 C   0  0  0  0  0  0  0  0  0  0  0  0
   11.0072   13.5358   24.3179 C   0  0  0  0  0  0  0  0  0  0  0  0
   10.7570   14.6656   23.9390 O   0  0  0  0  0  0  0  0  0  0  0  0
   12.1745   13.0741   24.8785 N   0  0  0  0  0  0  0  0  0  0  0  0
   12.4726   13.0634   26.2863 C   0  0  0  0  0  0  0  0  0  0  0  0
   13.8487   12.4855   26.7519 C   0  0  0  0  0  0  0  0  0  0  0  0
   14.8071   11.9611   25.6771 C   0  0  0  0  0  0  0  0  0  0  0  0
   15.6062   12.9622   25.0744 O   0  0  0  0  0  0  0  0  0  0  0  0
   15.8073   10.8826   26.1301 C   0  0  0  0  0  0  0  0  0  0  0  0
   16.5628   11.2603   27.3771 C   0  0  0  0  0  0  0  0  0  0  0  0
   16.1995   10.7651   28.6346 C   0  0  0  0  0  0  0  0  0  0  0  0
   16.8961   11.1573   29.7756 C   0  0  0  0  0  0  0  0  0  0  0  0
   17.9423   12.0478   29.6306 C   0  0  0  0  0  0  0  0  0  0  0  0
   18.3217   12.5565   28.4430 N   0  0  0  0  0  0  0  0  0  0  0  0
   17.6359   12.1475   27.3516 C   0  0  0  0  0  0  0  0  0  0  0  0
   13.9509   11.4378   24.5615 C   0  0  0  0  0  0  0  0  0  0  0  0
   13.1292   12.5807   23.9705 C   0  0  0  0  0  0  0  0  0  0  0  0
    9.9477   11.3529   23.7505 N   0  0  0  0  0  0  0  0  0  0  0  0
    8.6972   10.7779   24.1330 O   0  0  0  0  0  0  0  0  0  0  0  0
  2  1  1  6
  2  3  1  0
  3  4  1  0
  4  5  1  0
  5  6  2  0
  5  7  1  0
  7  8  1  0
  8  9  1  0
  9 10  1  0
 10 11  1  0
 10 12  1  0
 12 13  1  0
 13 14  2  0
 14 15  1  0
 15 16  2  0
 16 17  1  0
 17 18  2  0
 10 19  1  0
 19 20  1  0
  4 21  2  0
 21 22  1  0
 22  2  1  0
 20  7  1  0
 18 13  1  0
M  END
>  <energy_score>  (1230) 
-0.063207

>  <inchikey>  (1230) 
None

>  <smiles>  (1230) 
None

>  <ref_pdb>  (1230) 
A0875a

>  <alias>  (1230) 
None

>  <HIPPO Pose ID>  (1230) 
500576

>  <name>  (1230) 
P500576

>  <HIPPO Compound ID>  (1230) 
315360

>  <ref_mols>  (1230) 
A2629a,A0875a

>  <distance_score>  (1230) 
1.945891

>  <inspiration_score>  (1230) 
None

$$$$
P500577
     RDKit          3D

 22 24  0  0  0  0  0  0  0  0999 V2000
   10.6117    8.7137   24.1216 C   0  0  0  0  0  0  0  0  0  0  0  0
    9.6635    9.7071   23.5477 C   0  0  1  0  0  0  0  0  0  0  0  0
    9.1606   10.7915   24.4702 C   0  0  0  0  0  0  0  0  0  0  0  0
    9.4328   11.8769   23.5340 C   0  0  0  0  0  0  0  0  0  0  0  0
    9.2006   13.3047   23.8406 C   0  0  0  0  0  0  0  0  0  0  0  0
    8.1627   13.8961   23.6608 O   0  0  0  0  0  0  0  0  0  0  0  0
   10.4101   13.7671   24.2597 N   0  0  0  0  0  0  0  0  0  0  0  0
   10.7075   13.7917   25.6443 C   0  0  0  0  0  0  0  0  0  0  0  0
   12.0534   13.1396   25.9499 C   0  0  0  0  0  0  0  0  0  0  0  0
   12.7996   12.5231   24.7703 C   0  0  0  0  0  0  0  0  0  0  0  0
   14.2833   12.0678   24.9838 C   0  0  0  0  0  0  0  0  0  0  0  0
   14.9194   11.5669   24.0546 O   0  0  0  0  0  0  0  0  0  0  0  0
   15.0333   12.1761   26.2651 C   0  0  0  0  0  0  0  0  0  0  0  0
   14.5634   11.7816   27.5004 C   0  0  0  0  0  0  0  0  0  0  0  0
   15.3457   11.8871   28.6536 C   0  0  0  0  0  0  0  0  0  0  0  0
   16.6201   12.3982   28.5306 C   0  0  0  0  0  0  0  0  0  0  0  0
   17.1255   12.7984   27.3529 N   0  0  0  0  0  0  0  0  0  0  0  0
   16.3213   12.6810   26.2630 C   0  0  0  0  0  0  0  0  0  0  0  0
   12.6441   13.3757   23.4769 C   0  0  0  0  0  0  0  0  0  0  0  0
   11.3736   14.2243   23.3042 C   0  0  0  0  0  0  0  0  0  0  0  0
   10.1906   11.6296   22.5287 N   0  0  0  0  0  0  0  0  0  0  0  0
   10.4105   10.2825   22.5039 O   0  0  0  0  0  0  0  0  0  0  0  0
  2  1  1  1
  2  3  1  0
  3  4  1  0
  4  5  1  0
  5  6  2  0
  5  7  1  0
  7  8  1  0
  8  9  1  0
  9 10  1  0
 10 11  1  0
 11 12  2  0
 11 13  1  0
 13 14  2  0
 14 15  1  0
 15 16  2  0
 16 17  1  0
 17 18  2  0
 10 19  1  0
 19 20  1  0
  4 21  2  0
 21 22  1  0
 22  2  1  0
 20  7  1  0
 18 13  1  0
M  END
>  <energy_score>  (1231) 
-5.660127

>  <inchikey>  (1231) 
None

>  <smiles>  (1231) 
None

>  <ref_pdb>  (1231) 
A0875a

>  <alias>  (1231) 
None

>  <HIPPO Pose ID>  (1231) 
500577

>  <name>  (1231) 
P500577

>  <HIPPO Compound ID>  (1231) 
315361

>  <ref_mols>  (1231) 
A2629a,A0875a

>  <distance_score>  (1231) 
1.928227

>  <inspiration_score>  (1231) 
None

$$$$
P500578
     RDKit          3D

 23 25  0  0  0  0  0  0  0  0999 V2000
    7.7306   13.6288   23.6418 C   0  0  0  0  0  0  0  0  0  0  0  0
    8.5622   12.9980   24.7531 C   0  0  2  0  0  0  0  0  0  0  0  0
    9.8611   12.6113   24.1832 C   0  0  0  0  0  0  0  0  0  0  0  0
   10.9260   13.6366   24.2795 C   0  0  0  0  0  0  0  0  0  0  0  0
   10.6729   14.7824   23.9582 O   0  0  0  0  0  0  0  0  0  0  0  0
   12.0902   13.1676   24.8277 N   0  0  0  0  0  0  0  0  0  0  0  0
   12.3571   13.0986   26.2467 C   0  0  0  0  0  0  0  0  0  0  0  0
   13.7226   12.5111   26.7121 C   0  0  0  0  0  0  0  0  0  0  0  0
   14.6927   12.0943   25.6196 C   0  0  0  0  0  0  0  0  0  0  0  0
   15.5866   10.9247   25.9869 C   0  0  0  0  0  0  0  0  0  0  0  0
   15.3713    9.8028   25.5313 O   0  0  0  0  0  0  0  0  0  0  0  0
   16.7242   11.1043   26.9092 C   0  0  0  0  0  0  0  0  0  0  0  0
   17.4683    9.9894   27.3108 C   0  0  0  0  0  0  0  0  0  0  0  0
   18.5409   10.1491   28.1853 C   0  0  0  0  0  0  0  0  0  0  0  0
   18.8392   11.4252   28.6299 C   0  0  0  0  0  0  0  0  0  0  0  0
   18.1510   12.5252   28.2554 N   0  0  0  0  0  0  0  0  0  0  0  0
   17.1169   12.3439   27.3980 C   0  0  0  0  0  0  0  0  0  0  0  0
   13.8632   11.6127   24.4683 C   0  0  0  0  0  0  0  0  0  0  0  0
   13.0528   12.7388   23.8942 C   0  0  0  0  0  0  0  0  0  0  0  0
    9.9698   11.3845   23.7675 N   0  0  0  0  0  0  0  0  0  0  0  0
    8.7215   10.7889   24.1420 O   0  0  0  0  0  0  0  0  0  0  0  0
    8.2535   11.6070   25.2169 C   0  0  2  0  0  0  0  0  0  0  0  0
    6.8359   11.4528   25.6901 C   0  0  0  0  0  0  0  0  0  0  0  0
  2  1  1  6
  2  3  1  0
  3  4  1  0
  4  5  2  0
  4  6  1  0
  6  7  1  0
  7  8  1  0
  8  9  1  0
  9 10  1  0
 10 11  2  0
 10 12  1  0
 12 13  2  0
 13 14  1  0
 14 15  2  0
 15 16  1  0
 16 17  2  0
  9 18  1  0
 18 19  1  0
  3 20  2  0
 20 21  1  0
 21 22  1  0
 22 23  1  6
 22  2  1  0
 19  6  1  0
 17 12  1  0
M  END
>  <energy_score>  (1232) 
-9.677339

>  <inchikey>  (1232) 
None

>  <smiles>  (1232) 
None

>  <ref_pdb>  (1232) 
A0875a

>  <alias>  (1232) 
None

>  <HIPPO Pose ID>  (1232) 
500578

>  <name>  (1232) 
P500578

>  <HIPPO Compound ID>  (1232) 
315365

>  <ref_mols>  (1232) 
A2629a,A0875a

>  <distance_score>  (1232) 
1.937554

>  <inspiration_score>  (1232) 
None

$$$$
P500579
     RDKit          3D

 24 27  0  0  0  0  0  0  0  0999 V2000
   10.5502   14.7849   24.5232 O   0  0  0  0  0  0  0  0  0  0  0  0
   10.8455   13.6662   24.8876 C   0  0  0  0  0  0  0  0  0  0  0  0
    9.7813   12.6339   24.8522 C   0  0  0  0  0  0  0  0  0  0  0  0
    9.0539   12.1571   25.8194 N   0  0  0  0  0  0  0  0  0  0  0  0
    8.6920   10.8317   25.3424 O   0  0  0  0  0  0  0  0  0  0  0  0
    9.7173   10.6017   24.3951 C   0  0  1  0  0  0  0  0  0  0  0  0
    9.7283    9.6120   23.2990 C   0  0  0  0  0  0  0  0  0  0  0  0
   10.3895   10.2917   22.2215 O   0  0  0  0  0  0  0  0  0  0  0  0
   10.4948   11.6973   22.5156 C   0  0  0  0  0  0  0  0  0  0  0  0
    9.5870   11.8790   23.6375 C   0  0  2  0  0  0  0  0  0  0  0  0
   12.0984   13.1613   25.2620 N   0  0  0  0  0  0  0  0  0  0  0  0
   12.5742   13.1977   26.6064 C   0  0  0  0  0  0  0  0  0  0  0  0
   13.9073   12.4644   26.9611 C   0  0  0  0  0  0  0  0  0  0  0  0
   14.5789   11.6277   25.8802 C   0  0  0  0  0  0  0  0  0  0  0  0
   13.9846   10.3374   25.7207 O   0  0  0  0  0  0  0  0  0  0  0  0
   16.1065   11.4677   26.0257 C   0  0  0  0  0  0  0  0  0  0  0  0
   16.6258   10.6259   27.1490 C   0  0  0  0  0  0  0  0  0  0  0  0
   17.2943    9.4193   26.9099 C   0  0  0  0  0  0  0  0  0  0  0  0
   17.8368    8.6967   27.9706 C   0  0  0  0  0  0  0  0  0  0  0  0
   17.6859    9.1984   29.2500 C   0  0  0  0  0  0  0  0  0  0  0  0
   17.0542   10.3578   29.5237 N   0  0  0  0  0  0  0  0  0  0  0  0
   16.5563   11.0477   28.4739 C   0  0  0  0  0  0  0  0  0  0  0  0
   14.3662   12.2968   24.5749 C   0  0  0  0  0  0  0  0  0  0  0  0
   12.9295   12.5906   24.2707 C   0  0  0  0  0  0  0  0  0  0  0  0
  1  2  2  0
  2  3  1  0
  3  4  2  0
  4  5  1  0
  5  6  1  0
  6  7  1  6
  7  8  1  0
  8  9  1  0
 10  9  1  6
  2 11  1  0
 11 12  1  0
 12 13  1  0
 13 14  1  0
 14 15  1  0
 14 16  1  0
 16 17  1  0
 17 18  2  0
 18 19  1  0
 19 20  2  0
 20 21  1  0
 21 22  2  0
 14 23  1  0
 23 24  1  0
 10  3  1  0
 24 11  1  0
 10  6  1  0
 22 17  1  0
M  END
>  <energy_score>  (1233) 
-5.150834

>  <inchikey>  (1233) 
None

>  <smiles>  (1233) 
None

>  <ref_pdb>  (1233) 
A0875a

>  <alias>  (1233) 
None

>  <HIPPO Pose ID>  (1233) 
500579

>  <name>  (1233) 
P500579

>  <HIPPO Compound ID>  (1233) 
315368

>  <ref_mols>  (1233) 
A2629a,A0875a

>  <distance_score>  (1233) 
1.798641

>  <inspiration_score>  (1233) 
None

$$$$
P500580
     RDKit          3D

 25 27  0  0  0  0  0  0  0  0999 V2000
    6.1397   12.7404   26.4159 C   0  0  0  0  0  0  0  0  0  0  0  0
    7.0410   12.3105   25.2746 C   0  0  2  0  0  0  0  0  0  0  0  0
    8.4998   12.5930   25.4823 C   0  0  0  0  0  0  0  0  0  0  0  0
    8.8705   12.8017   24.0664 C   0  0  0  0  0  0  0  0  0  0  0  0
   10.3022   12.6665   23.6138 C   0  0  0  0  0  0  0  0  0  0  0  0
   10.6634   13.0217   22.5081 O   0  0  0  0  0  0  0  0  0  0  0  0
   11.1163   12.0198   24.5236 N   0  0  0  0  0  0  0  0  0  0  0  0
   11.8979   12.7907   25.4725 C   0  0  0  0  0  0  0  0  0  0  0  0
   13.1979   12.1346   25.9476 C   0  0  0  0  0  0  0  0  0  0  0  0
   13.6494   11.0517   25.0071 C   0  0  0  0  0  0  0  0  0  0  0  0
   15.0779   10.4516   25.1811 C   0  0  0  0  0  0  0  0  0  0  0  0
   16.0430   10.8536   26.2658 C   0  0  0  0  0  0  0  0  0  0  0  0
   16.8108    9.8748   26.9061 C   0  0  0  0  0  0  0  0  0  0  0  0
   17.7418   10.2175   27.8870 C   0  0  0  0  0  0  0  0  0  0  0  0
   17.9271   11.5589   28.2033 C   0  0  0  0  0  0  0  0  0  0  0  0
   18.9442   11.9369   29.2727 C   0  0  0  0  0  0  0  0  0  0  0  0
   18.8085   13.2048   29.7536 F   0  0  0  0  0  0  0  0  0  0  0  0
   18.8702   11.1218   30.3685 F   0  0  0  0  0  0  0  0  0  0  0  0
   20.2310   11.8342   28.8319 F   0  0  0  0  0  0  0  0  0  0  0  0
   17.2563   12.5336   27.5334 N   0  0  0  0  0  0  0  0  0  0  0  0
   16.3773   12.1643   26.5726 C   0  0  0  0  0  0  0  0  0  0  0  0
   12.4886   10.0033   24.8636 C   0  0  0  0  0  0  0  0  0  0  0  0
   11.1387   10.5847   24.4721 C   0  0  0  0  0  0  0  0  0  0  0  0
    7.8848   13.0146   23.2599 N   0  0  0  0  0  0  0  0  0  0  0  0
    6.7263   13.0216   24.0747 O   0  0  0  0  0  0  0  0  0  0  0  0
  2  1  1  1
  2  3  1  0
  3  4  1  0
  4  5  1  0
  5  6  2  0
  5  7  1  0
  7  8  1  0
  8  9  1  0
  9 10  1  0
 10 11  1  0
 11 12  1  0
 12 13  2  0
 13 14  1  0
 14 15  2  0
 15 16  1  0
 16 17  1  0
 16 18  1  0
 16 19  1  0
 15 20  1  0
 20 21  2  0
 10 22  1  0
 22 23  1  0
  4 24  2  0
 24 25  1  0
 25  2  1  0
 23  7  1  0
 21 12  1  0
M  END
>  <energy_score>  (1234) 
-3.060969

>  <inchikey>  (1234) 
None

>  <smiles>  (1234) 
None

>  <ref_pdb>  (1234) 
A0875a

>  <alias>  (1234) 
None

>  <HIPPO Pose ID>  (1234) 
500580

>  <name>  (1234) 
P500580

>  <HIPPO Compound ID>  (1234) 
315370

>  <ref_mols>  (1234) 
A2629a,A0875a

>  <distance_score>  (1234) 
1.926601

>  <inspiration_score>  (1234) 
None

$$$$
P500581
     RDKit          3D

 25 27  0  0  0  0  0  0  0  0999 V2000
    9.7729    9.8341   23.6312 C   0  0  0  0  0  0  0  0  0  0  0  0
    8.9470   10.5336   24.5641 O   0  0  0  0  0  0  0  0  0  0  0  0
    9.7803   11.4810   25.1627 N   0  0  0  0  0  0  0  0  0  0  0  0
    9.6231   12.6571   24.6280 C   0  0  0  0  0  0  0  0  0  0  0  0
   10.7526   13.6625   24.7501 C   0  0  0  0  0  0  0  0  0  0  0  0
   10.5432   14.8341   24.4905 O   0  0  0  0  0  0  0  0  0  0  0  0
   12.0079   13.1544   25.0636 N   0  0  0  0  0  0  0  0  0  0  0  0
   12.4900   13.1020   26.4140 C   0  0  0  0  0  0  0  0  0  0  0  0
   13.8837   12.4657   26.7315 C   0  0  0  0  0  0  0  0  0  0  0  0
   14.7054   11.9762   25.5439 C   0  0  0  0  0  0  0  0  0  0  0  0
   15.4615   12.9738   24.8914 O   0  0  0  0  0  0  0  0  0  0  0  0
   15.6769   10.7932   25.7491 C   0  0  0  0  0  0  0  0  0  0  0  0
   16.7247   10.8234   26.8229 C   0  0  0  0  0  0  0  0  0  0  0  0
   17.4645    9.6528   27.0564 C   0  0  0  0  0  0  0  0  0  0  0  0
   18.4591    9.6226   28.0294 C   0  0  0  0  0  0  0  0  0  0  0  0
   18.6973   10.7754   28.7507 C   0  0  0  0  0  0  0  0  0  0  0  0
   18.0224   11.9257   28.5550 N   0  0  0  0  0  0  0  0  0  0  0  0
   17.0707   11.9272   27.5923 C   0  0  0  0  0  0  0  0  0  0  0  0
   13.7052   11.5392   24.5159 C   0  0  0  0  0  0  0  0  0  0  0  0
   12.8287   12.6763   24.0084 C   0  0  0  0  0  0  0  0  0  0  0  0
    8.4944   13.1226   23.8765 C   0  0  0  0  0  0  0  0  0  0  0  0
    7.1406   13.0998   24.1402 C   0  0  0  0  0  0  0  0  0  0  0  0
    6.5369   13.9495   23.1780 C   0  0  0  0  0  0  0  0  0  0  0  0
    7.5500   14.3780   22.3598 C   0  0  0  0  0  0  0  0  0  0  0  0
    8.7259   13.8247   22.7304 O   0  0  0  0  0  0  0  0  0  0  0  0
  1  2  1  0
  2  3  1  0
  3  4  2  0
  4  5  1  0
  5  6  2  0
  5  7  1  0
  7  8  1  0
  8  9  1  0
  9 10  1  0
 10 11  1  0
 10 12  1  0
 12 13  1  0
 13 14  2  0
 14 15  1  0
 15 16  2  0
 16 17  1  0
 17 18  2  0
 10 19  1  0
 19 20  1  0
  4 21  1  0
 21 22  2  0
 22 23  1  0
 23 24  2  0
 24 25  1  0
 20  7  1  0
 25 21  1  0
 18 13  1  0
M  END
>  <energy_score>  (1235) 
-49.287817

>  <inchikey>  (1235) 
None

>  <smiles>  (1235) 
None

>  <ref_pdb>  (1235) 
A0875a

>  <alias>  (1235) 
None

>  <HIPPO Pose ID>  (1235) 
500581

>  <name>  (1235) 
P500581

>  <HIPPO Compound ID>  (1235) 
315371

>  <ref_mols>  (1235) 
A2629a,A0875a

>  <distance_score>  (1235) 
1.548971

>  <inspiration_score>  (1235) 
None

$$$$
P500582
     RDKit          3D

 25 27  0  0  0  0  0  0  0  0999 V2000
    8.8444    9.6613   24.4805 C   0  0  0  0  0  0  0  0  0  0  0  0
    8.9532   10.7966   25.2911 O   0  0  0  0  0  0  0  0  0  0  0  0
    7.7529   11.4297   25.4126 N   0  0  0  0  0  0  0  0  0  0  0  0
    7.6550   12.4650   24.6329 C   0  0  0  0  0  0  0  0  0  0  0  0
    8.7060   12.9520   23.5961 C   0  0  0  0  0  0  0  0  0  0  0  0
    8.3405   13.5568   22.5952 O   0  0  0  0  0  0  0  0  0  0  0  0
   10.0651   12.7878   23.8654 N   0  0  0  0  0  0  0  0  0  0  0  0
   10.7448   13.7723   24.6440 C   0  0  0  0  0  0  0  0  0  0  0  0
   12.2258   13.4331   24.8835 C   0  0  0  0  0  0  0  0  0  0  0  0
   12.6286   12.0265   25.2276 C   0  0  0  0  0  0  0  0  0  0  0  0
   14.1095   11.6962   24.9921 C   0  0  0  0  0  0  0  0  0  0  0  0
   14.6030   11.5953   23.8770 O   0  0  0  0  0  0  0  0  0  0  0  0
   15.0057   11.4341   26.1409 C   0  0  0  0  0  0  0  0  0  0  0  0
   16.0298   10.4944   26.0126 C   0  0  0  0  0  0  0  0  0  0  0  0
   16.8709   10.2383   27.0928 C   0  0  0  0  0  0  0  0  0  0  0  0
   16.6479   10.9252   28.2738 C   0  0  0  0  0  0  0  0  0  0  0  0
   15.6664   11.8405   28.4287 N   0  0  0  0  0  0  0  0  0  0  0  0
   14.8878   12.0970   27.3534 C   0  0  0  0  0  0  0  0  0  0  0  0
   11.6353   11.0727   24.6050 C   0  0  0  0  0  0  0  0  0  0  0  0
   10.8738   11.6731   23.4114 C   0  0  0  0  0  0  0  0  0  0  0  0
    6.4458   13.2259   24.8054 C   0  0  0  0  0  0  0  0  0  0  0  0
    5.5431   13.2516   25.8615 C   0  0  0  0  0  0  0  0  0  0  0  0
    4.5646   14.2181   25.5377 C   0  0  0  0  0  0  0  0  0  0  0  0
    4.9037   14.6816   24.2919 C   0  0  0  0  0  0  0  0  0  0  0  0
    6.0448   14.1052   23.8502 O   0  0  0  0  0  0  0  0  0  0  0  0
  1  2  1  0
  2  3  1  0
  3  4  2  0
  4  5  1  0
  5  6  2  0
  5  7  1  0
  7  8  1  0
  8  9  1  0
  9 10  1  0
 10 11  1  0
 11 12  2  0
 11 13  1  0
 13 14  2  0
 14 15  1  0
 15 16  2  0
 16 17  1  0
 17 18  2  0
 10 19  1  0
 19 20  1  0
  4 21  1  0
 21 22  2  0
 22 23  1  0
 23 24  2  0
 24 25  1  0
 20  7  1  0
 25 21  1  0
 18 13  1  0
M  END
>  <energy_score>  (1236) 
-7.745622

>  <inchikey>  (1236) 
None

>  <smiles>  (1236) 
None

>  <ref_pdb>  (1236) 
A0875a

>  <alias>  (1236) 
None

>  <HIPPO Pose ID>  (1236) 
500582

>  <name>  (1236) 
P500582

>  <HIPPO Compound ID>  (1236) 
315378

>  <ref_mols>  (1236) 
A2629a,A0875a

>  <distance_score>  (1236) 
1.53174

>  <inspiration_score>  (1236) 
None

$$$$
P500585
     RDKit          3D

 27 30  0  0  0  0  0  0  0  0999 V2000
   10.3902   14.5913   24.2953 O   0  0  0  0  0  0  0  0  0  0  0  0
   10.7727   13.4773   24.6045 C   0  0  0  0  0  0  0  0  0  0  0  0
    9.7594   12.3776   24.6666 C   0  0  0  0  0  0  0  0  0  0  0  0
    9.1384   12.0379   25.7491 N   0  0  0  0  0  0  0  0  0  0  0  0
    8.4452   10.8447   25.4491 O   0  0  0  0  0  0  0  0  0  0  0  0
    8.9960   10.3610   24.2408 C   0  0  2  0  0  0  0  0  0  0  0  0
   10.2915    9.5817   24.3720 C   0  0  0  0  0  0  0  0  0  0  0  0
   11.2432   10.2832   23.5920 O   0  0  0  0  0  0  0  0  0  0  0  0
   10.4890   11.0637   22.6709 C   0  0  0  0  0  0  0  0  0  0  0  0
    9.3820   11.5908   23.4851 C   0  0  2  0  0  0  0  0  0  0  0  0
   12.0548   13.1288   25.0058 N   0  0  0  0  0  0  0  0  0  0  0  0
   12.4405   13.1602   26.3940 C   0  0  0  0  0  0  0  0  0  0  0  0
   13.7903   12.5010   26.8059 C   0  0  0  0  0  0  0  0  0  0  0  0
   14.7437   12.1179   25.6776 C   0  0  0  0  0  0  0  0  0  0  0  0
   15.8090   11.0769   26.0339 C   0  0  0  0  0  0  0  0  0  0  0  0
   16.6907   11.5031   27.1695 C   0  0  0  0  0  0  0  0  0  0  0  0
   16.7607   10.7589   28.3484 C   0  0  0  0  0  0  0  0  0  0  0  0
   17.5784   11.1771   29.3984 C   0  0  0  0  0  0  0  0  0  0  0  0
   18.3272   12.3442   29.2574 C   0  0  0  0  0  0  0  0  0  0  0  0
   19.2132   12.8206   30.4012 C   0  0  0  0  0  0  0  0  0  0  0  0
   19.3174   11.9063   31.4146 F   0  0  0  0  0  0  0  0  0  0  0  0
   18.7500   13.9587   30.9945 F   0  0  0  0  0  0  0  0  0  0  0  0
   20.4961   13.0850   30.0231 F   0  0  0  0  0  0  0  0  0  0  0  0
   18.2679   13.0864   28.1175 N   0  0  0  0  0  0  0  0  0  0  0  0
   17.4690   12.6542   27.1152 C   0  0  0  0  0  0  0  0  0  0  0  0
   13.8937   11.5929   24.5624 C   0  0  0  0  0  0  0  0  0  0  0  0
   13.0288   12.7281   24.0441 C   0  0  0  0  0  0  0  0  0  0  0  0
  1  2  2  0
  2  3  1  0
  3  4  2  0
  4  5  1  0
  5  6  1  0
  6  7  1  1
  7  8  1  0
  8  9  1  0
 10  9  1  6
  2 11  1  0
 11 12  1  0
 12 13  1  0
 13 14  1  0
 14 15  1  0
 15 16  1  0
 16 17  2  0
 17 18  1  0
 18 19  2  0
 19 20  1  0
 20 21  1  0
 20 22  1  0
 20 23  1  0
 19 24  1  0
 24 25  2  0
 14 26  1  0
 26 27  1  0
 10  3  1  0
 27 11  1  0
 10  6  1  0
 25 16  1  0
M  END
>  <energy_score>  (1237) 
-47.158652

>  <inchikey>  (1237) 
None

>  <smiles>  (1237) 
None

>  <ref_pdb>  (1237) 
A0875a

>  <alias>  (1237) 
None

>  <HIPPO Pose ID>  (1237) 
500585

>  <name>  (1237) 
P500585

>  <HIPPO Compound ID>  (1237) 
315384

>  <ref_mols>  (1237) 
A2629a,A0875a

>  <distance_score>  (1237) 
1.715361

>  <inspiration_score>  (1237) 
None

$$$$
P500587
     RDKit          3D

 29 32  0  0  0  0  0  0  0  0999 V2000
   10.5522   15.0900   24.3474 O   0  0  0  0  0  0  0  0  0  0  0  0
   10.7914   13.9243   24.5997 C   0  0  0  0  0  0  0  0  0  0  0  0
    9.6583   12.9978   24.3794 C   0  0  0  0  0  0  0  0  0  0  0  0
    8.9044   13.0452   23.3289 N   0  0  0  0  0  0  0  0  0  0  0  0
    8.2097   11.8313   23.3686 O   0  0  0  0  0  0  0  0  0  0  0  0
    8.9548   10.9237   24.2007 C   0  0  1  0  0  0  0  0  0  0  0  0
   10.1815   10.3479   23.4618 C   0  0  0  0  0  0  0  0  0  0  0  0
   10.9719   11.3910   22.8782 O   0  0  0  0  0  0  0  0  0  0  0  0
   10.0847    9.0758   22.6225 C   0  0  0  0  0  0  0  0  0  0  0  0
   10.2978    8.2530   23.7956 O   0  0  0  0  0  0  0  0  0  0  0  0
   10.9430    9.3828   24.3902 C   0  0  0  0  0  0  0  0  0  0  0  0
    9.3688   11.8736   25.2840 C   0  0  0  0  0  0  0  0  0  0  0  0
   12.0047   13.4006   25.0613 N   0  0  0  0  0  0  0  0  0  0  0  0
   12.3484   13.2703   26.4685 C   0  0  0  0  0  0  0  0  0  0  0  0
   13.7461   12.6937   26.8574 C   0  0  0  0  0  0  0  0  0  0  0  0
   14.3852   11.7738   25.8412 C   0  0  0  0  0  0  0  0  0  0  0  0
   15.8735   11.9505   25.5954 C   0  0  0  0  0  0  0  0  0  0  0  0
   16.6788   11.2854   26.6796 C   0  0  0  0  0  0  0  0  0  0  0  0
   17.1196   11.9996   27.7940 C   0  0  0  0  0  0  0  0  0  0  0  0
   17.8551   11.3525   28.7856 C   0  0  0  0  0  0  0  0  0  0  0  0
   18.1460    9.9946   28.6443 C   0  0  0  0  0  0  0  0  0  0  0  0
   18.9346    9.2869   29.7400 C   0  0  0  0  0  0  0  0  0  0  0  0
   19.9119   10.0777   30.2763 F   0  0  0  0  0  0  0  0  0  0  0  0
   19.5687    8.1537   29.3258 F   0  0  0  0  0  0  0  0  0  0  0  0
   18.1480    8.9183   30.7917 F   0  0  0  0  0  0  0  0  0  0  0  0
   17.7122    9.2824   27.5655 N   0  0  0  0  0  0  0  0  0  0  0  0
   17.0065    9.9356   26.6184 C   0  0  0  0  0  0  0  0  0  0  0  0
   13.5955   11.6831   24.5786 C   0  0  0  0  0  0  0  0  0  0  0  0
   12.9732   12.9638   24.0956 C   0  0  0  0  0  0  0  0  0  0  0  0
  1  2  2  0
  2  3  1  0
  3  4  2  0
  4  5  1  0
  5  6  1  0
  6  7  1  6
  7  8  1  0
  7  9  1  0
  9 10  1  0
 10 11  1  0
  6 12  1  0
  2 13  1  0
 13 14  1  0
 14 15  1  0
 15 16  1  0
 16 17  1  0
 17 18  1  0
 18 19  2  0
 19 20  1  0
 20 21  2  0
 21 22  1  0
 22 23  1  0
 22 24  1  0
 22 25  1  0
 21 26  1  0
 26 27  2  0
 16 28  1  0
 28 29  1  0
 12  3  1  0
 29 13  1  0
 11  7  1  0
 27 18  1  0
M  END
>  <energy_score>  (1238) 
-10.108137

>  <inchikey>  (1238) 
ITLAYJIQJYKKAU-MRXNPFEDSA-N

>  <smiles>  (1238) 
O=C(C1=NO[C@@H](C2(O)COC2)C1)N1CCC(Cc2ccc(C(F)(F)F)nc2)CC1

>  <ref_pdb>  (1238) 
A0875a

>  <alias>  (1238) 
None

>  <HIPPO Pose ID>  (1238) 
500587

>  <name>  (1238) 
P500587

>  <HIPPO Compound ID>  (1238) 
315396

>  <ref_mols>  (1238) 
A2629a,A0875a

>  <distance_score>  (1238) 
1.790335

>  <inspiration_score>  (1238) 
None

$$$$
VCQJUYQDAIUTKT-UHFFFAOYSA-N-P182-P28-P182-601501
     RDKit          3D

 25 28  0  0  0  0  0  0  0  0999 V2000
    5.4774   13.5401   26.8124 C   0  0  0  0  0  0  0  0  0  0  0  0
    5.5201   12.1151   27.1858 C   0  0  0  0  0  0  0  0  0  0  0  0
    4.9051   11.6179   28.2480 N   0  0  0  0  0  0  0  0  0  0  0  0
    4.8623   10.2743   28.0605 C   0  0  0  0  0  0  0  0  0  0  0  0
    5.4727    9.9766   26.8799 C   0  0  0  0  0  0  0  0  0  0  0  0
    6.1044   11.1111   26.4405 N   0  0  0  0  0  0  0  0  0  0  0  0
    7.1378   11.1079   25.4589 C   0  0  0  0  0  0  0  0  0  0  0  0
    7.8354   12.2586   25.1702 C   0  0  0  0  0  0  0  0  0  0  0  0
    8.9143   12.1878   24.3032 C   0  0  0  0  0  0  0  0  0  0  0  0
    9.7859   13.3739   24.2440 C   0  0  0  0  0  0  0  0  0  0  0  0
   10.0429   13.8928   25.2513 O   0  0  0  0  0  0  0  0  0  0  0  0
   10.2293   13.6989   22.8241 N   0  0  0  0  0  0  0  0  0  0  0  0
   11.1538   14.6674   22.3428 C   0  0  1  0  0  0  0  0  0  0  0  0
   12.4825   14.0401   22.0689 C   0  0  0  0  0  0  0  0  0  0  0  0
   12.5788   13.9702   20.5410 C   0  0  0  0  0  0  0  0  0  0  0  0
   11.3914   14.4862   19.9909 O   0  0  0  0  0  0  0  0  0  0  0  0
   10.9375   15.3379   21.0240 C   0  0  1  0  0  0  0  0  0  0  0  0
    9.6998   15.9808   20.6637 C   0  0  0  0  0  0  0  0  0  0  0  0
    9.6040   16.8945   19.6064 C   0  0  0  0  0  0  0  0  0  0  0  0
    8.5242   17.6577   19.9226 C   0  0  0  0  0  0  0  0  0  0  0  0
    7.9695   17.0426   21.0042 N   0  0  0  0  0  0  0  0  0  0  0  0
    8.5834   15.9138   21.3758 N   0  0  0  0  0  0  0  0  0  0  0  0
    9.2592   10.9898   23.7085 C   0  0  0  0  0  0  0  0  0  0  0  0
    8.5266    9.8804   24.0663 C   0  0  0  0  0  0  0  0  0  0  0  0
    7.4895    9.9109   24.9284 N   0  0  0  0  0  0  0  0  0  0  0  0
  1  2  1  0
  2  3  2  0
  3  4  1  0
  4  5  2  0
  5  6  1  0
  6  7  1  0
  7  8  2  0
  8  9  1  0
  9 10  1  0
 10 11  2  0
 10 12  1  0
 13 12  1  6
 13 14  1  0
 14 15  1  0
 15 16  1  0
 16 17  1  0
 17 18  1  6
 18 19  1  0
 19 20  2  0
 20 21  1  0
 21 22  1  0
  9 23  2  0
 23 24  1  0
 24 25  2  0
  6  2  1  0
 25  7  1  0
 17 13  1  0
 22 18  2  0
M  END
>  <energy_score>  (1239) 
-7.800996

>  <inchikey>  (1239) 
VCQJUYQDAIUTKT-UHFFFAOYSA-N

>  <smiles>  (1239) 
Cc1nccn1-c1cc(C(=O)NC2CCOC2c2cc[nH]n2)ccn1

>  <ref_pdb>  (1239) 
A0528a

>  <alias>  (1239) 
VCQJUYQDAIUTKT-UHFFFAOYSA-N-P182-P28-P182-601501

>  <HIPPO Pose ID>  (1239) 
501303

>  <name>  (1239) 
VCQJUYQDAIUTKT-UHFFFAOYSA-N-P182-P28-P182-601501

>  <HIPPO Compound ID>  (1239) 
294498

>  <ref_mols>  (1239) 
A0556a,A3435a

>  <distance_score>  (1239) 
1.920337

>  <inspiration_score>  (1239) 
None

$$$$
YDQNVLPVFDGYNB-UHFFFAOYSA-N-P182-P28-P182-601501
     RDKit          3D

 25 28  0  0  0  0  0  0  0  0999 V2000
    7.5221   14.3790   21.4659 C   0  0  0  0  0  0  0  0  0  0  0  0
    8.6012   15.4157   21.6056 C   0  0  0  0  0  0  0  0  0  0  0  0
    9.7567   15.2717   20.7568 N   0  0  0  0  0  0  0  0  0  0  0  0
    9.7481   15.8658   19.5464 N   0  0  0  0  0  0  0  0  0  0  0  0
   10.9493   15.5701   19.0597 C   0  0  0  0  0  0  0  0  0  0  0  0
   11.7169   14.7742   19.9102 C   0  0  0  0  0  0  0  0  0  0  0  0
   10.9394   14.6371   21.0252 C   0  0  0  0  0  0  0  0  0  0  0  0
   11.3212   13.7197   22.1874 C   0  0  1  0  0  0  0  0  0  0  0  0
   12.4285   13.9339   23.1542 C   0  0  0  0  0  0  0  0  0  0  0  0
   11.0307   14.1331   23.6063 C   0  0  2  0  0  0  0  0  0  0  0  0
   10.1595   13.1997   24.1812 N   0  0  0  0  0  0  0  0  0  0  0  0
    8.7075   13.3524   24.6598 C   0  0  0  0  0  0  0  0  0  0  0  0
    8.0297   14.2961   24.7241 O   0  0  0  0  0  0  0  0  0  0  0  0
    8.1137   12.0292   24.9855 C   0  0  0  0  0  0  0  0  0  0  0  0
    8.4995   10.8774   24.3051 C   0  0  0  0  0  0  0  0  0  0  0  0
    7.8637    9.7158   24.6445 C   0  0  0  0  0  0  0  0  0  0  0  0
    6.8739    9.6484   25.5618 N   0  0  0  0  0  0  0  0  0  0  0  0
    6.5012   10.7708   26.2279 C   0  0  0  0  0  0  0  0  0  0  0  0
    5.5984   10.6070   27.3352 N   0  0  0  0  0  0  0  0  0  0  0  0
    4.7957    9.5139   27.5567 C   0  0  0  0  0  0  0  0  0  0  0  0
    4.2551    9.6133   28.8037 C   0  0  0  0  0  0  0  0  0  0  0  0
    4.6527   10.7813   29.3615 N   0  0  0  0  0  0  0  0  0  0  0  0
    5.3968   11.3948   28.4534 C   0  0  0  0  0  0  0  0  0  0  0  0
    5.9692   12.7336   28.6601 C   0  0  0  0  0  0  0  0  0  0  0  0
    7.0794   11.9882   25.9209 C   0  0  0  0  0  0  0  0  0  0  0  0
  1  2  1  0
  2  3  1  0
  3  4  1  0
  4  5  2  0
  5  6  1  0
  6  7  2  0
  8  7  1  6
  8  9  1  0
  9 10  1  0
 10 11  1  1
 11 12  1  0
 12 13  2  0
 12 14  1  0
 14 15  2  0
 15 16  1  0
 16 17  2  0
 17 18  1  0
 18 19  1  0
 19 20  1  0
 20 21  2  0
 21 22  1  0
 22 23  2  0
 23 24  1  0
 18 25  2  0
  7  3  1  0
 10  8  1  0
 25 14  1  0
 23 19  1  0
M  END
>  <energy_score>  (1240) 
-5.338074

>  <inchikey>  (1240) 
YDQNVLPVFDGYNB-UHFFFAOYSA-N

>  <smiles>  (1240) 
CCn1nccc1C1CC1NC(=O)c1ccnc(-n2ccnc2C)c1

>  <ref_pdb>  (1240) 
A0528a

>  <alias>  (1240) 
YDQNVLPVFDGYNB-UHFFFAOYSA-N-P182-P28-P182-601501

>  <HIPPO Pose ID>  (1240) 
501343

>  <name>  (1240) 
YDQNVLPVFDGYNB-UHFFFAOYSA-N-P182-P28-P182-601501

>  <HIPPO Compound ID>  (1240) 
294518

>  <ref_mols>  (1240) 
A0556a,A3435a

>  <distance_score>  (1240) 
1.873302

>  <inspiration_score>  (1240) 
None

$$$$
KBSCUOAPIOAHTE-UHFFFAOYSA-N-P182-P28-P182-601501
     RDKit          3D

 25 27  0  0  0  0  0  0  0  0999 V2000
    8.4410   18.2864   19.6641 C   0  0  0  0  0  0  0  0  0  0  0  0
    8.9827   16.9711   20.0854 C   0  0  0  0  0  0  0  0  0  0  0  0
   10.0350   16.1709   19.7022 C   0  0  0  0  0  0  0  0  0  0  0  0
   10.2491   15.3258   20.8245 C   0  0  0  0  0  0  0  0  0  0  0  0
   11.5630   14.7027   21.2300 C   0  0  0  0  0  0  0  0  0  0  0  0
   12.0485   13.8738   20.2678 F   0  0  0  0  0  0  0  0  0  0  0  0
   12.5145   15.6953   21.3023 F   0  0  0  0  0  0  0  0  0  0  0  0
   11.6117   14.0303   22.6150 C   0  0  0  0  0  0  0  0  0  0  0  0
   10.5301   13.1876   23.0926 N   0  0  0  0  0  0  0  0  0  0  0  0
    9.6256   13.3255   24.3361 C   0  0  0  0  0  0  0  0  0  0  0  0
    9.6576   14.0954   25.2134 O   0  0  0  0  0  0  0  0  0  0  0  0
    8.6059   12.2300   24.4833 C   0  0  0  0  0  0  0  0  0  0  0  0
    8.9035   10.9270   24.1008 C   0  0  0  0  0  0  0  0  0  0  0  0
    8.0958    9.9269   24.5959 C   0  0  0  0  0  0  0  0  0  0  0  0
    7.0444   10.1327   25.4289 N   0  0  0  0  0  0  0  0  0  0  0  0
    6.7001   11.4068   25.7401 C   0  0  0  0  0  0  0  0  0  0  0  0
    5.5381   11.6387   26.5716 N   0  0  0  0  0  0  0  0  0  0  0  0
    4.7197   12.7473   26.5509 C   0  0  0  0  0  0  0  0  0  0  0  0
    3.6845   12.5014   27.4230 C   0  0  0  0  0  0  0  0  0  0  0  0
    3.8406   11.3043   28.0295 N   0  0  0  0  0  0  0  0  0  0  0  0
    4.9633   10.8264   27.5380 C   0  0  0  0  0  0  0  0  0  0  0  0
    5.5394    9.5976   28.0367 C   0  0  0  0  0  0  0  0  0  0  0  0
    7.4565   12.4795   25.2675 C   0  0  0  0  0  0  0  0  0  0  0  0
    9.1281   15.2695   21.5675 N   0  0  0  0  0  0  0  0  0  0  0  0
    8.4015   16.3116   21.1244 N   0  0  0  0  0  0  0  0  0  0  0  0
  1  2  1  0
  2  3  2  0
  3  4  1  0
  4  5  1  0
  5  6  1  0
  5  7  1  0
  5  8  1  0
  8  9  1  0
  9 10  1  0
 10 11  2  0
 10 12  1  0
 12 13  2  0
 13 14  1  0
 14 15  2  0
 15 16  1  0
 16 17  1  0
 17 18  1  0
 18 19  2  0
 19 20  1  0
 20 21  2  0
 21 22  1  0
 16 23  2  0
  4 24  2  0
 24 25  1  0
 25  2  1  0
 23 12  1  0
 21 17  1  0
M  END
>  <energy_score>  (1241) 
-1.349639

>  <inchikey>  (1241) 
KBSCUOAPIOAHTE-UHFFFAOYSA-N

>  <smiles>  (1241) 
Cc1cc(C(F)(F)CNC(=O)c2ccnc(-n3ccnc3C)c2)n[nH]1

>  <ref_pdb>  (1241) 
A0528a

>  <alias>  (1241) 
KBSCUOAPIOAHTE-UHFFFAOYSA-N-P182-P28-P182-601501

>  <HIPPO Pose ID>  (1241) 
501355

>  <name>  (1241) 
KBSCUOAPIOAHTE-UHFFFAOYSA-N-P182-P28-P182-601501

>  <HIPPO Compound ID>  (1241) 
294524

>  <ref_mols>  (1241) 
A0556a,A3435a

>  <distance_score>  (1241) 
1.822557

>  <inspiration_score>  (1241) 
None

$$$$
JWHKZRQYKFMBCX-UHFFFAOYSA-N-P182-P28-P182-601501
     RDKit          3D

 28 31  0  0  0  0  0  0  0  0999 V2000
    7.8265   19.2213   19.0077 C   0  0  0  0  0  0  0  0  0  0  0  0
    8.3327   17.9102   19.1337 O   0  0  0  0  0  0  0  0  0  0  0  0
    8.7672   17.6661   20.3868 C   0  0  0  0  0  0  0  0  0  0  0  0
    8.7381   18.4482   21.3195 O   0  0  0  0  0  0  0  0  0  0  0  0
    9.3590   16.3804   20.4238 C   0  0  0  0  0  0  0  0  0  0  0  0
   10.3677   15.9846   19.6087 N   0  0  0  0  0  0  0  0  0  0  0  0
   11.1182   15.0279   20.1613 N   0  0  0  0  0  0  0  0  0  0  0  0
   10.4268   14.6740   21.2570 C   0  0  0  0  0  0  0  0  0  0  0  0
   11.0315   13.5825   22.1797 C   0  0  0  0  0  0  0  0  0  0  0  0
   11.3654   13.7839   23.6082 C   0  0  0  0  0  0  0  0  0  0  0  0
   10.2566   12.8930   24.1891 N   0  0  0  0  0  0  0  0  0  0  0  0
    8.9484   13.2546   24.8462 C   0  0  0  0  0  0  0  0  0  0  0  0
    8.4363   14.3032   24.9962 O   0  0  0  0  0  0  0  0  0  0  0  0
    8.1667   12.0519   25.2731 C   0  0  0  0  0  0  0  0  0  0  0  0
    8.4159   10.7942   24.7424 C   0  0  0  0  0  0  0  0  0  0  0  0
    7.5614    9.7819   25.0962 C   0  0  0  0  0  0  0  0  0  0  0  0
    6.5244    9.9198   25.9562 N   0  0  0  0  0  0  0  0  0  0  0  0
    6.2614   11.1463   26.4540 C   0  0  0  0  0  0  0  0  0  0  0  0
    5.1515   11.3302   27.3551 N   0  0  0  0  0  0  0  0  0  0  0  0
    4.5603   12.5456   27.6632 C   0  0  0  0  0  0  0  0  0  0  0  0
    3.5033   12.2733   28.4961 C   0  0  0  0  0  0  0  0  0  0  0  0
    3.4224   10.9524   28.7575 N   0  0  0  0  0  0  0  0  0  0  0  0
    4.4119   10.3991   28.0895 C   0  0  0  0  0  0  0  0  0  0  0  0
    4.6208    8.9524   28.1690 C   0  0  0  0  0  0  0  0  0  0  0  0
    7.0539   12.2386   26.1052 C   0  0  0  0  0  0  0  0  0  0  0  0
   10.0711   12.6053   22.6802 C   0  0  0  0  0  0  0  0  0  0  0  0
    9.1698   15.3157   21.2638 C   0  0  0  0  0  0  0  0  0  0  0  0
    7.3220   14.9422   22.1237 I   0  0  0  0  0  0  0  0  0  0  0  0
  1  2  1  0
  2  3  1  0
  3  4  2  0
  3  5  1  0
  5  6  1  0
  6  7  1  0
  7  8  2  0
  8  9  1  0
  9 10  1  0
 10 11  1  0
 11 12  1  0
 12 13  2  0
 12 14  1  0
 14 15  2  0
 15 16  1  0
 16 17  2  0
 17 18  1  0
 18 19  1  0
 19 20  1  0
 20 21  2  0
 21 22  1  0
 22 23  2  0
 23 24  1  0
 18 25  2  0
 11 26  1  0
  8 27  1  0
 27 28  1  0
 27  5  2  0
 26  9  1  0
 25 14  1  0
 23 19  1  0
M  END
>  <energy_score>  (1242) 
-23.827076

>  <inchikey>  (1242) 
JWHKZRQYKFMBCX-UHFFFAOYSA-N

>  <smiles>  (1242) 
COC(=O)c1[nH]nc(C2CN(C(=O)c3ccnc(-n4ccnc4C)c3)C2)c1I

>  <ref_pdb>  (1242) 
A0528a

>  <alias>  (1242) 
JWHKZRQYKFMBCX-UHFFFAOYSA-N-P182-P28-P182-601501

>  <HIPPO Pose ID>  (1242) 
501501

>  <name>  (1242) 
JWHKZRQYKFMBCX-UHFFFAOYSA-N-P182-P28-P182-601501

>  <HIPPO Compound ID>  (1242) 
294597

>  <ref_mols>  (1242) 
A0556a,A3435a

>  <distance_score>  (1242) 
1.753727

>  <inspiration_score>  (1242) 
None

$$$$
AUVHKVNKJKAPGI-UHFFFAOYSA-N-P308-P15-P308-601501
     RDKit          3D

 17 18  0  0  0  0  0  0  0  0999 V2000
    7.9588   14.1413   22.4259 C   0  0  0  0  0  0  0  0  0  0  0  0
    9.2679   14.0152   23.1924 C   0  0  0  0  0  0  0  0  0  0  0  0
    9.3322   12.8215   24.0707 N   0  0  0  0  0  0  0  0  0  0  0  0
   10.5797   12.5421   24.6805 N   0  0  0  0  0  0  0  0  0  0  0  0
    8.2262   12.5437   24.8838 C   0  0  0  0  0  0  0  0  0  0  0  0
    7.5849   13.5687   25.5682 C   0  0  0  0  0  0  0  0  0  0  0  0
    6.4525   13.4438   26.2766 N   0  0  0  0  0  0  0  0  0  0  0  0
    5.8730   12.2309   26.3428 C   0  0  0  0  0  0  0  0  0  0  0  0
    4.5461   12.1844   27.0225 C   0  0  0  0  0  0  0  0  0  0  0  0
    4.2948   11.3855   28.2676 C   0  0  0  0  0  0  0  0  0  0  0  0
    4.4285   12.8760   28.3637 C   0  0  0  0  0  0  0  0  0  0  0  0
    6.4732   11.1209   25.7772 C   0  0  0  0  0  0  0  0  0  0  0  0
    7.6661   11.2689   25.0516 C   0  0  0  0  0  0  0  0  0  0  0  0
    8.1876    9.9996   24.4937 C   0  0  0  0  0  0  0  0  0  0  0  0
    7.7724    8.9214   24.9010 O   0  0  0  0  0  0  0  0  0  0  0  0
    9.0577   10.1658   23.4803 O   0  0  0  0  0  0  0  0  0  0  0  0
    9.5722    8.9434   22.9605 C   0  0  0  0  0  0  0  0  0  0  0  0
  1  2  1  0
  2  3  1  0
  3  4  1  0
  3  5  1  0
  5  6  2  0
  6  7  1  0
  7  8  2  0
  8  9  1  0
  9 10  1  0
 10 11  1  0
  8 12  1  0
 12 13  2  0
 13 14  1  0
 14 15  2  0
 14 16  1  0
 16 17  1  0
 13  5  1  0
 11  9  1  0
M  END
>  <energy_score>  (1243) 
-27.418614

>  <inchikey>  (1243) 
AUVHKVNKJKAPGI-UHFFFAOYSA-N

>  <smiles>  (1243) 
CCN(N)c1cnc(C2CC2)cc1C(=O)OC

>  <ref_pdb>  (1243) 
A0528a

>  <alias>  (1243) 
AUVHKVNKJKAPGI-UHFFFAOYSA-N-P308-P15-P308-601501

>  <HIPPO Pose ID>  (1243) 
501625

>  <name>  (1243) 
AUVHKVNKJKAPGI-UHFFFAOYSA-N-P308-P15-P308-601501

>  <HIPPO Compound ID>  (1243) 
292526

>  <ref_mols>  (1243) 
A4331a,A0514a

>  <distance_score>  (1243) 
1.808149

>  <inspiration_score>  (1243) 
None

$$$$
DVXCEQZJZBEIOB-UHFFFAOYSA-N-P308-P15-P308-601501
     RDKit          3D

 18 19  0  0  0  0  0  0  0  0999 V2000
    9.4652    8.6003   23.1066 C   0  0  0  0  0  0  0  0  0  0  0  0
    8.5737    9.4713   23.7923 O   0  0  0  0  0  0  0  0  0  0  0  0
    9.1911   10.4631   24.4719 C   0  0  0  0  0  0  0  0  0  0  0  0
   10.3919   10.6211   24.6293 O   0  0  0  0  0  0  0  0  0  0  0  0
    8.1311   11.3605   24.9772 C   0  0  0  0  0  0  0  0  0  0  0  0
    7.0342   10.7975   25.6442 C   0  0  0  0  0  0  0  0  0  0  0  0
    6.0898   11.6394   26.2135 C   0  0  0  0  0  0  0  0  0  0  0  0
    5.0180   11.1516   27.1498 C   0  0  0  0  0  0  0  0  0  0  0  0
    3.8109   12.0157   27.4520 C   0  0  0  0  0  0  0  0  0  0  0  0
    4.8873   11.8777   28.4792 C   0  0  0  0  0  0  0  0  0  0  0  0
    6.1759   12.9770   26.0551 N   0  0  0  0  0  0  0  0  0  0  0  0
    7.2100   13.4873   25.3688 C   0  0  0  0  0  0  0  0  0  0  0  0
    8.2376   12.7444   24.8090 C   0  0  0  0  0  0  0  0  0  0  0  0
    9.3242   13.3509   24.1492 N   0  0  0  0  0  0  0  0  0  0  0  0
   10.4898   13.4108   24.9757 N   0  0  0  0  0  0  0  0  0  0  0  0
    8.9770   14.5627   23.3661 C   0  0  0  0  0  0  0  0  0  0  0  0
   10.1169   14.9649   22.4432 C   0  0  0  0  0  0  0  0  0  0  0  0
   11.1573   15.4144   23.2086 F   0  0  0  0  0  0  0  0  0  0  0  0
  1  2  1  0
  2  3  1  0
  3  4  2  0
  3  5  1  0
  5  6  2  0
  6  7  1  0
  7  8  1  0
  8  9  1  0
  9 10  1  0
  7 11  2  0
 11 12  1  0
 12 13  2  0
 13 14  1  0
 14 15  1  0
 14 16  1  0
 16 17  1  0
 17 18  1  0
 13  5  1  0
 10  8  1  0
M  END
>  <energy_score>  (1244) 
-32.093459

>  <inchikey>  (1244) 
DVXCEQZJZBEIOB-UHFFFAOYSA-N

>  <smiles>  (1244) 
COC(=O)c1cc(C2CC2)ncc1N(N)CCF

>  <ref_pdb>  (1244) 
A0528a

>  <alias>  (1244) 
DVXCEQZJZBEIOB-UHFFFAOYSA-N-P308-P15-P308-601501

>  <HIPPO Pose ID>  (1244) 
501629

>  <name>  (1244) 
DVXCEQZJZBEIOB-UHFFFAOYSA-N-P308-P15-P308-601501

>  <HIPPO Compound ID>  (1244) 
292528

>  <ref_mols>  (1244) 
A4331a,A0514a

>  <distance_score>  (1244) 
1.333948

>  <inspiration_score>  (1244) 
None

$$$$
WSWLXYHAJMPWAD-UHFFFAOYSA-N-P308-P15-P308-601501
     RDKit          3D

 18 20  0  0  0  0  0  0  0  0999 V2000
    9.6286    8.4848   23.4868 C   0  0  0  0  0  0  0  0  0  0  0  0
    8.8795    9.3485   24.3354 O   0  0  0  0  0  0  0  0  0  0  0  0
    8.8532   10.6204   23.8775 C   0  0  0  0  0  0  0  0  0  0  0  0
    9.3472   11.0111   22.8333 O   0  0  0  0  0  0  0  0  0  0  0  0
    8.1156   11.4890   24.8132 C   0  0  0  0  0  0  0  0  0  0  0  0
    7.0173   10.9407   25.4989 C   0  0  0  0  0  0  0  0  0  0  0  0
    6.2182   11.7688   26.2737 C   0  0  0  0  0  0  0  0  0  0  0  0
    5.0385   11.2677   27.0591 C   0  0  0  0  0  0  0  0  0  0  0  0
    4.8098   11.7890   28.4618 C   0  0  0  0  0  0  0  0  0  0  0  0
    3.9047   12.2330   27.3573 C   0  0  0  0  0  0  0  0  0  0  0  0
    6.4851   13.0888   26.3719 N   0  0  0  0  0  0  0  0  0  0  0  0
    7.5285   13.5908   25.6913 C   0  0  0  0  0  0  0  0  0  0  0  0
    8.4024   12.8555   24.9045 C   0  0  0  0  0  0  0  0  0  0  0  0
    9.4539   13.5575   24.2720 N   0  0  0  0  0  0  0  0  0  0  0  0
   10.6948   12.9399   24.0746 N   0  0  0  0  0  0  0  0  0  0  0  0
    9.0872   14.6825   23.3867 C   0  0  0  0  0  0  0  0  0  0  0  0
    8.0176   14.5401   22.3321 C   0  0  0  0  0  0  0  0  0  0  0  0
    9.4500   14.7098   21.9269 C   0  0  0  0  0  0  0  0  0  0  0  0
  1  2  1  0
  2  3  1  0
  3  4  2  0
  3  5  1  0
  5  6  2  0
  6  7  1  0
  7  8  1  0
  8  9  1  0
  9 10  1  0
  7 11  2  0
 11 12  1  0
 12 13  2  0
 13 14  1  0
 14 15  1  0
 14 16  1  0
 16 17  1  0
 17 18  1  0
 13  5  1  0
 18 16  1  0
 10  8  1  0
M  END
>  <energy_score>  (1245) 
-24.212054

>  <inchikey>  (1245) 
WSWLXYHAJMPWAD-UHFFFAOYSA-N

>  <smiles>  (1245) 
COC(=O)c1cc(C2CC2)ncc1N(N)C1CC1

>  <ref_pdb>  (1245) 
A0528a

>  <alias>  (1245) 
WSWLXYHAJMPWAD-UHFFFAOYSA-N-P308-P15-P308-601501

>  <HIPPO Pose ID>  (1245) 
501633

>  <name>  (1245) 
WSWLXYHAJMPWAD-UHFFFAOYSA-N-P308-P15-P308-601501

>  <HIPPO Compound ID>  (1245) 
292530

>  <ref_mols>  (1245) 
A4331a,A0514a

>  <distance_score>  (1245) 
1.543426

>  <inspiration_score>  (1245) 
None

$$$$
NEDFGYNJSPLQQP-UHFFFAOYSA-N-P308-P15-P308-601501
     RDKit          3D

 18 19  0  0  0  0  0  0  0  0999 V2000
    8.9389   15.5151   21.9377 C   0  0  0  0  0  0  0  0  0  0  0  0
    9.4176   14.5420   22.4538 C   0  0  0  0  0  0  0  0  0  0  0  0
   10.0475   13.3454   23.0367 C   0  0  0  0  0  0  0  0  0  0  0  0
    9.9782   13.3314   24.5171 N   0  0  0  0  0  0  0  0  0  0  0  0
   10.6969   14.3368   25.2204 N   0  0  0  0  0  0  0  0  0  0  0  0
    8.7419   12.8931   25.0321 C   0  0  0  0  0  0  0  0  0  0  0  0
    7.8497   13.7941   25.5859 C   0  0  0  0  0  0  0  0  0  0  0  0
    6.6472   13.4753   26.0862 N   0  0  0  0  0  0  0  0  0  0  0  0
    6.2352   12.1911   26.0420 C   0  0  0  0  0  0  0  0  0  0  0  0
    4.8550   11.9798   26.5745 C   0  0  0  0  0  0  0  0  0  0  0  0
    4.5110   11.1009   27.7417 C   0  0  0  0  0  0  0  0  0  0  0  0
    4.5657   12.5830   27.9391 C   0  0  0  0  0  0  0  0  0  0  0  0
    7.0474   11.1976   25.5137 C   0  0  0  0  0  0  0  0  0  0  0  0
    8.3132   11.5552   25.0141 C   0  0  0  0  0  0  0  0  0  0  0  0
    9.2195   10.4976   24.5058 C   0  0  0  0  0  0  0  0  0  0  0  0
   10.4352   10.5134   24.5837 O   0  0  0  0  0  0  0  0  0  0  0  0
    8.4758    9.5617   23.8667 O   0  0  0  0  0  0  0  0  0  0  0  0
    9.2712    8.5977   23.1808 C   0  0  0  0  0  0  0  0  0  0  0  0
  1  2  3  0
  2  3  1  0
  3  4  1  0
  4  5  1  0
  4  6  1  0
  6  7  2  0
  7  8  1  0
  8  9  2  0
  9 10  1  0
 10 11  1  0
 11 12  1  0
  9 13  1  0
 13 14  2  0
 14 15  1  0
 15 16  2  0
 15 17  1  0
 17 18  1  0
 14  6  1  0
 12 10  1  0
M  END
>  <energy_score>  (1246) 
-31.131242

>  <inchikey>  (1246) 
NEDFGYNJSPLQQP-UHFFFAOYSA-N

>  <smiles>  (1246) 
C#CCN(N)c1cnc(C2CC2)cc1C(=O)OC

>  <ref_pdb>  (1246) 
A0528a

>  <alias>  (1246) 
NEDFGYNJSPLQQP-UHFFFAOYSA-N-P308-P15-P308-601501

>  <HIPPO Pose ID>  (1246) 
501635

>  <name>  (1246) 
NEDFGYNJSPLQQP-UHFFFAOYSA-N-P308-P15-P308-601501

>  <HIPPO Compound ID>  (1246) 
292531

>  <ref_mols>  (1246) 
A4331a,A0514a

>  <distance_score>  (1246) 
1.63617

>  <inspiration_score>  (1246) 
None

$$$$
HLXQGMWZSXOTMQ-UHFFFAOYSA-N-P15-P15-P308-601501
     RDKit          3D

 18 19  0  0  0  0  0  0  0  0999 V2000
   10.6829   14.0477   21.4267 C   0  0  0  0  0  0  0  0  0  0  0  0
    9.7547   14.7622   22.3450 C   0  0  0  0  0  0  0  0  0  0  0  0
    8.6930   13.9226   23.0422 C   0  0  0  0  0  0  0  0  0  0  0  0
    9.2392   12.9959   24.0841 N   0  0  0  0  0  0  0  0  0  0  0  0
   10.3552   13.4810   24.8428 N   0  0  0  0  0  0  0  0  0  0  0  0
    8.1645   12.5586   24.9082 C   0  0  0  0  0  0  0  0  0  0  0  0
    7.5269   13.4715   25.7476 C   0  0  0  0  0  0  0  0  0  0  0  0
    6.5074   13.1906   26.5763 N   0  0  0  0  0  0  0  0  0  0  0  0
    6.0148   11.9373   26.5894 C   0  0  0  0  0  0  0  0  0  0  0  0
    4.8404   11.6560   27.4772 C   0  0  0  0  0  0  0  0  0  0  0  0
    4.6733   12.4204   28.7670 C   0  0  0  0  0  0  0  0  0  0  0  0
    3.7721   12.7200   27.6075 C   0  0  0  0  0  0  0  0  0  0  0  0
    6.5923   10.9508   25.8158 C   0  0  0  0  0  0  0  0  0  0  0  0
    7.6882   11.2476   24.9858 C   0  0  0  0  0  0  0  0  0  0  0  0
    8.2520   10.0521   24.3337 C   0  0  0  0  0  0  0  0  0  0  0  0
    7.8519    8.9438   24.6639 O   0  0  0  0  0  0  0  0  0  0  0  0
    9.1980   10.2954   23.4110 O   0  0  0  0  0  0  0  0  0  0  0  0
    9.7210    9.0904   22.8491 C   0  0  0  0  0  0  0  0  0  0  0  0
  1  2  1  0
  2  3  1  0
  3  4  1  0
  4  5  1  0
  4  6  1  0
  6  7  2  0
  7  8  1  0
  8  9  2  0
  9 10  1  0
 10 11  1  0
 11 12  1  0
  9 13  1  0
 13 14  2  0
 14 15  1  0
 15 16  2  0
 15 17  1  0
 17 18  1  0
 14  6  1  0
 12 10  1  0
M  END
>  <energy_score>  (1247) 
-24.484635

>  <inchikey>  (1247) 
HLXQGMWZSXOTMQ-UHFFFAOYSA-N

>  <smiles>  (1247) 
CCCN(N)c1cnc(C2CC2)cc1C(=O)OC

>  <ref_pdb>  (1247) 
A0528a

>  <alias>  (1247) 
HLXQGMWZSXOTMQ-UHFFFAOYSA-N-P15-P15-P308-601501

>  <HIPPO Pose ID>  (1247) 
501636

>  <name>  (1247) 
HLXQGMWZSXOTMQ-UHFFFAOYSA-N-P15-P15-P308-601501

>  <HIPPO Compound ID>  (1247) 
292532

>  <ref_mols>  (1247) 
A4331a,A0514a

>  <distance_score>  (1247) 
1.61255

>  <inspiration_score>  (1247) 
None

$$$$
BQQHOOFVKCPCOJ-UHFFFAOYSA-N-P308-P15-P308-601501
     RDKit          3D

 19 20  0  0  0  0  0  0  0  0999 V2000
    9.1967    8.4093   23.7863 C   0  0  0  0  0  0  0  0  0  0  0  0
    8.4319    9.3552   24.5233 O   0  0  0  0  0  0  0  0  0  0  0  0
    8.5727   10.5941   24.0112 C   0  0  0  0  0  0  0  0  0  0  0  0
    9.1851   10.8763   22.9966 O   0  0  0  0  0  0  0  0  0  0  0  0
    7.9066   11.5749   24.8820 C   0  0  0  0  0  0  0  0  0  0  0  0
    6.7047   11.2257   25.5115 C   0  0  0  0  0  0  0  0  0  0  0  0
    6.0201   12.2022   26.2188 C   0  0  0  0  0  0  0  0  0  0  0  0
    4.6736   12.0019   26.8308 C   0  0  0  0  0  0  0  0  0  0  0  0
    4.3940   11.0299   27.9387 C   0  0  0  0  0  0  0  0  0  0  0  0
    4.4942   12.4911   28.2543 C   0  0  0  0  0  0  0  0  0  0  0  0
    6.5136   13.4523   26.3477 N   0  0  0  0  0  0  0  0  0  0  0  0
    7.6691   13.7584   25.7402 C   0  0  0  0  0  0  0  0  0  0  0  0
    8.4223   12.8704   24.9940 C   0  0  0  0  0  0  0  0  0  0  0  0
    9.6052   13.3668   24.4072 N   0  0  0  0  0  0  0  0  0  0  0  0
   10.7914   12.6140   24.6093 N   0  0  0  0  0  0  0  0  0  0  0  0
    9.3551   13.8017   23.0080 C   0  0  0  0  0  0  0  0  0  0  0  0
    9.6127   15.3009   22.8586 C   0  0  0  0  0  0  0  0  0  0  0  0
    9.3525   15.7118   21.4100 C   0  0  0  0  0  0  0  0  0  0  0  0
   11.0378   15.6732   23.2597 C   0  0  0  0  0  0  0  0  0  0  0  0
  1  2  1  0
  2  3  1  0
  3  4  2  0
  3  5  1  0
  5  6  2  0
  6  7  1  0
  7  8  1  0
  8  9  1  0
  9 10  1  0
  7 11  2  0
 11 12  1  0
 12 13  2  0
 13 14  1  0
 14 15  1  0
 14 16  1  0
 16 17  1  0
 17 18  1  0
 17 19  1  0
 13  5  1  0
 10  8  1  0
M  END
>  <energy_score>  (1248) 
-37.199836

>  <inchikey>  (1248) 
BQQHOOFVKCPCOJ-UHFFFAOYSA-N

>  <smiles>  (1248) 
COC(=O)c1cc(C2CC2)ncc1N(N)CC(C)C

>  <ref_pdb>  (1248) 
A0528a

>  <alias>  (1248) 
BQQHOOFVKCPCOJ-UHFFFAOYSA-N-P308-P15-P308-601501

>  <HIPPO Pose ID>  (1248) 
501645

>  <name>  (1248) 
BQQHOOFVKCPCOJ-UHFFFAOYSA-N-P308-P15-P308-601501

>  <HIPPO Compound ID>  (1248) 
292536

>  <ref_mols>  (1248) 
A4331a,A0514a

>  <distance_score>  (1248) 
1.503905

>  <inspiration_score>  (1248) 
None

$$$$
AKWFWTDGBMKEHT-UHFFFAOYSA-N-P15-P15-P308-601501
     RDKit          3D

 19 20  0  0  0  0  0  0  0  0999 V2000
    9.3992    8.5148   22.9235 C   0  0  0  0  0  0  0  0  0  0  0  0
    8.5276    9.3397   23.6889 O   0  0  0  0  0  0  0  0  0  0  0  0
    9.0426   10.5617   23.9278 C   0  0  0  0  0  0  0  0  0  0  0  0
   10.1614   10.9490   23.6357 O   0  0  0  0  0  0  0  0  0  0  0  0
    8.0487   11.3956   24.6337 C   0  0  0  0  0  0  0  0  0  0  0  0
    7.0910   10.7959   25.4600 C   0  0  0  0  0  0  0  0  0  0  0  0
    6.2463   11.6066   26.2034 C   0  0  0  0  0  0  0  0  0  0  0  0
    5.2702   11.0493   27.1994 C   0  0  0  0  0  0  0  0  0  0  0  0
    5.3391   11.5289   28.6311 C   0  0  0  0  0  0  0  0  0  0  0  0
    4.1945   11.9566   27.7672 C   0  0  0  0  0  0  0  0  0  0  0  0
    6.3214   12.9547   26.1120 N   0  0  0  0  0  0  0  0  0  0  0  0
    7.1975   13.5069   25.2590 C   0  0  0  0  0  0  0  0  0  0  0  0
    8.1110   12.7889   24.5063 C   0  0  0  0  0  0  0  0  0  0  0  0
    9.0780   13.4367   23.7113 N   0  0  0  0  0  0  0  0  0  0  0  0
   10.2839   13.7507   24.4006 N   0  0  0  0  0  0  0  0  0  0  0  0
    8.5074   14.3546   22.6792 C   0  0  0  0  0  0  0  0  0  0  0  0
    9.5266   14.7608   21.6153 C   0  0  0  0  0  0  0  0  0  0  0  0
    9.2271   15.3625   20.5947 O   0  0  0  0  0  0  0  0  0  0  0  0
   10.7983   14.4067   21.8949 O   0  0  0  0  0  0  0  0  0  0  0  0
  1  2  1  0
  2  3  1  0
  3  4  2  0
  3  5  1  0
  5  6  2  0
  6  7  1  0
  7  8  1  0
  8  9  1  0
  9 10  1  0
  7 11  2  0
 11 12  1  0
 12 13  2  0
 13 14  1  0
 14 15  1  0
 14 16  1  0
 16 17  1  0
 17 18  2  0
 17 19  1  0
 13  5  1  0
 10  8  1  0
M  END
>  <energy_score>  (1249) 
-49.625419

>  <inchikey>  (1249) 
AKWFWTDGBMKEHT-UHFFFAOYSA-N

>  <smiles>  (1249) 
COC(=O)c1cc(C2CC2)ncc1N(N)CC(=O)O

>  <ref_pdb>  (1249) 
A0528a

>  <alias>  (1249) 
AKWFWTDGBMKEHT-UHFFFAOYSA-N-P15-P15-P308-601501

>  <HIPPO Pose ID>  (1249) 
501652

>  <name>  (1249) 
AKWFWTDGBMKEHT-UHFFFAOYSA-N-P15-P15-P308-601501

>  <HIPPO Compound ID>  (1249) 
292540

>  <ref_mols>  (1249) 
A4331a,A0514a

>  <distance_score>  (1249) 
1.72932

>  <inspiration_score>  (1249) 
None

$$$$
QWFWDMZQJXLTDJ-UHFFFAOYSA-N-P308-P15-P308-601501
     RDKit          3D

 19 21  0  0  0  0  0  0  0  0999 V2000
    9.3605    8.5749   23.7375 C   0  0  0  0  0  0  0  0  0  0  0  0
    8.5841    9.4749   24.5232 O   0  0  0  0  0  0  0  0  0  0  0  0
    8.6241   10.7320   24.0288 C   0  0  0  0  0  0  0  0  0  0  0  0
    9.1513   11.0779   22.9876 O   0  0  0  0  0  0  0  0  0  0  0  0
    7.9009   11.6418   24.9333 C   0  0  0  0  0  0  0  0  0  0  0  0
    6.7151   11.2179   25.5461 C   0  0  0  0  0  0  0  0  0  0  0  0
    5.9976   12.1380   26.2968 C   0  0  0  0  0  0  0  0  0  0  0  0
    4.6579   11.8762   26.8975 C   0  0  0  0  0  0  0  0  0  0  0  0
    4.3970   10.8506   27.9594 C   0  0  0  0  0  0  0  0  0  0  0  0
    4.4691   12.2973   28.3416 C   0  0  0  0  0  0  0  0  0  0  0  0
    6.4456   13.3985   26.4850 N   0  0  0  0  0  0  0  0  0  0  0  0
    7.5845   13.7753   25.8916 C   0  0  0  0  0  0  0  0  0  0  0  0
    8.3659   12.9499   25.1037 C   0  0  0  0  0  0  0  0  0  0  0  0
    9.5290   13.4426   24.4668 N   0  0  0  0  0  0  0  0  0  0  0  0
   10.5087   14.0275   25.3188 N   0  0  0  0  0  0  0  0  0  0  0  0
    9.1201   14.2028   23.2573 C   0  0  0  0  0  0  0  0  0  0  0  0
   10.2915   14.4371   22.3619 C   0  0  0  0  0  0  0  0  0  0  0  0
   11.1394   15.6748   22.4924 C   0  0  0  0  0  0  0  0  0  0  0  0
   10.2241   15.5119   21.3078 C   0  0  0  0  0  0  0  0  0  0  0  0
  1  2  1  0
  2  3  1  0
  3  4  2  0
  3  5  1  0
  5  6  2  0
  6  7  1  0
  7  8  1  0
  8  9  1  0
  9 10  1  0
  7 11  2  0
 11 12  1  0
 12 13  2  0
 13 14  1  0
 14 15  1  0
 14 16  1  0
 16 17  1  0
 17 18  1  0
 18 19  1  0
 13  5  1  0
 19 17  1  0
 10  8  1  0
M  END
>  <energy_score>  (1250) 
-31.428975

>  <inchikey>  (1250) 
QWFWDMZQJXLTDJ-UHFFFAOYSA-N

>  <smiles>  (1250) 
COC(=O)c1cc(C2CC2)ncc1N(N)CC1CC1

>  <ref_pdb>  (1250) 
A0528a

>  <alias>  (1250) 
QWFWDMZQJXLTDJ-UHFFFAOYSA-N-P308-P15-P308-601501

>  <HIPPO Pose ID>  (1250) 
501659

>  <name>  (1250) 
QWFWDMZQJXLTDJ-UHFFFAOYSA-N-P308-P15-P308-601501

>  <HIPPO Compound ID>  (1250) 
292543

>  <ref_mols>  (1250) 
A4331a,A0514a

>  <distance_score>  (1250) 
1.542615

>  <inspiration_score>  (1250) 
None

$$$$
HWFVHGCHNGOMPJ-UHFFFAOYSA-N-P308-P15-P308-601501
     RDKit          3D

 19 20  0  0  0  0  0  0  0  0999 V2000
    9.2509    8.5948   23.7838 C   0  0  0  0  0  0  0  0  0  0  0  0
    8.4206    9.4431   24.5721 O   0  0  0  0  0  0  0  0  0  0  0  0
    8.4280   10.7147   24.1147 C   0  0  0  0  0  0  0  0  0  0  0  0
    8.9541   11.1066   23.0869 O   0  0  0  0  0  0  0  0  0  0  0  0
    7.6813   11.5790   25.0441 C   0  0  0  0  0  0  0  0  0  0  0  0
    6.5121   11.1272   25.6619 C   0  0  0  0  0  0  0  0  0  0  0  0
    5.7956   12.0247   26.4447 C   0  0  0  0  0  0  0  0  0  0  0  0
    4.4949   11.7248   27.1049 C   0  0  0  0  0  0  0  0  0  0  0  0
    4.3080   10.6420   28.1233 C   0  0  0  0  0  0  0  0  0  0  0  0
    4.3913   12.0676   28.5775 C   0  0  0  0  0  0  0  0  0  0  0  0
    6.2163   13.2911   26.6469 N   0  0  0  0  0  0  0  0  0  0  0  0
    7.3504   13.6886   26.0641 C   0  0  0  0  0  0  0  0  0  0  0  0
    8.1295   12.8834   25.2520 C   0  0  0  0  0  0  0  0  0  0  0  0
    9.3021   13.3981   24.6523 N   0  0  0  0  0  0  0  0  0  0  0  0
   10.1742   14.0099   25.6059 N   0  0  0  0  0  0  0  0  0  0  0  0
    8.8712   14.2239   23.4843 C   0  0  0  0  0  0  0  0  0  0  0  0
   10.0006   14.4401   22.4879 C   0  0  0  0  0  0  0  0  0  0  0  0
   11.2785   15.5507   23.1624 S   0  0  0  0  0  0  0  0  0  0  0  0
   12.1799   15.8259   21.6344 C   0  0  0  0  0  0  0  0  0  0  0  0
  1  2  1  0
  2  3  1  0
  3  4  2  0
  3  5  1  0
  5  6  2  0
  6  7  1  0
  7  8  1  0
  8  9  1  0
  9 10  1  0
  7 11  2  0
 11 12  1  0
 12 13  2  0
 13 14  1  0
 14 15  1  0
 14 16  1  0
 16 17  1  0
 17 18  1  0
 18 19  1  0
 13  5  1  0
 10  8  1  0
M  END
>  <energy_score>  (1251) 
-39.744031

>  <inchikey>  (1251) 
HWFVHGCHNGOMPJ-UHFFFAOYSA-N

>  <smiles>  (1251) 
COC(=O)c1cc(C2CC2)ncc1N(N)CCSC

>  <ref_pdb>  (1251) 
A0528a

>  <alias>  (1251) 
HWFVHGCHNGOMPJ-UHFFFAOYSA-N-P308-P15-P308-601501

>  <HIPPO Pose ID>  (1251) 
501663

>  <name>  (1251) 
HWFVHGCHNGOMPJ-UHFFFAOYSA-N-P308-P15-P308-601501

>  <HIPPO Compound ID>  (1251) 
292545

>  <ref_mols>  (1251) 
A4331a,A0514a

>  <distance_score>  (1251) 
1.656219

>  <inspiration_score>  (1251) 
None

$$$$
DEBBIWPXFPEOGW-UHFFFAOYSA-N-P308-P15-P308-601501
     RDKit          3D

 19 20  0  0  0  0  0  0  0  0999 V2000
   11.2360   14.3518   22.6282 C   0  0  0  0  0  0  0  0  0  0  0  0
    9.9157   14.5870   22.5603 C   0  0  0  0  0  0  0  0  0  0  0  0
    9.3976   15.6316   21.6050 C   0  0  0  0  0  0  0  0  0  0  0  0
    8.8218   13.8805   23.3351 C   0  0  0  0  0  0  0  0  0  0  0  0
    9.2879   13.0137   24.4717 N   0  0  0  0  0  0  0  0  0  0  0  0
   10.1266   13.6410   25.4716 N   0  0  0  0  0  0  0  0  0  0  0  0
    8.1049   12.5030   25.0970 C   0  0  0  0  0  0  0  0  0  0  0  0
    7.3148   13.3847   25.8397 C   0  0  0  0  0  0  0  0  0  0  0  0
    6.2111   13.0579   26.5241 N   0  0  0  0  0  0  0  0  0  0  0  0
    5.8084   11.7751   26.5127 C   0  0  0  0  0  0  0  0  0  0  0  0
    4.6287   11.4249   27.3671 C   0  0  0  0  0  0  0  0  0  0  0  0
    4.4660   12.1009   28.7085 C   0  0  0  0  0  0  0  0  0  0  0  0
    3.5523   12.4676   27.5789 C   0  0  0  0  0  0  0  0  0  0  0  0
    6.5049   10.8237   25.7899 C   0  0  0  0  0  0  0  0  0  0  0  0
    7.6702   11.1755   25.0853 C   0  0  0  0  0  0  0  0  0  0  0  0
    8.3287   10.0170   24.4522 C   0  0  0  0  0  0  0  0  0  0  0  0
    8.0370    8.8758   24.7896 O   0  0  0  0  0  0  0  0  0  0  0  0
    9.1664   10.3376   23.4478 O   0  0  0  0  0  0  0  0  0  0  0  0
    9.7101    9.1727   22.8266 C   0  0  0  0  0  0  0  0  0  0  0  0
  1  2  2  0
  2  3  1  0
  2  4  1  0
  4  5  1  0
  5  6  1  0
  5  7  1  0
  7  8  2  0
  8  9  1  0
  9 10  2  0
 10 11  1  0
 11 12  1  0
 12 13  1  0
 10 14  1  0
 14 15  2  0
 15 16  1  0
 16 17  2  0
 16 18  1  0
 18 19  1  0
 15  7  1  0
 13 11  1  0
M  END
>  <energy_score>  (1252) 
-34.262702

>  <inchikey>  (1252) 
DEBBIWPXFPEOGW-UHFFFAOYSA-N

>  <smiles>  (1252) 
C=C(C)CN(N)c1cnc(C2CC2)cc1C(=O)OC

>  <ref_pdb>  (1252) 
A0528a

>  <alias>  (1252) 
DEBBIWPXFPEOGW-UHFFFAOYSA-N-P308-P15-P308-601501

>  <HIPPO Pose ID>  (1252) 
501665

>  <name>  (1252) 
DEBBIWPXFPEOGW-UHFFFAOYSA-N-P308-P15-P308-601501

>  <HIPPO Compound ID>  (1252) 
292546

>  <ref_mols>  (1252) 
A4331a,A0514a

>  <distance_score>  (1252) 
1.783495

>  <inspiration_score>  (1252) 
None

$$$$
UMWMDYAGLKQPEN-UHFFFAOYSA-N-P308-P15-P308-601501
     RDKit          3D

 19 20  0  0  0  0  0  0  0  0999 V2000
    9.2106    8.5640   23.1514 C   0  0  0  0  0  0  0  0  0  0  0  0
    8.3529    9.4408   23.8771 O   0  0  0  0  0  0  0  0  0  0  0  0
    9.0286   10.3608   24.6009 C   0  0  0  0  0  0  0  0  0  0  0  0
   10.2357   10.3904   24.7935 O   0  0  0  0  0  0  0  0  0  0  0  0
    8.0644   11.3628   25.1071 C   0  0  0  0  0  0  0  0  0  0  0  0
    6.8639   10.9543   25.7075 C   0  0  0  0  0  0  0  0  0  0  0  0
    6.0294   11.9288   26.2436 C   0  0  0  0  0  0  0  0  0  0  0  0
    4.7124   11.6962   26.9011 C   0  0  0  0  0  0  0  0  0  0  0  0
    4.4472   10.7212   28.0053 C   0  0  0  0  0  0  0  0  0  0  0  0
    4.5934   12.1748   28.3366 C   0  0  0  0  0  0  0  0  0  0  0  0
    6.3596   13.2344   26.2025 N   0  0  0  0  0  0  0  0  0  0  0  0
    7.4727   13.6020   25.5665 C   0  0  0  0  0  0  0  0  0  0  0  0
    8.3645   12.7232   24.9755 C   0  0  0  0  0  0  0  0  0  0  0  0
    9.4794   13.1960   24.2581 N   0  0  0  0  0  0  0  0  0  0  0  0
   10.6985   13.1861   24.9805 N   0  0  0  0  0  0  0  0  0  0  0  0
    9.1690   14.3602   23.3964 C   0  0  0  0  0  0  0  0  0  0  0  0
   10.2340   14.5692   22.3207 C   0  0  2  0  0  0  0  0  0  0  0  0
   11.3149   15.5348   22.7842 C   0  0  0  0  0  0  0  0  0  0  0  0
    9.6095   15.1190   21.1554 O   0  0  0  0  0  0  0  0  0  0  0  0
  1  2  1  0
  2  3  1  0
  3  4  2  0
  3  5  1  0
  5  6  2  0
  6  7  1  0
  7  8  1  0
  8  9  1  0
  9 10  1  0
  7 11  2  0
 11 12  1  0
 12 13  2  0
 13 14  1  0
 14 15  1  0
 14 16  1  0
 16 17  1  0
 17 18  1  1
 17 19  1  0
 13  5  1  0
 10  8  1  0
M  END
>  <energy_score>  (1253) 
-41.418664

>  <inchikey>  (1253) 
UMWMDYAGLKQPEN-UHFFFAOYSA-N

>  <smiles>  (1253) 
COC(=O)c1cc(C2CC2)ncc1N(N)CC(C)O

>  <ref_pdb>  (1253) 
A0528a

>  <alias>  (1253) 
UMWMDYAGLKQPEN-UHFFFAOYSA-N-P308-P15-P308-601501

>  <HIPPO Pose ID>  (1253) 
501667

>  <name>  (1253) 
UMWMDYAGLKQPEN-UHFFFAOYSA-N-P308-P15-P308-601501

>  <HIPPO Compound ID>  (1253) 
292547

>  <ref_mols>  (1253) 
A4331a,A0514a

>  <distance_score>  (1253) 
1.704158

>  <inspiration_score>  (1253) 
None

$$$$
BHDGUBOWDZYRMJ-UHFFFAOYSA-N-P308-P15-P308-601501
     RDKit          3D

 19 20  0  0  0  0  0  0  0  0999 V2000
    9.4735    8.6880   23.1200 C   0  0  0  0  0  0  0  0  0  0  0  0
    8.5918    9.5850   23.7887 O   0  0  0  0  0  0  0  0  0  0  0  0
    9.2147   10.5588   24.4892 C   0  0  0  0  0  0  0  0  0  0  0  0
   10.4167   10.7037   24.6522 O   0  0  0  0  0  0  0  0  0  0  0  0
    8.1683   11.4411   25.0502 C   0  0  0  0  0  0  0  0  0  0  0  0
    7.0548   10.8513   25.6680 C   0  0  0  0  0  0  0  0  0  0  0  0
    6.1239   11.6669   26.2950 C   0  0  0  0  0  0  0  0  0  0  0  0
    5.0133   11.1356   27.1589 C   0  0  0  0  0  0  0  0  0  0  0  0
    3.8017   11.9958   27.4572 C   0  0  0  0  0  0  0  0  0  0  0  0
    4.8302   11.7859   28.5205 C   0  0  0  0  0  0  0  0  0  0  0  0
    6.2553   13.0097   26.2632 N   0  0  0  0  0  0  0  0  0  0  0  0
    7.2998   13.5498   25.6197 C   0  0  0  0  0  0  0  0  0  0  0  0
    8.3020   12.8323   24.9922 C   0  0  0  0  0  0  0  0  0  0  0  0
    9.3463   13.4894   24.3449 N   0  0  0  0  0  0  0  0  0  0  0  0
   10.6085   13.4664   24.9864 N   0  0  0  0  0  0  0  0  0  0  0  0
    9.0902   14.4425   23.2253 C   0  0  0  0  0  0  0  0  0  0  0  0
    7.7729   14.1360   22.4880 C   0  0  0  0  0  0  0  0  0  0  0  0
    9.0827   15.8931   23.7210 C   0  0  0  0  0  0  0  0  0  0  0  0
   10.2308   14.2959   22.2060 C   0  0  0  0  0  0  0  0  0  0  0  0
  1  2  1  0
  2  3  1  0
  3  4  2  0
  3  5  1  0
  5  6  2  0
  6  7  1  0
  7  8  1  0
  8  9  1  0
  9 10  1  0
  7 11  2  0
 11 12  1  0
 12 13  2  0
 13 14  1  0
 14 15  1  0
 14 16  1  0
 16 17  1  0
 16 18  1  0
 16 19  1  0
 13  5  1  0
 10  8  1  0
M  END
>  <energy_score>  (1254) 
-57.29057

>  <inchikey>  (1254) 
BHDGUBOWDZYRMJ-UHFFFAOYSA-N

>  <smiles>  (1254) 
COC(=O)c1cc(C2CC2)ncc1N(N)C(C)(C)C

>  <ref_pdb>  (1254) 
A0528a

>  <alias>  (1254) 
BHDGUBOWDZYRMJ-UHFFFAOYSA-N-P308-P15-P308-601501

>  <HIPPO Pose ID>  (1254) 
501675

>  <name>  (1254) 
BHDGUBOWDZYRMJ-UHFFFAOYSA-N-P308-P15-P308-601501

>  <HIPPO Compound ID>  (1254) 
292551

>  <ref_mols>  (1254) 
A4331a,A0514a

>  <distance_score>  (1254) 
1.809016

>  <inspiration_score>  (1254) 
None

$$$$
MFBBMKUQWCDISB-UHFFFAOYSA-N-P308-P15-P308-601501
     RDKit          3D

 19 21  0  0  0  0  0  0  0  0999 V2000
    9.3378    8.4711   23.6668 C   0  0  0  0  0  0  0  0  0  0  0  0
    8.6276    9.4102   24.4639 O   0  0  0  0  0  0  0  0  0  0  0  0
    8.6894   10.6553   23.9379 C   0  0  0  0  0  0  0  0  0  0  0  0
    9.2494   10.9454   22.8947 O   0  0  0  0  0  0  0  0  0  0  0  0
    7.9864   11.6041   24.8237 C   0  0  0  0  0  0  0  0  0  0  0  0
    6.8280   11.1772   25.4985 C   0  0  0  0  0  0  0  0  0  0  0  0
    6.0922   12.1103   26.2141 C   0  0  0  0  0  0  0  0  0  0  0  0
    4.7567   11.8576   26.8305 C   0  0  0  0  0  0  0  0  0  0  0  0
    4.4779   10.8509   27.9041 C   0  0  0  0  0  0  0  0  0  0  0  0
    4.5862   12.2992   28.2713 C   0  0  0  0  0  0  0  0  0  0  0  0
    6.5113   13.3855   26.3300 N   0  0  0  0  0  0  0  0  0  0  0  0
    7.6075   13.7707   25.6622 C   0  0  0  0  0  0  0  0  0  0  0  0
    8.3909   12.9436   24.8742 C   0  0  0  0  0  0  0  0  0  0  0  0
    9.4713   13.4985   24.1422 N   0  0  0  0  0  0  0  0  0  0  0  0
   10.7168   12.8356   24.2859 N   0  0  0  0  0  0  0  0  0  0  0  0
    9.4384   14.8611   23.6283 C   0  0  0  0  0  0  0  0  0  0  0  0
    8.2535   15.0937   22.6489 C   0  0  0  0  0  0  0  0  0  0  0  0
    9.2278   14.9010   21.4788 C   0  0  0  0  0  0  0  0  0  0  0  0
   10.3856   15.1645   22.4454 C   0  0  0  0  0  0  0  0  0  0  0  0
  1  2  1  0
  2  3  1  0
  3  4  2  0
  3  5  1  0
  5  6  2  0
  6  7  1  0
  7  8  1  0
  8  9  1  0
  9 10  1  0
  7 11  2  0
 11 12  1  0
 12 13  2  0
 13 14  1  0
 14 15  1  0
 14 16  1  0
 16 17  1  0
 17 18  1  0
 18 19  1  0
 13  5  1  0
 19 16  1  0
 10  8  1  0
M  END
>  <energy_score>  (1255) 
-39.231264

>  <inchikey>  (1255) 
MFBBMKUQWCDISB-UHFFFAOYSA-N

>  <smiles>  (1255) 
COC(=O)c1cc(C2CC2)ncc1N(N)C1CCC1

>  <ref_pdb>  (1255) 
A0528a

>  <alias>  (1255) 
MFBBMKUQWCDISB-UHFFFAOYSA-N-P308-P15-P308-601501

>  <HIPPO Pose ID>  (1255) 
501677

>  <name>  (1255) 
MFBBMKUQWCDISB-UHFFFAOYSA-N-P308-P15-P308-601501

>  <HIPPO Compound ID>  (1255) 
292552

>  <ref_mols>  (1255) 
A4331a,A0514a

>  <distance_score>  (1255) 
1.560838

>  <inspiration_score>  (1255) 
None

$$$$
LHIIDAUGVAOKMD-UHFFFAOYSA-N-P15-P15-P308-601501
     RDKit          3D

 19 20  0  0  0  0  0  0  0  0999 V2000
    9.3808    8.4951   23.0474 C   0  0  0  0  0  0  0  0  0  0  0  0
    8.6305    9.3218   23.9400 O   0  0  0  0  0  0  0  0  0  0  0  0
    8.9223   10.6386   23.8470 C   0  0  0  0  0  0  0  0  0  0  0  0
    9.7603   11.1190   23.1052 O   0  0  0  0  0  0  0  0  0  0  0  0
    8.0713   11.4383   24.7654 C   0  0  0  0  0  0  0  0  0  0  0  0
    7.0081   10.8381   25.4554 C   0  0  0  0  0  0  0  0  0  0  0  0
    6.2533   11.6069   26.3322 C   0  0  0  0  0  0  0  0  0  0  0  0
    5.2134   11.0192   27.2450 C   0  0  0  0  0  0  0  0  0  0  0  0
    4.0231   11.8551   27.6672 C   0  0  0  0  0  0  0  0  0  0  0  0
    5.1181   11.5840   28.6500 C   0  0  0  0  0  0  0  0  0  0  0  0
    6.4873   12.9306   26.4737 N   0  0  0  0  0  0  0  0  0  0  0  0
    7.4937   13.4950   25.7934 C   0  0  0  0  0  0  0  0  0  0  0  0
    8.3607   12.7980   24.9698 C   0  0  0  0  0  0  0  0  0  0  0  0
    9.5091   13.4297   24.4324 N   0  0  0  0  0  0  0  0  0  0  0  0
   10.2453   14.2540   25.3353 N   0  0  0  0  0  0  0  0  0  0  0  0
    9.1852   14.0195   23.1047 C   0  0  0  0  0  0  0  0  0  0  0  0
   10.4724   14.2728   22.3333 C   0  0  0  0  0  0  0  0  0  0  0  0
   10.2281   15.0398   21.1236 C   0  0  0  0  0  0  0  0  0  0  0  0
   10.0850   15.6543   20.1544 N   0  0  0  0  0  0  0  0  0  0  0  0
  1  2  1  0
  2  3  1  0
  3  4  2  0
  3  5  1  0
  5  6  2  0
  6  7  1  0
  7  8  1  0
  8  9  1  0
  9 10  1  0
  7 11  2  0
 11 12  1  0
 12 13  2  0
 13 14  1  0
 14 15  1  0
 14 16  1  0
 16 17  1  0
 17 18  1  0
 18 19  3  0
 13  5  1  0
 10  8  1  0
M  END
>  <energy_score>  (1256) 
-28.539375

>  <inchikey>  (1256) 
LHIIDAUGVAOKMD-UHFFFAOYSA-N

>  <smiles>  (1256) 
COC(=O)c1cc(C2CC2)ncc1N(N)CCC#N

>  <ref_pdb>  (1256) 
A0528a

>  <alias>  (1256) 
LHIIDAUGVAOKMD-UHFFFAOYSA-N-P15-P15-P308-601501

>  <HIPPO Pose ID>  (1256) 
501678

>  <name>  (1256) 
LHIIDAUGVAOKMD-UHFFFAOYSA-N-P15-P15-P308-601501

>  <HIPPO Compound ID>  (1256) 
292553

>  <ref_mols>  (1256) 
A4331a,A0514a

>  <distance_score>  (1256) 
1.473554

>  <inspiration_score>  (1256) 
None

$$$$
PLQZYICTDPHYEP-UHFFFAOYSA-N-P308-P15-P308-601501
     RDKit          3D

 19 21  0  0  0  0  0  0  0  0999 V2000
    9.6853    9.0227   22.8093 C   0  0  0  0  0  0  0  0  0  0  0  0
    9.2192   10.2086   23.4542 O   0  0  0  0  0  0  0  0  0  0  0  0
    8.3343    9.9553   24.4347 C   0  0  0  0  0  0  0  0  0  0  0  0
    7.9906    8.8422   24.8049 O   0  0  0  0  0  0  0  0  0  0  0  0
    7.7478   11.1767   25.0250 C   0  0  0  0  0  0  0  0  0  0  0  0
    6.5781   10.9161   25.7584 C   0  0  0  0  0  0  0  0  0  0  0  0
    5.9338   11.9390   26.4279 C   0  0  0  0  0  0  0  0  0  0  0  0
    4.7561   11.6850   27.3215 C   0  0  0  0  0  0  0  0  0  0  0  0
    3.5620   12.6042   27.2566 C   0  0  0  0  0  0  0  0  0  0  0  0
    4.4749   12.6634   28.4437 C   0  0  0  0  0  0  0  0  0  0  0  0
    6.3946   13.2024   26.3468 N   0  0  0  0  0  0  0  0  0  0  0  0
    7.4954   13.4465   25.6213 C   0  0  0  0  0  0  0  0  0  0  0  0
    8.2396   12.4861   24.9467 C   0  0  0  0  0  0  0  0  0  0  0  0
    9.4309   12.9501   24.3359 N   0  0  0  0  0  0  0  0  0  0  0  0
   10.6251   12.3289   24.7715 N   0  0  0  0  0  0  0  0  0  0  0  0
    9.4542   13.4422   22.9616 C   0  0  0  0  0  0  0  0  0  0  0  0
   10.3578   14.7007   22.8012 C   0  0  0  0  0  0  0  0  0  0  0  0
    9.2712   15.2773   21.4527 S   0  0  0  0  0  0  0  0  0  0  0  0
    8.1941   14.2389   22.5003 C   0  0  0  0  0  0  0  0  0  0  0  0
  1  2  1  0
  2  3  1  0
  3  4  2  0
  3  5  1  0
  5  6  2  0
  6  7  1  0
  7  8  1  0
  8  9  1  0
  9 10  1  0
  7 11  2  0
 11 12  1  0
 12 13  2  0
 13 14  1  0
 14 15  1  0
 14 16  1  0
 16 17  1  0
 17 18  1  0
 18 19  1  0
 13  5  1  0
 19 16  1  0
 10  8  1  0
M  END
>  <energy_score>  (1257) 
-32.22719

>  <inchikey>  (1257) 
PLQZYICTDPHYEP-UHFFFAOYSA-N

>  <smiles>  (1257) 
COC(=O)c1cc(C2CC2)ncc1N(N)C1CSC1

>  <ref_pdb>  (1257) 
A0528a

>  <alias>  (1257) 
PLQZYICTDPHYEP-UHFFFAOYSA-N-P308-P15-P308-601501

>  <HIPPO Pose ID>  (1257) 
501685

>  <name>  (1257) 
PLQZYICTDPHYEP-UHFFFAOYSA-N-P308-P15-P308-601501

>  <HIPPO Compound ID>  (1257) 
292556

>  <ref_mols>  (1257) 
A4331a,A0514a

>  <distance_score>  (1257) 
1.332852

>  <inspiration_score>  (1257) 
None

$$$$
GXLJADKCGCGIBN-UHFFFAOYSA-N-P308-P15-P308-601501
     RDKit          3D

 19 21  0  0  0  0  0  0  0  0999 V2000
    9.6901    8.5772   23.5601 C   0  0  0  0  0  0  0  0  0  0  0  0
    8.9430    9.4934   24.3546 O   0  0  0  0  0  0  0  0  0  0  0  0
    8.9024   10.7453   23.8409 C   0  0  0  0  0  0  0  0  0  0  0  0
    9.4138   11.0996   22.7959 O   0  0  0  0  0  0  0  0  0  0  0  0
    8.1180   11.6169   24.7389 C   0  0  0  0  0  0  0  0  0  0  0  0
    7.0677   11.0549   25.4850 C   0  0  0  0  0  0  0  0  0  0  0  0
    6.2976   11.8784   26.2908 C   0  0  0  0  0  0  0  0  0  0  0  0
    5.1562   11.3690   27.1291 C   0  0  0  0  0  0  0  0  0  0  0  0
    3.9273   12.2324   27.3194 C   0  0  0  0  0  0  0  0  0  0  0  0
    4.8845   12.0558   28.4550 C   0  0  0  0  0  0  0  0  0  0  0  0
    6.5791   13.1975   26.3909 N   0  0  0  0  0  0  0  0  0  0  0  0
    7.5795   13.7123   25.6545 C   0  0  0  0  0  0  0  0  0  0  0  0
    8.3726   12.9928   24.7796 C   0  0  0  0  0  0  0  0  0  0  0  0
    9.2897   13.6260   23.9356 N   0  0  0  0  0  0  0  0  0  0  0  0
   10.5491   13.8905   24.4276 N   0  0  0  0  0  0  0  0  0  0  0  0
   11.0351   14.8144   23.6608 C   0  0  0  0  0  0  0  0  0  0  0  0
   10.1216   15.3294   22.5999 C   0  0  0  0  0  0  0  0  0  0  0  0
    8.8164   14.7755   23.1480 C   0  0  1  0  0  0  0  0  0  0  0  0
    7.8403   14.3721   22.0616 C   0  0  0  0  0  0  0  0  0  0  0  0
  1  2  1  0
  2  3  1  0
  3  4  2  0
  3  5  1  0
  5  6  2  0
  6  7  1  0
  7  8  1  0
  8  9  1  0
  9 10  1  0
  7 11  2  0
 11 12  1  0
 12 13  2  0
 13 14  1  0
 14 15  1  0
 15 16  2  0
 16 17  1  0
 17 18  1  0
 18 19  1  6
 13  5  1  0
 18 14  1  0
 10  8  1  0
M  END
>  <energy_score>  (1258) 
-40.020321

>  <inchikey>  (1258) 
GXLJADKCGCGIBN-UHFFFAOYSA-N

>  <smiles>  (1258) 
COC(=O)c1cc(C2CC2)ncc1N1N=CCC1C

>  <ref_pdb>  (1258) 
A0528a

>  <alias>  (1258) 
GXLJADKCGCGIBN-UHFFFAOYSA-N-P308-P15-P308-601501

>  <HIPPO Pose ID>  (1258) 
501687

>  <name>  (1258) 
GXLJADKCGCGIBN-UHFFFAOYSA-N-P308-P15-P308-601501

>  <HIPPO Compound ID>  (1258) 
292557

>  <ref_mols>  (1258) 
A4331a,A0514a

>  <distance_score>  (1258) 
1.404037

>  <inspiration_score>  (1258) 
None

$$$$
LAJJOOWLOCFVGW-UHFFFAOYSA-N-P308-P15-P308-601501
     RDKit          3D

 19 20  0  0  0  0  0  0  0  0999 V2000
   10.2545   15.4722   20.4887 C   0  0  0  0  0  0  0  0  0  0  0  0
    9.9035   15.1780   21.5983 C   0  0  0  0  0  0  0  0  0  0  0  0
    9.5474   14.7725   22.9664 C   0  0  0  0  0  0  0  0  0  0  0  0
    9.6179   13.2462   23.0936 C   0  0  0  0  0  0  0  0  0  0  0  0
    9.7226   12.7294   24.4864 N   0  0  0  0  0  0  0  0  0  0  0  0
   10.6973   13.3289   25.3286 N   0  0  0  0  0  0  0  0  0  0  0  0
    8.4497   12.5349   25.0616 C   0  0  0  0  0  0  0  0  0  0  0  0
    7.7963   13.5964   25.6738 C   0  0  0  0  0  0  0  0  0  0  0  0
    6.5788   13.5313   26.2369 N   0  0  0  0  0  0  0  0  0  0  0  0
    5.9228   12.3551   26.2192 C   0  0  0  0  0  0  0  0  0  0  0  0
    4.5549   12.3509   26.8157 C   0  0  0  0  0  0  0  0  0  0  0  0
    4.2501   11.6113   28.0887 C   0  0  0  0  0  0  0  0  0  0  0  0
    4.3457   13.1072   28.1100 C   0  0  0  0  0  0  0  0  0  0  0  0
    6.4952   11.2264   25.6631 C   0  0  0  0  0  0  0  0  0  0  0  0
    7.7622   11.3129   25.0705 C   0  0  0  0  0  0  0  0  0  0  0  0
    8.2584   10.0278   24.5345 C   0  0  0  0  0  0  0  0  0  0  0  0
    7.7762    8.9633   24.8982 O   0  0  0  0  0  0  0  0  0  0  0  0
    9.1898   10.1813   23.5740 O   0  0  0  0  0  0  0  0  0  0  0  0
    9.6427    8.9498   23.0169 C   0  0  0  0  0  0  0  0  0  0  0  0
  1  2  3  0
  2  3  1  0
  3  4  1  0
  4  5  1  0
  5  6  1  0
  5  7  1  0
  7  8  2  0
  8  9  1  0
  9 10  2  0
 10 11  1  0
 11 12  1  0
 12 13  1  0
 10 14  1  0
 14 15  2  0
 15 16  1  0
 16 17  2  0
 16 18  1  0
 18 19  1  0
 15  7  1  0
 13 11  1  0
M  END
>  <energy_score>  (1259) 
-27.078296

>  <inchikey>  (1259) 
LAJJOOWLOCFVGW-UHFFFAOYSA-N

>  <smiles>  (1259) 
C#CCCN(N)c1cnc(C2CC2)cc1C(=O)OC

>  <ref_pdb>  (1259) 
A0528a

>  <alias>  (1259) 
LAJJOOWLOCFVGW-UHFFFAOYSA-N-P308-P15-P308-601501

>  <HIPPO Pose ID>  (1259) 
501689

>  <name>  (1259) 
LAJJOOWLOCFVGW-UHFFFAOYSA-N-P308-P15-P308-601501

>  <HIPPO Compound ID>  (1259) 
292558

>  <ref_mols>  (1259) 
A4331a,A0514a

>  <distance_score>  (1259) 
1.408605

>  <inspiration_score>  (1259) 
None

$$$$
ALSRXESHQAVPAZ-UHFFFAOYSA-N-P308-P15-P308-601501
     RDKit          3D

 19 20  0  0  0  0  0  0  0  0999 V2000
   10.8127   15.4053   20.3770 C   0  0  0  0  0  0  0  0  0  0  0  0
    9.7861   15.4047   21.2358 C   0  0  0  0  0  0  0  0  0  0  0  0
    9.9380   15.1052   22.6962 C   0  0  0  0  0  0  0  0  0  0  0  0
    9.3872   13.7232   23.0435 C   0  0  0  0  0  0  0  0  0  0  0  0
    9.5264   13.4943   24.4945 N   0  0  0  0  0  0  0  0  0  0  0  0
   10.8139   13.1962   24.9938 N   0  0  0  0  0  0  0  0  0  0  0  0
    8.4343   12.7895   25.0275 C   0  0  0  0  0  0  0  0  0  0  0  0
    7.4108   13.5544   25.5646 C   0  0  0  0  0  0  0  0  0  0  0  0
    6.3190   13.0578   26.1622 N   0  0  0  0  0  0  0  0  0  0  0  0
    6.1609   11.7189   26.2311 C   0  0  0  0  0  0  0  0  0  0  0  0
    5.0296   11.2285   27.0929 C   0  0  0  0  0  0  0  0  0  0  0  0
    3.8318   12.1162   27.3609 C   0  0  0  0  0  0  0  0  0  0  0  0
    4.8469   11.9113   28.4385 C   0  0  0  0  0  0  0  0  0  0  0  0
    7.0830   10.8658   25.6394 C   0  0  0  0  0  0  0  0  0  0  0  0
    8.2379   11.4063   25.0512 C   0  0  0  0  0  0  0  0  0  0  0  0
    9.2372   10.4720   24.4920 C   0  0  0  0  0  0  0  0  0  0  0  0
   10.4461   10.5684   24.6279 O   0  0  0  0  0  0  0  0  0  0  0  0
    8.5705    9.5267   23.7914 O   0  0  0  0  0  0  0  0  0  0  0  0
    9.4219    8.6201   23.0982 C   0  0  0  0  0  0  0  0  0  0  0  0
  1  2  2  0
  2  3  1  0
  3  4  1  0
  4  5  1  0
  5  6  1  0
  5  7  1  0
  7  8  2  0
  8  9  1  0
  9 10  2  0
 10 11  1  0
 11 12  1  0
 12 13  1  0
 10 14  1  0
 14 15  2  0
 15 16  1  0
 16 17  2  0
 16 18  1  0
 18 19  1  0
 15  7  1  0
 13 11  1  0
M  END
>  <energy_score>  (1260) 
-37.716446

>  <inchikey>  (1260) 
ALSRXESHQAVPAZ-UHFFFAOYSA-N

>  <smiles>  (1260) 
C=CCCN(N)c1cnc(C2CC2)cc1C(=O)OC

>  <ref_pdb>  (1260) 
A0528a

>  <alias>  (1260) 
ALSRXESHQAVPAZ-UHFFFAOYSA-N-P308-P15-P308-601501

>  <HIPPO Pose ID>  (1260) 
501691

>  <name>  (1260) 
ALSRXESHQAVPAZ-UHFFFAOYSA-N-P308-P15-P308-601501

>  <HIPPO Compound ID>  (1260) 
292559

>  <ref_mols>  (1260) 
A4331a,A0514a

>  <distance_score>  (1260) 
1.392172

>  <inspiration_score>  (1260) 
None

$$$$
IYGLMVUODGJOLB-UHFFFAOYSA-N-P308-P15-P308-601501
     RDKit          3D

 19 20  0  0  0  0  0  0  0  0999 V2000
    9.9107   15.8521   21.7624 C   0  0  0  0  0  0  0  0  0  0  0  0
   10.1792   14.6562   22.3058 C   0  0  0  0  0  0  0  0  0  0  0  0
    9.2146   13.6672   22.9222 C   0  0  2  0  0  0  0  0  0  0  0  0
    7.7675   13.9528   22.4847 C   0  0  0  0  0  0  0  0  0  0  0  0
    9.3641   13.7087   24.4097 N   0  0  0  0  0  0  0  0  0  0  0  0
   10.6650   13.6268   24.9870 N   0  0  0  0  0  0  0  0  0  0  0  0
    8.3914   12.9316   25.0726 C   0  0  0  0  0  0  0  0  0  0  0  0
    7.3869   13.6395   25.7162 C   0  0  0  0  0  0  0  0  0  0  0  0
    6.3311   13.0883   26.3285 N   0  0  0  0  0  0  0  0  0  0  0  0
    6.1958   11.7450   26.3167 C   0  0  0  0  0  0  0  0  0  0  0  0
    5.0621   11.1907   27.1361 C   0  0  0  0  0  0  0  0  0  0  0  0
    3.8389   12.0407   27.4156 C   0  0  0  0  0  0  0  0  0  0  0  0
    4.8358   11.8111   28.5047 C   0  0  0  0  0  0  0  0  0  0  0  0
    7.1344   10.9439   25.6778 C   0  0  0  0  0  0  0  0  0  0  0  0
    8.2565   11.5402   25.0744 C   0  0  0  0  0  0  0  0  0  0  0  0
    9.2763   10.6419   24.4871 C   0  0  0  0  0  0  0  0  0  0  0  0
   10.4807   10.7120   24.6508 O   0  0  0  0  0  0  0  0  0  0  0  0
    8.6134    9.7169   23.7501 O   0  0  0  0  0  0  0  0  0  0  0  0
    9.4581    8.7555   23.1209 C   0  0  0  0  0  0  0  0  0  0  0  0
  1  2  2  0
  2  3  1  0
  3  4  1  1
  3  5  1  0
  5  6  1  0
  5  7  1  0
  7  8  2  0
  8  9  1  0
  9 10  2  0
 10 11  1  0
 11 12  1  0
 12 13  1  0
 10 14  1  0
 14 15  2  0
 15 16  1  0
 16 17  2  0
 16 18  1  0
 18 19  1  0
 15  7  1  0
 13 11  1  0
M  END
>  <energy_score>  (1261) 
-19.810042

>  <inchikey>  (1261) 
IYGLMVUODGJOLB-UHFFFAOYSA-N

>  <smiles>  (1261) 
C=CC(C)N(N)c1cnc(C2CC2)cc1C(=O)OC

>  <ref_pdb>  (1261) 
A0528a

>  <alias>  (1261) 
IYGLMVUODGJOLB-UHFFFAOYSA-N-P308-P15-P308-601501

>  <HIPPO Pose ID>  (1261) 
501693

>  <name>  (1261) 
IYGLMVUODGJOLB-UHFFFAOYSA-N-P308-P15-P308-601501

>  <HIPPO Compound ID>  (1261) 
292560

>  <ref_mols>  (1261) 
A4331a,A0514a

>  <distance_score>  (1261) 
1.479785

>  <inspiration_score>  (1261) 
None

$$$$
JXDHHEBCSCVVIV-UHFFFAOYSA-N-P308-P15-P308-601501
     RDKit          3D

 19 20  0  0  0  0  0  0  0  0999 V2000
    9.3793    8.6122   23.0609 C   0  0  0  0  0  0  0  0  0  0  0  0
    8.5432    9.5312   23.7548 O   0  0  0  0  0  0  0  0  0  0  0  0
    9.2236   10.4413   24.4877 C   0  0  0  0  0  0  0  0  0  0  0  0
   10.4325   10.4853   24.6553 O   0  0  0  0  0  0  0  0  0  0  0  0
    8.2437   11.3887   25.0591 C   0  0  0  0  0  0  0  0  0  0  0  0
    7.0834   10.8597   25.6461 C   0  0  0  0  0  0  0  0  0  0  0  0
    6.1848   11.7192   26.2624 C   0  0  0  0  0  0  0  0  0  0  0  0
    4.9980   11.2368   27.0470 C   0  0  0  0  0  0  0  0  0  0  0  0
    4.7929   11.7665   28.4509 C   0  0  0  0  0  0  0  0  0  0  0  0
    3.8763   12.2124   27.3570 C   0  0  0  0  0  0  0  0  0  0  0  0
    6.3948   13.0520   26.2567 N   0  0  0  0  0  0  0  0  0  0  0  0
    7.4844   13.5402   25.6503 C   0  0  0  0  0  0  0  0  0  0  0  0
    8.4629   12.7695   25.0426 C   0  0  0  0  0  0  0  0  0  0  0  0
    9.5399   13.4454   24.4668 N   0  0  0  0  0  0  0  0  0  0  0  0
   10.8376   13.1259   24.9381 N   0  0  0  0  0  0  0  0  0  0  0  0
    9.3971   13.9643   23.0656 C   0  0  1  0  0  0  0  0  0  0  0  0
    7.9820   13.9180   22.4930 C   0  0  0  0  0  0  0  0  0  0  0  0
    9.8886   15.4260   23.0405 C   0  0  0  0  0  0  0  0  0  0  0  0
   11.1846   15.5400   23.6285 O   0  0  0  0  0  0  0  0  0  0  0  0
  1  2  1  0
  2  3  1  0
  3  4  2  0
  3  5  1  0
  5  6  2  0
  6  7  1  0
  7  8  1  0
  8  9  1  0
  9 10  1  0
  7 11  2  0
 11 12  1  0
 12 13  2  0
 13 14  1  0
 14 15  1  0
 14 16  1  0
 16 17  1  1
 16 18  1  0
 18 19  1  0
 13  5  1  0
 10  8  1  0
M  END
>  <energy_score>  (1262) 
-41.493275

>  <inchikey>  (1262) 
JXDHHEBCSCVVIV-UHFFFAOYSA-N

>  <smiles>  (1262) 
COC(=O)c1cc(C2CC2)ncc1N(N)C(C)CO

>  <ref_pdb>  (1262) 
A0528a

>  <alias>  (1262) 
JXDHHEBCSCVVIV-UHFFFAOYSA-N-P308-P15-P308-601501

>  <HIPPO Pose ID>  (1262) 
501699

>  <name>  (1262) 
JXDHHEBCSCVVIV-UHFFFAOYSA-N-P308-P15-P308-601501

>  <HIPPO Compound ID>  (1262) 
292563

>  <ref_mols>  (1262) 
A4331a,A0514a

>  <distance_score>  (1262) 
1.479189

>  <inspiration_score>  (1262) 
None

$$$$
BTMDBVFYNMZVAP-UHFFFAOYSA-N-P308-P15-P308-601501
     RDKit          3D

 20 21  0  0  0  0  0  0  0  0999 V2000
   10.1808   15.9216   21.7541 C   0  0  0  0  0  0  0  0  0  0  0  0
   10.1471   14.5347   22.3760 C   0  0  0  0  0  0  0  0  0  0  0  0
    9.1052   14.3392   23.5051 C   0  0  0  0  0  0  0  0  0  0  0  0
    7.7099   14.8464   23.0588 C   0  0  0  0  0  0  0  0  0  0  0  0
    7.1776   14.2523   21.7802 C   0  0  0  0  0  0  0  0  0  0  0  0
    9.1230   12.8927   23.9724 N   0  0  0  0  0  0  0  0  0  0  0  0
   10.4208   12.3405   24.2704 N   0  0  0  0  0  0  0  0  0  0  0  0
    8.1290   12.4634   24.8802 C   0  0  0  0  0  0  0  0  0  0  0  0
    7.5398   13.3610   25.7648 C   0  0  0  0  0  0  0  0  0  0  0  0
    6.4940   13.1090   26.5725 N   0  0  0  0  0  0  0  0  0  0  0  0
    5.9490   11.8806   26.5558 C   0  0  0  0  0  0  0  0  0  0  0  0
    4.7381   11.6412   27.4047 C   0  0  0  0  0  0  0  0  0  0  0  0
    4.5711   12.3930   28.7024 C   0  0  0  0  0  0  0  0  0  0  0  0
    3.7169   12.7514   27.5239 C   0  0  0  0  0  0  0  0  0  0  0  0
    6.5243   10.8780   25.8051 C   0  0  0  0  0  0  0  0  0  0  0  0
    7.6421   11.1471   24.9954 C   0  0  0  0  0  0  0  0  0  0  0  0
    8.1830    9.9126   24.3755 C   0  0  0  0  0  0  0  0  0  0  0  0
    7.7992    8.8083   24.7382 O   0  0  0  0  0  0  0  0  0  0  0  0
    9.1045   10.1282   23.4201 O   0  0  0  0  0  0  0  0  0  0  0  0
    9.6223    8.9264   22.8540 C   0  0  0  0  0  0  0  0  0  0  0  0
  1  2  1  0
  2  3  1  0
  3  4  1  0
  4  5  1  0
  3  6  1  0
  6  7  1  0
  6  8  1  0
  8  9  2  0
  9 10  1  0
 10 11  2  0
 11 12  1  0
 12 13  1  0
 13 14  1  0
 11 15  1  0
 15 16  2  0
 16 17  1  0
 17 18  2  0
 17 19  1  0
 19 20  1  0
 16  8  1  0
 14 12  1  0
M  END
>  <energy_score>  (1263) 
-36.062036

>  <inchikey>  (1263) 
BTMDBVFYNMZVAP-UHFFFAOYSA-N

>  <smiles>  (1263) 
CCC(CC)N(N)c1cnc(C2CC2)cc1C(=O)OC

>  <ref_pdb>  (1263) 
A0528a

>  <alias>  (1263) 
BTMDBVFYNMZVAP-UHFFFAOYSA-N-P308-P15-P308-601501

>  <HIPPO Pose ID>  (1263) 
501705

>  <name>  (1263) 
BTMDBVFYNMZVAP-UHFFFAOYSA-N-P308-P15-P308-601501

>  <HIPPO Compound ID>  (1263) 
292566

>  <ref_mols>  (1263) 
A4331a,A0514a

>  <distance_score>  (1263) 
1.722407

>  <inspiration_score>  (1263) 
None

$$$$
CIKFTNODNRYKNX-UHFFFAOYSA-N-P308-P15-P308-601501
     RDKit          3D

 20 23  0  0  0  0  0  0  0  0999 V2000
    9.6071    8.7615   23.1210 C   0  0  0  0  0  0  0  0  0  0  0  0
    8.8136    9.8060   23.6738 O   0  0  0  0  0  0  0  0  0  0  0  0
    9.4972   10.7282   24.3886 C   0  0  0  0  0  0  0  0  0  0  0  0
   10.6980   10.7762   24.5943 O   0  0  0  0  0  0  0  0  0  0  0  0
    8.5135   11.7015   24.8973 C   0  0  0  0  0  0  0  0  0  0  0  0
    7.3547   11.1760   25.4975 C   0  0  0  0  0  0  0  0  0  0  0  0
    6.4847   12.0359   26.1410 C   0  0  0  0  0  0  0  0  0  0  0  0
    5.2291   11.5601   26.8166 C   0  0  0  0  0  0  0  0  0  0  0  0
    4.9154   12.0281   28.2199 C   0  0  0  0  0  0  0  0  0  0  0  0
    4.1152   12.5576   27.0715 C   0  0  0  0  0  0  0  0  0  0  0  0
    6.7818   13.3504   26.2364 N   0  0  0  0  0  0  0  0  0  0  0  0
    7.8892   13.8294   25.6269 C   0  0  0  0  0  0  0  0  0  0  0  0
    8.7770   13.0800   24.8740 C   0  0  0  0  0  0  0  0  0  0  0  0
    9.8317   13.6719   24.1410 N   0  0  0  0  0  0  0  0  0  0  0  0
    9.8274   13.4276   22.6979 C   0  0  0  0  0  0  0  0  0  0  0  0
    8.7856   14.4384   22.2167 C   0  0  0  0  0  0  0  0  0  0  0  0
    9.0476   15.6154   23.1661 C   0  0  0  0  0  0  0  0  0  0  0  0
   10.0794   15.1087   24.1380 N   0  0  0  0  0  0  0  0  0  0  0  0
   11.3618   15.1310   23.3551 C   0  0  0  0  0  0  0  0  0  0  0  0
   11.2017   13.9848   22.3473 C   0  0  0  0  0  0  0  0  0  0  0  0
  1  2  1  0
  2  3  1  0
  3  4  2  0
  3  5  1  0
  5  6  2  0
  6  7  1  0
  7  8  1  0
  8  9  1  0
  9 10  1  0
  7 11  2  0
 11 12  1  0
 12 13  2  0
 13 14  1  0
 14 15  1  0
 15 16  1  0
 16 17  1  0
 17 18  1  0
 18 19  1  0
 19 20  1  0
 13  5  1  0
 18 14  1  0
 10  8  1  0
 20 15  1  0
M  END
>  <energy_score>  (1264) 
-42.431469

>  <inchikey>  (1264) 
CIKFTNODNRYKNX-UHFFFAOYSA-N

>  <smiles>  (1264) 
COC(=O)c1cc(C2CC2)ncc1N1C2CCN1CC2

>  <ref_pdb>  (1264) 
A0528a

>  <alias>  (1264) 
CIKFTNODNRYKNX-UHFFFAOYSA-N-P308-P15-P308-601501

>  <HIPPO Pose ID>  (1264) 
501709

>  <name>  (1264) 
CIKFTNODNRYKNX-UHFFFAOYSA-N-P308-P15-P308-601501

>  <HIPPO Compound ID>  (1264) 
292568

>  <ref_mols>  (1264) 
A4331a,A0514a

>  <distance_score>  (1264) 
1.914754

>  <inspiration_score>  (1264) 
None

$$$$
QQRIFGCKTMEUBY-UHFFFAOYSA-N-P308-P15-P308-601501
     RDKit          3D

 20 21  0  0  0  0  0  0  0  0999 V2000
    9.2711    8.4105   23.0722 C   0  0  0  0  0  0  0  0  0  0  0  0
    8.4036    9.2161   23.8574 O   0  0  0  0  0  0  0  0  0  0  0  0
    9.0642   10.1816   24.5331 C   0  0  0  0  0  0  0  0  0  0  0  0
   10.2717   10.2768   24.7068 O   0  0  0  0  0  0  0  0  0  0  0  0
    8.0775   11.1915   24.9567 C   0  0  0  0  0  0  0  0  0  0  0  0
    6.9904   10.7218   25.7087 C   0  0  0  0  0  0  0  0  0  0  0  0
    6.1496   11.6326   26.3201 C   0  0  0  0  0  0  0  0  0  0  0  0
    5.0336   11.2305   27.2439 C   0  0  0  0  0  0  0  0  0  0  0  0
    3.8328   12.1349   27.4190 C   0  0  0  0  0  0  0  0  0  0  0  0
    4.8476   12.0421   28.5141 C   0  0  0  0  0  0  0  0  0  0  0  0
    6.3807   12.9523   26.1958 N   0  0  0  0  0  0  0  0  0  0  0  0
    7.3796   13.3720   25.3971 C   0  0  0  0  0  0  0  0  0  0  0  0
    8.2472   12.5590   24.6760 C   0  0  0  0  0  0  0  0  0  0  0  0
    9.1693   13.1009   23.7327 N   0  0  0  0  0  0  0  0  0  0  0  0
    9.7624   12.1595   22.8555 N   0  0  0  0  0  0  0  0  0  0  0  0
    8.7936   14.4184   23.1223 C   0  0  2  0  0  0  0  0  0  0  0  0
    7.6085   14.2464   22.1668 C   0  0  0  0  0  0  0  0  0  0  0  0
   10.0250   15.0807   22.4474 C   0  0  0  0  0  0  0  0  0  0  0  0
    9.6445   16.2921   21.6010 C   0  0  0  0  0  0  0  0  0  0  0  0
   11.0579   15.4751   23.5058 C   0  0  0  0  0  0  0  0  0  0  0  0
  1  2  1  0
  2  3  1  0
  3  4  2  0
  3  5  1  0
  5  6  2  0
  6  7  1  0
  7  8  1  0
  8  9  1  0
  9 10  1  0
  7 11  2  0
 11 12  1  0
 12 13  2  0
 13 14  1  0
 14 15  1  0
 14 16  1  0
 16 17  1  6
 16 18  1  0
 18 19  1  0
 18 20  1  0
 13  5  1  0
 10  8  1  0
M  END
>  <energy_score>  (1265) 
-46.036911

>  <inchikey>  (1265) 
QQRIFGCKTMEUBY-UHFFFAOYSA-N

>  <smiles>  (1265) 
COC(=O)c1cc(C2CC2)ncc1N(N)C(C)C(C)C

>  <ref_pdb>  (1265) 
A0528a

>  <alias>  (1265) 
QQRIFGCKTMEUBY-UHFFFAOYSA-N-P308-P15-P308-601501

>  <HIPPO Pose ID>  (1265) 
501711

>  <name>  (1265) 
QQRIFGCKTMEUBY-UHFFFAOYSA-N-P308-P15-P308-601501

>  <HIPPO Compound ID>  (1265) 
292569

>  <ref_mols>  (1265) 
A4331a,A0514a

>  <distance_score>  (1265) 
1.342723

>  <inspiration_score>  (1265) 
None

$$$$
JJRZARWUSRCCJQ-UHFFFAOYSA-N-P308-P15-P308-601501
     RDKit          3D

 20 22  0  0  0  0  0  0  0  0999 V2000
    9.4492    8.4354   23.1001 C   0  0  0  0  0  0  0  0  0  0  0  0
    8.6092    9.2164   23.9332 O   0  0  0  0  0  0  0  0  0  0  0  0
    9.2667   10.2302   24.5312 C   0  0  0  0  0  0  0  0  0  0  0  0
   10.4741   10.3782   24.6587 O   0  0  0  0  0  0  0  0  0  0  0  0
    8.2706   11.2295   24.9388 C   0  0  0  0  0  0  0  0  0  0  0  0
    7.1014   10.8336   25.5858 C   0  0  0  0  0  0  0  0  0  0  0  0
    6.2147   11.8156   25.9897 C   0  0  0  0  0  0  0  0  0  0  0  0
    5.0560   11.5139   26.8980 C   0  0  0  0  0  0  0  0  0  0  0  0
    4.9890   12.2092   28.2406 C   0  0  0  0  0  0  0  0  0  0  0  0
    4.0148   12.5809   27.1679 C   0  0  0  0  0  0  0  0  0  0  0  0
    6.4177   13.1074   25.6434 N   0  0  0  0  0  0  0  0  0  0  0  0
    7.5147   13.4507   24.9410 C   0  0  0  0  0  0  0  0  0  0  0  0
    8.5291   12.5685   24.6413 C   0  0  0  0  0  0  0  0  0  0  0  0
    9.7319   12.9641   24.0647 N   0  0  0  0  0  0  0  0  0  0  0  0
    9.9479   13.9873   23.1910 C   0  0  0  0  0  0  0  0  0  0  0  0
    9.2198   14.3553   22.1846 N   0  0  0  0  0  0  0  0  0  0  0  0
    9.9111   15.3732   21.5802 N   0  0  0  0  0  0  0  0  0  0  0  0
    9.8563   15.5092   20.1297 C   0  0  0  0  0  0  0  0  0  0  0  0
   11.2931   15.4648   22.0262 C   0  0  0  0  0  0  0  0  0  0  0  0
   11.2071   14.7895   23.3666 C   0  0  0  0  0  0  0  0  0  0  0  0
  1  2  1  0
  2  3  1  0
  3  4  2  0
  3  5  1  0
  5  6  2  0
  6  7  1  0
  7  8  1  0
  8  9  1  0
  9 10  1  0
  7 11  2  0
 11 12  1  0
 12 13  2  0
 13 14  1  0
 14 15  1  0
 15 16  2  0
 16 17  1  0
 17 18  1  0
 17 19  1  0
 19 20  1  0
 13  5  1  0
 20 15  1  0
 10  8  1  0
M  END
>  <energy_score>  (1266) 
-37.808395

>  <inchikey>  (1266) 
JJRZARWUSRCCJQ-UHFFFAOYSA-N

>  <smiles>  (1266) 
COC(=O)c1cc(C2CC2)ncc1NC1=NN(C)CC1

>  <ref_pdb>  (1266) 
A0528a

>  <alias>  (1266) 
JJRZARWUSRCCJQ-UHFFFAOYSA-N-P308-P15-P308-601501

>  <HIPPO Pose ID>  (1266) 
501717

>  <name>  (1266) 
JJRZARWUSRCCJQ-UHFFFAOYSA-N-P308-P15-P308-601501

>  <HIPPO Compound ID>  (1266) 
292572

>  <ref_mols>  (1266) 
A4331a,A0514a

>  <distance_score>  (1266) 
1.634567

>  <inspiration_score>  (1266) 
None

$$$$
FNPBCGZTXGNWIN-UHFFFAOYSA-N-P308-P15-P308-601501
     RDKit          3D

 20 21  0  0  0  0  0  0  0  0999 V2000
    9.6163    8.5772   23.5552 C   0  0  0  0  0  0  0  0  0  0  0  0
    8.7846    9.3775   24.3905 O   0  0  0  0  0  0  0  0  0  0  0  0
    8.7550   10.6752   24.0069 C   0  0  0  0  0  0  0  0  0  0  0  0
    9.2972   11.1401   23.0191 O   0  0  0  0  0  0  0  0  0  0  0  0
    7.9404   11.4627   24.9505 C   0  0  0  0  0  0  0  0  0  0  0  0
    6.8136   10.8918   25.5531 C   0  0  0  0  0  0  0  0  0  0  0  0
    6.0263   11.6854   26.3767 C   0  0  0  0  0  0  0  0  0  0  0  0
    4.8931   11.1426   27.2010 C   0  0  0  0  0  0  0  0  0  0  0  0
    3.6924   12.0184   27.4934 C   0  0  0  0  0  0  0  0  0  0  0  0
    4.6804   11.7409   28.5807 C   0  0  0  0  0  0  0  0  0  0  0  0
    6.2967   13.0004   26.5459 N   0  0  0  0  0  0  0  0  0  0  0  0
    7.3885   13.5185   25.9713 C   0  0  0  0  0  0  0  0  0  0  0  0
    8.2824   12.7938   25.2050 C   0  0  0  0  0  0  0  0  0  0  0  0
    9.4800   13.3804   24.7388 N   0  0  0  0  0  0  0  0  0  0  0  0
   10.3350   13.8607   25.7755 N   0  0  0  0  0  0  0  0  0  0  0  0
    9.1732   14.2986   23.6177 C   0  0  0  0  0  0  0  0  0  0  0  0
   10.4182   14.4815   22.7601 C   0  0  0  0  0  0  0  0  0  0  0  0
   10.2369   15.4974   21.6317 C   0  0  0  0  0  0  0  0  0  0  0  0
    8.9803   15.2309   20.8271 C   0  0  0  0  0  0  0  0  0  0  0  0
   11.4620   15.4650   20.7208 C   0  0  0  0  0  0  0  0  0  0  0  0
  1  2  1  0
  2  3  1  0
  3  4  2  0
  3  5  1  0
  5  6  2  0
  6  7  1  0
  7  8  1  0
  8  9  1  0
  9 10  1  0
  7 11  2  0
 11 12  1  0
 12 13  2  0
 13 14  1  0
 14 15  1  0
 14 16  1  0
 16 17  1  0
 17 18  1  0
 18 19  1  0
 18 20  1  0
 13  5  1  0
 10  8  1  0
M  END
>  <energy_score>  (1267) 
-37.604676

>  <inchikey>  (1267) 
FNPBCGZTXGNWIN-UHFFFAOYSA-N

>  <smiles>  (1267) 
COC(=O)c1cc(C2CC2)ncc1N(N)CCC(C)C

>  <ref_pdb>  (1267) 
A0528a

>  <alias>  (1267) 
FNPBCGZTXGNWIN-UHFFFAOYSA-N-P308-P15-P308-601501

>  <HIPPO Pose ID>  (1267) 
501719

>  <name>  (1267) 
FNPBCGZTXGNWIN-UHFFFAOYSA-N-P308-P15-P308-601501

>  <HIPPO Compound ID>  (1267) 
292573

>  <ref_mols>  (1267) 
A4331a,A0514a

>  <distance_score>  (1267) 
1.398726

>  <inspiration_score>  (1267) 
None

$$$$
GAYRVLXTARAIBY-UHFFFAOYSA-N-P308-P15-P308-601501
     RDKit          3D

 20 21  0  0  0  0  0  0  0  0999 V2000
    9.2642    8.4113   23.6968 C   0  0  0  0  0  0  0  0  0  0  0  0
    8.5634    9.3657   24.4816 O   0  0  0  0  0  0  0  0  0  0  0  0
    8.6763   10.6026   23.9549 C   0  0  0  0  0  0  0  0  0  0  0  0
    9.2388   10.8802   22.9103 O   0  0  0  0  0  0  0  0  0  0  0  0
    8.0107   11.5798   24.8294 C   0  0  0  0  0  0  0  0  0  0  0  0
    6.7850   11.2556   25.4222 C   0  0  0  0  0  0  0  0  0  0  0  0
    6.1339   12.2322   26.1579 C   0  0  0  0  0  0  0  0  0  0  0  0
    4.7520   12.0767   26.7047 C   0  0  0  0  0  0  0  0  0  0  0  0
    4.4138   11.1838   27.8634 C   0  0  0  0  0  0  0  0  0  0  0  0
    4.4805   12.6649   28.0758 C   0  0  0  0  0  0  0  0  0  0  0  0
    6.6976   13.4431   26.3612 N   0  0  0  0  0  0  0  0  0  0  0  0
    7.8871   13.7180   25.8025 C   0  0  0  0  0  0  0  0  0  0  0  0
    8.5970   12.8378   25.0101 C   0  0  0  0  0  0  0  0  0  0  0  0
    9.8224   13.1935   24.4226 N   0  0  0  0  0  0  0  0  0  0  0  0
   10.8263   13.7028   25.2808 N   0  0  0  0  0  0  0  0  0  0  0  0
    9.6738   13.7213   23.0278 C   0  0  0  0  0  0  0  0  0  0  0  0
    9.5418   15.2315   22.9085 C   0  0  0  0  0  0  0  0  0  0  0  0
    9.5052   15.6071   21.6119 F   0  0  0  0  0  0  0  0  0  0  0  0
   10.5917   15.8574   23.4961 F   0  0  0  0  0  0  0  0  0  0  0  0
    8.4174   15.6863   23.5028 F   0  0  0  0  0  0  0  0  0  0  0  0
  1  2  1  0
  2  3  1  0
  3  4  2  0
  3  5  1  0
  5  6  2  0
  6  7  1  0
  7  8  1  0
  8  9  1  0
  9 10  1  0
  7 11  2  0
 11 12  1  0
 12 13  2  0
 13 14  1  0
 14 15  1  0
 14 16  1  0
 16 17  1  0
 17 18  1  0
 17 19  1  0
 17 20  1  0
 13  5  1  0
 10  8  1  0
M  END
>  <energy_score>  (1268) 
-37.930027

>  <inchikey>  (1268) 
GAYRVLXTARAIBY-UHFFFAOYSA-N

>  <smiles>  (1268) 
COC(=O)c1cc(C2CC2)ncc1N(N)CC(F)(F)F

>  <ref_pdb>  (1268) 
A0528a

>  <alias>  (1268) 
GAYRVLXTARAIBY-UHFFFAOYSA-N-P308-P15-P308-601501

>  <HIPPO Pose ID>  (1268) 
501725

>  <name>  (1268) 
GAYRVLXTARAIBY-UHFFFAOYSA-N-P308-P15-P308-601501

>  <HIPPO Compound ID>  (1268) 
292576

>  <ref_mols>  (1268) 
A4331a,A0514a

>  <distance_score>  (1268) 
1.404771

>  <inspiration_score>  (1268) 
None

$$$$
CIEDROUCRORRHZ-UHFFFAOYSA-N-P308-P15-P308-601501
     RDKit          3D

 20 22  0  0  0  0  0  0  0  0999 V2000
    9.3516    8.5461   23.0491 C   0  0  0  0  0  0  0  0  0  0  0  0
    8.4819    9.4141   23.7654 O   0  0  0  0  0  0  0  0  0  0  0  0
    9.1357   10.3601   24.4745 C   0  0  0  0  0  0  0  0  0  0  0  0
   10.3417   10.4441   24.6552 O   0  0  0  0  0  0  0  0  0  0  0  0
    8.1296   11.2948   25.0145 C   0  0  0  0  0  0  0  0  0  0  0  0
    7.0165   10.7761   25.6868 C   0  0  0  0  0  0  0  0  0  0  0  0
    6.1507   11.6541   26.3226 C   0  0  0  0  0  0  0  0  0  0  0  0
    5.0157   11.1975   27.1979 C   0  0  0  0  0  0  0  0  0  0  0  0
    3.8169   12.0972   27.4140 C   0  0  0  0  0  0  0  0  0  0  0  0
    4.8149   11.9281   28.5146 C   0  0  0  0  0  0  0  0  0  0  0  0
    6.3660   12.9863   26.2771 N   0  0  0  0  0  0  0  0  0  0  0  0
    7.4076   13.4596   25.5770 C   0  0  0  0  0  0  0  0  0  0  0  0
    8.3140   12.6743   24.8862 C   0  0  0  0  0  0  0  0  0  0  0  0
    9.3207   13.2286   24.0753 N   0  0  0  0  0  0  0  0  0  0  0  0
   10.5981   13.2463   24.7281 N   0  0  0  0  0  0  0  0  0  0  0  0
    8.9282   14.4244   23.2644 C   0  0  2  0  0  0  0  0  0  0  0  0
    7.6300   14.1850   22.4782 C   0  0  0  0  0  0  0  0  0  0  0  0
   10.0298   14.7169   22.2690 C   0  0  0  0  0  0  0  0  0  0  0  0
   10.0753   16.0384   21.5442 C   0  0  0  0  0  0  0  0  0  0  0  0
   11.1068   15.7237   22.5918 C   0  0  0  0  0  0  0  0  0  0  0  0
  1  2  1  0
  2  3  1  0
  3  4  2  0
  3  5  1  0
  5  6  2  0
  6  7  1  0
  7  8  1  0
  8  9  1  0
  9 10  1  0
  7 11  2  0
 11 12  1  0
 12 13  2  0
 13 14  1  0
 14 15  1  0
 14 16  1  0
 16 17  1  6
 16 18  1  0
 18 19  1  0
 19 20  1  0
 13  5  1  0
 20 18  1  0
 10  8  1  0
M  END
>  <energy_score>  (1269) 
-41.755023

>  <inchikey>  (1269) 
CIEDROUCRORRHZ-UHFFFAOYSA-N

>  <smiles>  (1269) 
COC(=O)c1cc(C2CC2)ncc1N(N)C(C)C1CC1

>  <ref_pdb>  (1269) 
A0528a

>  <alias>  (1269) 
CIEDROUCRORRHZ-UHFFFAOYSA-N-P308-P15-P308-601501

>  <HIPPO Pose ID>  (1269) 
501731

>  <name>  (1269) 
CIEDROUCRORRHZ-UHFFFAOYSA-N-P308-P15-P308-601501

>  <HIPPO Compound ID>  (1269) 
292579

>  <ref_mols>  (1269) 
A4331a,A0514a

>  <distance_score>  (1269) 
1.298418

>  <inspiration_score>  (1269) 
None

$$$$
DVTDEJLJACCKQK-UHFFFAOYSA-N-P308-P15-P308-601501
     RDKit          3D

 20 21  0  0  0  0  0  0  0  0999 V2000
   12.1140   16.1060   21.4164 C   0  0  0  0  0  0  0  0  0  0  0  0
   10.9850   15.5297   20.5744 C   0  0  0  0  0  0  0  0  0  0  0  0
    9.7453   15.1953   21.4030 C   0  0  0  0  0  0  0  0  0  0  0  0
   10.0769   14.2041   22.5102 C   0  0  0  0  0  0  0  0  0  0  0  0
    8.8599   13.8183   23.3298 C   0  0  0  0  0  0  0  0  0  0  0  0
    9.2307   12.7985   24.3550 N   0  0  0  0  0  0  0  0  0  0  0  0
   10.2811   13.1609   25.2583 N   0  0  0  0  0  0  0  0  0  0  0  0
    8.0615   12.3882   25.0417 C   0  0  0  0  0  0  0  0  0  0  0  0
    7.3361   13.3165   25.7825 C   0  0  0  0  0  0  0  0  0  0  0  0
    6.2461   13.0382   26.5106 N   0  0  0  0  0  0  0  0  0  0  0  0
    5.7913   11.7708   26.5325 C   0  0  0  0  0  0  0  0  0  0  0  0
    4.6055   11.4877   27.4036 C   0  0  0  0  0  0  0  0  0  0  0  0
    4.4689   12.2120   28.7220 C   0  0  0  0  0  0  0  0  0  0  0  0
    3.5643   12.5712   27.5823 C   0  0  0  0  0  0  0  0  0  0  0  0
    6.4369   10.7744   25.8232 C   0  0  0  0  0  0  0  0  0  0  0  0
    7.5919   11.0731   25.0868 C   0  0  0  0  0  0  0  0  0  0  0  0
    8.2254    9.8936   24.4631 C   0  0  0  0  0  0  0  0  0  0  0  0
    7.8980    8.7618   24.7955 O   0  0  0  0  0  0  0  0  0  0  0  0
    9.1048   10.1925   23.4883 O   0  0  0  0  0  0  0  0  0  0  0  0
    9.6725    9.0326   22.8858 C   0  0  0  0  0  0  0  0  0  0  0  0
  1  2  1  0
  2  3  1  0
  3  4  1  0
  4  5  1  0
  5  6  1  0
  6  7  1  0
  6  8  1  0
  8  9  2  0
  9 10  1  0
 10 11  2  0
 11 12  1  0
 12 13  1  0
 13 14  1  0
 11 15  1  0
 15 16  2  0
 16 17  1  0
 17 18  2  0
 17 19  1  0
 19 20  1  0
 16  8  1  0
 14 12  1  0
M  END
>  <energy_score>  (1270) 
-38.665133

>  <inchikey>  (1270) 
DVTDEJLJACCKQK-UHFFFAOYSA-N

>  <smiles>  (1270) 
CCCCCN(N)c1cnc(C2CC2)cc1C(=O)OC

>  <ref_pdb>  (1270) 
A0528a

>  <alias>  (1270) 
DVTDEJLJACCKQK-UHFFFAOYSA-N-P308-P15-P308-601501

>  <HIPPO Pose ID>  (1270) 
501733

>  <name>  (1270) 
DVTDEJLJACCKQK-UHFFFAOYSA-N-P308-P15-P308-601501

>  <HIPPO Compound ID>  (1270) 
292580

>  <ref_mols>  (1270) 
A4331a,A0514a

>  <distance_score>  (1270) 
1.562054

>  <inspiration_score>  (1270) 
None

$$$$
GESMEQKVEPIWDQ-UHFFFAOYSA-N-P308-P15-P308-601501
     RDKit          3D

 20 22  0  0  0  0  0  0  0  0999 V2000
    9.3964    8.7465   23.2311 C   0  0  0  0  0  0  0  0  0  0  0  0
    8.3964    9.5541   23.8503 O   0  0  0  0  0  0  0  0  0  0  0  0
    8.8509   10.7699   24.2312 C   0  0  0  0  0  0  0  0  0  0  0  0
    9.9988   11.1761   24.1725 O   0  0  0  0  0  0  0  0  0  0  0  0
    7.7343   11.5456   24.7966 C   0  0  0  0  0  0  0  0  0  0  0  0
    6.9226   10.9299   25.7536 C   0  0  0  0  0  0  0  0  0  0  0  0
    5.9586   11.6834   26.4071 C   0  0  0  0  0  0  0  0  0  0  0  0
    5.0165   11.1060   27.4247 C   0  0  0  0  0  0  0  0  0  0  0  0
    4.9219   11.7605   28.7859 C   0  0  0  0  0  0  0  0  0  0  0  0
    3.7892   11.9054   27.8221 C   0  0  0  0  0  0  0  0  0  0  0  0
    5.8470   13.0069   26.1766 N   0  0  0  0  0  0  0  0  0  0  0  0
    6.5642   13.5502   25.1827 C   0  0  0  0  0  0  0  0  0  0  0  0
    7.4861   12.8636   24.4090 C   0  0  0  0  0  0  0  0  0  0  0  0
    7.9501   13.4186   23.2004 N   0  0  0  0  0  0  0  0  0  0  0  0
    6.9583   14.1422   22.4676 N   0  0  0  0  0  0  0  0  0  0  0  0
    9.3058   14.0114   23.2813 C   0  0  1  0  0  0  0  0  0  0  0  0
   10.0366   13.6746   21.9935 C   0  0  0  0  0  0  0  0  0  0  0  0
   11.3347   14.4452   21.9686 C   0  0  0  0  0  0  0  0  0  0  0  0
   10.9462   16.0273   22.7375 S   0  0  0  0  0  0  0  0  0  0  0  0
    9.3229   15.5342   23.3791 C   0  0  0  0  0  0  0  0  0  0  0  0
  1  2  1  0
  2  3  1  0
  3  4  2  0
  3  5  1  0
  5  6  2  0
  6  7  1  0
  7  8  1  0
  8  9  1  0
  9 10  1  0
  7 11  2  0
 11 12  1  0
 12 13  2  0
 13 14  1  0
 14 15  1  0
 16 14  1  6
 16 17  1  0
 17 18  1  0
 18 19  1  0
 19 20  1  0
 13  5  1  0
 20 16  1  0
 10  8  1  0
M  END
>  <energy_score>  (1271) 
-33.745034

>  <inchikey>  (1271) 
GESMEQKVEPIWDQ-UHFFFAOYSA-N

>  <smiles>  (1271) 
COC(=O)c1cc(C2CC2)ncc1N(N)C1CCSC1

>  <ref_pdb>  (1271) 
A0528a

>  <alias>  (1271) 
GESMEQKVEPIWDQ-UHFFFAOYSA-N-P308-P15-P308-601501

>  <HIPPO Pose ID>  (1271) 
501735

>  <name>  (1271) 
GESMEQKVEPIWDQ-UHFFFAOYSA-N-P308-P15-P308-601501

>  <HIPPO Compound ID>  (1271) 
292581

>  <ref_mols>  (1271) 
A4331a,A0514a

>  <distance_score>  (1271) 
1.847264

>  <inspiration_score>  (1271) 
None

$$$$
WEFYFGPLRBXMOK-UHFFFAOYSA-N-P308-P15-P308-601501
     RDKit          3D

 20 22  0  0  0  0  0  0  0  0999 V2000
    9.4600    8.5297   23.0799 C   0  0  0  0  0  0  0  0  0  0  0  0
    8.6038    9.3785   23.8286 O   0  0  0  0  0  0  0  0  0  0  0  0
    9.2582   10.3384   24.5146 C   0  0  0  0  0  0  0  0  0  0  0  0
   10.4617   10.4452   24.6966 O   0  0  0  0  0  0  0  0  0  0  0  0
    8.2488   11.3021   24.9774 C   0  0  0  0  0  0  0  0  0  0  0  0
    7.1182   10.8352   25.6555 C   0  0  0  0  0  0  0  0  0  0  0  0
    6.2088   11.7577   26.1494 C   0  0  0  0  0  0  0  0  0  0  0  0
    5.0938   11.3722   27.0829 C   0  0  0  0  0  0  0  0  0  0  0  0
    3.9028   12.2844   27.2750 C   0  0  0  0  0  0  0  0  0  0  0  0
    4.9389   12.1945   28.3505 C   0  0  0  0  0  0  0  0  0  0  0  0
    6.3641   13.0761   25.8952 N   0  0  0  0  0  0  0  0  0  0  0  0
    7.4098   13.4896   25.1589 C   0  0  0  0  0  0  0  0  0  0  0  0
    8.4212   12.6592   24.7114 C   0  0  0  0  0  0  0  0  0  0  0  0
    9.5141   13.1748   23.9947 N   0  0  0  0  0  0  0  0  0  0  0  0
   10.7725   13.2599   24.6269 N   0  0  0  0  0  0  0  0  0  0  0  0
    9.3591   13.9302   22.8781 C   0  0  0  0  0  0  0  0  0  0  0  0
    8.2928   14.1057   22.1230 N   0  0  0  0  0  0  0  0  0  0  0  0
    8.6510   14.9154   21.0664 N   0  0  0  0  0  0  0  0  0  0  0  0
    9.9190   15.2163   21.2022 C   0  0  0  0  0  0  0  0  0  0  0  0
   10.4025   14.6135   22.3157 N   0  0  0  0  0  0  0  0  0  0  0  0
  1  2  1  0
  2  3  1  0
  3  4  2  0
  3  5  1  0
  5  6  2  0
  6  7  1  0
  7  8  1  0
  8  9  1  0
  9 10  1  0
  7 11  2  0
 11 12  1  0
 12 13  2  0
 13 14  1  0
 14 15  1  0
 14 16  1  0
 16 17  2  0
 17 18  1  0
 18 19  2  0
 19 20  1  0
 13  5  1  0
 20 16  1  0
 10  8  1  0
M  END
>  <energy_score>  (1272) 
-41.528273

>  <inchikey>  (1272) 
WEFYFGPLRBXMOK-UHFFFAOYSA-N

>  <smiles>  (1272) 
COC(=O)c1cc(C2CC2)ncc1N(N)c1nnc[nH]1

>  <ref_pdb>  (1272) 
A0528a

>  <alias>  (1272) 
WEFYFGPLRBXMOK-UHFFFAOYSA-N-P308-P15-P308-601501

>  <HIPPO Pose ID>  (1272) 
501737

>  <name>  (1272) 
WEFYFGPLRBXMOK-UHFFFAOYSA-N-P308-P15-P308-601501

>  <HIPPO Compound ID>  (1272) 
292582

>  <ref_mols>  (1272) 
A4331a,A0514a

>  <distance_score>  (1272) 
1.341445

>  <inspiration_score>  (1272) 
None

$$$$
AWNWICCAHWESBQ-UHFFFAOYSA-N-P308-P15-P308-601501
     RDKit          3D

 20 21  0  0  0  0  0  0  0  0999 V2000
    9.1209    8.6410   23.2834 C   0  0  0  0  0  0  0  0  0  0  0  0
    8.1684    9.4385   23.9876 O   0  0  0  0  0  0  0  0  0  0  0  0
    8.7173   10.5627   24.4966 C   0  0  0  0  0  0  0  0  0  0  0  0
    9.9093   10.8109   24.5868 O   0  0  0  0  0  0  0  0  0  0  0  0
    7.6603   11.4801   24.9511 C   0  0  0  0  0  0  0  0  0  0  0  0
    6.6889   11.0495   25.8583 C   0  0  0  0  0  0  0  0  0  0  0  0
    5.8188   11.9963   26.3852 C   0  0  0  0  0  0  0  0  0  0  0  0
    4.6257   11.7215   27.2380 C   0  0  0  0  0  0  0  0  0  0  0  0
    4.5072   10.7190   28.3370 C   0  0  0  0  0  0  0  0  0  0  0  0
    4.7267   12.1632   28.6819 C   0  0  0  0  0  0  0  0  0  0  0  0
    5.9664   13.3101   26.1128 N   0  0  0  0  0  0  0  0  0  0  0  0
    6.8216   13.6722   25.1517 C   0  0  0  0  0  0  0  0  0  0  0  0
    7.6354   12.7897   24.4695 C   0  0  0  0  0  0  0  0  0  0  0  0
    8.1661   13.1491   23.2258 N   0  0  0  0  0  0  0  0  0  0  0  0
    7.2263   13.6078   22.2539 N   0  0  0  0  0  0  0  0  0  0  0  0
    9.5817   13.5508   23.1881 C   0  0  0  0  0  0  0  0  0  0  0  0
    9.7658   15.0534   22.9152 C   0  0  2  0  0  0  0  0  0  0  0  0
    9.8985   15.3375   21.4138 C   0  0  0  0  0  0  0  0  0  0  0  0
   10.9948   15.5755   23.6601 C   0  0  0  0  0  0  0  0  0  0  0  0
   12.1687   14.8474   23.3364 O   0  0  0  0  0  0  0  0  0  0  0  0
  1  2  1  0
  2  3  1  0
  3  4  2  0
  3  5  1  0
  5  6  2  0
  6  7  1  0
  7  8  1  0
  8  9  1  0
  9 10  1  0
  7 11  2  0
 11 12  1  0
 12 13  2  0
 13 14  1  0
 14 15  1  0
 14 16  1  0
 16 17  1  0
 17 18  1  6
 17 19  1  0
 19 20  1  0
 13  5  1  0
 10  8  1  0
M  END
>  <energy_score>  (1273) 
-16.771187

>  <inchikey>  (1273) 
AWNWICCAHWESBQ-UHFFFAOYSA-N

>  <smiles>  (1273) 
COC(=O)c1cc(C2CC2)ncc1N(N)CC(C)CO

>  <ref_pdb>  (1273) 
A0528a

>  <alias>  (1273) 
AWNWICCAHWESBQ-UHFFFAOYSA-N-P308-P15-P308-601501

>  <HIPPO Pose ID>  (1273) 
501739

>  <name>  (1273) 
AWNWICCAHWESBQ-UHFFFAOYSA-N-P308-P15-P308-601501

>  <HIPPO Compound ID>  (1273) 
292583

>  <ref_mols>  (1273) 
A4331a,A0514a

>  <distance_score>  (1273) 
1.692317

>  <inspiration_score>  (1273) 
None

$$$$
JLQMZGFYWQHARH-UHFFFAOYSA-N-P308-P15-P308-601501
     RDKit          3D

 20 22  0  0  0  0  0  0  0  0999 V2000
    9.3087    8.5807   23.7580 C   0  0  0  0  0  0  0  0  0  0  0  0
    8.5163    9.4709   24.5380 O   0  0  0  0  0  0  0  0  0  0  0  0
    8.5589   10.7331   24.0569 C   0  0  0  0  0  0  0  0  0  0  0  0
    9.1018   11.0931   23.0267 O   0  0  0  0  0  0  0  0  0  0  0  0
    7.8217   11.6300   24.9627 C   0  0  0  0  0  0  0  0  0  0  0  0
    6.6285   11.2075   25.5583 C   0  0  0  0  0  0  0  0  0  0  0  0
    5.9168   12.1218   26.3235 C   0  0  0  0  0  0  0  0  0  0  0  0
    4.5871   11.8518   26.9407 C   0  0  0  0  0  0  0  0  0  0  0  0
    4.3529   10.8098   27.9931 C   0  0  0  0  0  0  0  0  0  0  0  0
    4.4202   12.2516   28.3937 C   0  0  0  0  0  0  0  0  0  0  0  0
    6.3679   13.3777   26.5325 N   0  0  0  0  0  0  0  0  0  0  0  0
    7.5232   13.7460   25.9673 C   0  0  0  0  0  0  0  0  0  0  0  0
    8.3002   12.9253   25.1704 C   0  0  0  0  0  0  0  0  0  0  0  0
    9.5006   13.4013   24.6008 N   0  0  0  0  0  0  0  0  0  0  0  0
   10.4080   13.9411   25.5543 N   0  0  0  0  0  0  0  0  0  0  0  0
    9.1777   14.1965   23.3870 C   0  0  0  0  0  0  0  0  0  0  0  0
   10.4115   14.4378   22.5370 C   0  0  0  0  0  0  0  0  0  0  0  0
   10.2153   15.4011   21.3371 C   0  0  0  0  0  0  0  0  0  0  0  0
   11.6486   15.9034   21.6114 C   0  0  0  0  0  0  0  0  0  0  0  0
   11.4506   15.4599   23.0672 C   0  0  0  0  0  0  0  0  0  0  0  0
  1  2  1  0
  2  3  1  0
  3  4  2  0
  3  5  1  0
  5  6  2  0
  6  7  1  0
  7  8  1  0
  8  9  1  0
  9 10  1  0
  7 11  2  0
 11 12  1  0
 12 13  2  0
 13 14  1  0
 14 15  1  0
 14 16  1  0
 16 17  1  0
 17 18  1  0
 18 19  1  0
 19 20  1  0
 13  5  1  0
 20 17  1  0
 10  8  1  0
M  END
>  <energy_score>  (1274) 
-29.688059

>  <inchikey>  (1274) 
JLQMZGFYWQHARH-UHFFFAOYSA-N

>  <smiles>  (1274) 
COC(=O)c1cc(C2CC2)ncc1N(N)CC1CCC1

>  <ref_pdb>  (1274) 
A0528a

>  <alias>  (1274) 
JLQMZGFYWQHARH-UHFFFAOYSA-N-P308-P15-P308-601501

>  <HIPPO Pose ID>  (1274) 
501747

>  <name>  (1274) 
JLQMZGFYWQHARH-UHFFFAOYSA-N-P308-P15-P308-601501

>  <HIPPO Compound ID>  (1274) 
292587

>  <ref_mols>  (1274) 
A4331a,A0514a

>  <distance_score>  (1274) 
1.510698

>  <inspiration_score>  (1274) 
None

$$$$
YGUUVNNFLLYSMD-UHFFFAOYSA-N-P308-P15-P308-601501
     RDKit          3D

 20 22  0  0  0  0  0  0  0  0999 V2000
   11.3339   14.9708   20.8754 C   0  0  0  0  0  0  0  0  0  0  0  0
   11.4516   14.7657   22.3841 C   0  0  0  0  0  0  0  0  0  0  0  0
   10.1575   14.9461   23.2250 C   0  0  1  0  0  0  0  0  0  0  0  0
    9.3262   16.1085   22.7289 C   0  0  0  0  0  0  0  0  0  0  0  0
    8.3978   15.3470   21.8550 C   0  0  0  0  0  0  0  0  0  0  0  0
    8.3389   14.0725   22.0679 N   0  0  0  0  0  0  0  0  0  0  0  0
    9.2499   13.7631   23.0720 N   0  0  0  0  0  0  0  0  0  0  0  0
    8.5352   13.3172   24.2081 C   0  0  0  0  0  0  0  0  0  0  0  0
    7.5459   14.0847   24.8098 C   0  0  0  0  0  0  0  0  0  0  0  0
    6.7178   13.6724   25.7871 N   0  0  0  0  0  0  0  0  0  0  0  0
    6.7431   12.3785   26.1528 C   0  0  0  0  0  0  0  0  0  0  0  0
    5.7792   12.0295   27.2417 C   0  0  0  0  0  0  0  0  0  0  0  0
    4.8723   10.8437   27.1757 C   0  0  0  0  0  0  0  0  0  0  0  0
    4.3131   12.2220   26.9537 C   0  0  0  0  0  0  0  0  0  0  0  0
    7.6826   11.5111   25.6126 C   0  0  0  0  0  0  0  0  0  0  0  0
    8.6211   12.0161   24.6961 C   0  0  0  0  0  0  0  0  0  0  0  0
    9.6963   11.1078   24.2892 C   0  0  0  0  0  0  0  0  0  0  0  0
    9.4201   10.0542   23.7326 O   0  0  0  0  0  0  0  0  0  0  0  0
   10.9708   11.4350   24.6410 O   0  0  0  0  0  0  0  0  0  0  0  0
   11.3609   12.5658   25.4392 C   0  0  0  0  0  0  0  0  0  0  0  0
  1  2  1  0
  3  2  1  6
  3  4  1  0
  4  5  1  0
  5  6  2  0
  6  7  1  0
  7  8  1  0
  8  9  2  0
  9 10  1  0
 10 11  2  0
 11 12  1  0
 12 13  1  0
 13 14  1  0
 11 15  1  0
 15 16  2  0
 16 17  1  0
 17 18  2  0
 17 19  1  0
 19 20  1  0
  7  3  1  0
 16  8  1  0
 14 12  1  0
M  END
>  <energy_score>  (1275) 
-21.046227

>  <inchikey>  (1275) 
YGUUVNNFLLYSMD-UHFFFAOYSA-N

>  <smiles>  (1275) 
CCC1CC=NN1c1cnc(C2CC2)cc1C(=O)OC

>  <ref_pdb>  (1275) 
A0528a

>  <alias>  (1275) 
YGUUVNNFLLYSMD-UHFFFAOYSA-N-P308-P15-P308-601501

>  <HIPPO Pose ID>  (1275) 
501753

>  <name>  (1275) 
YGUUVNNFLLYSMD-UHFFFAOYSA-N-P308-P15-P308-601501

>  <HIPPO Compound ID>  (1275) 
292590

>  <ref_mols>  (1275) 
A4331a,A0514a

>  <distance_score>  (1275) 
1.72362

>  <inspiration_score>  (1275) 
None

$$$$
CYEULEJAIOSQEO-UHFFFAOYSA-N-P308-P15-P308-601501
     RDKit          3D

 20 21  0  0  0  0  0  0  0  0999 V2000
    9.3801    8.6156   23.0593 C   0  0  0  0  0  0  0  0  0  0  0  0
    8.5604    9.5570   23.7419 O   0  0  0  0  0  0  0  0  0  0  0  0
    9.2612   10.4428   24.4912 C   0  0  0  0  0  0  0  0  0  0  0  0
   10.4670   10.4430   24.6704 O   0  0  0  0  0  0  0  0  0  0  0  0
    8.2838   11.4006   25.0536 C   0  0  0  0  0  0  0  0  0  0  0  0
    7.1180   10.8985   25.6494 C   0  0  0  0  0  0  0  0  0  0  0  0
    6.2424   11.7838   26.2623 C   0  0  0  0  0  0  0  0  0  0  0  0
    5.0627   11.3291   27.0779 C   0  0  0  0  0  0  0  0  0  0  0  0
    3.8750   12.2472   27.2738 C   0  0  0  0  0  0  0  0  0  0  0  0
    4.8266   12.0266   28.4061 C   0  0  0  0  0  0  0  0  0  0  0  0
    6.4854   13.1143   26.2496 N   0  0  0  0  0  0  0  0  0  0  0  0
    7.5928   13.5718   25.6465 C   0  0  0  0  0  0  0  0  0  0  0  0
    8.5312   12.7754   25.0151 C   0  0  0  0  0  0  0  0  0  0  0  0
    9.6366   13.3281   24.3675 N   0  0  0  0  0  0  0  0  0  0  0  0
   10.7321   13.5769   25.2503 N   0  0  0  0  0  0  0  0  0  0  0  0
    9.4130   14.2980   23.2341 C   0  0  2  0  0  0  0  0  0  0  0  0
    8.0386   14.1381   22.5622 C   0  0  0  0  0  0  0  0  0  0  0  0
   10.5612   14.0996   22.2228 C   0  0  0  0  0  0  0  0  0  0  0  0
   11.7392   13.9316   22.5155 O   0  0  0  0  0  0  0  0  0  0  0  0
   10.1577   14.1074   20.9382 O   0  0  0  0  0  0  0  0  0  0  0  0
  1  2  1  0
  2  3  1  0
  3  4  2  0
  3  5  1  0
  5  6  2  0
  6  7  1  0
  7  8  1  0
  8  9  1  0
  9 10  1  0
  7 11  2  0
 11 12  1  0
 12 13  2  0
 13 14  1  0
 14 15  1  0
 14 16  1  0
 16 17  1  6
 16 18  1  0
 18 19  2  0
 18 20  1  0
 13  5  1  0
 10  8  1  0
M  END
>  <energy_score>  (1276) 
-49.135674

>  <inchikey>  (1276) 
CYEULEJAIOSQEO-UHFFFAOYSA-N

>  <smiles>  (1276) 
COC(=O)c1cc(C2CC2)ncc1N(N)C(C)C(=O)O

>  <ref_pdb>  (1276) 
A0528a

>  <alias>  (1276) 
CYEULEJAIOSQEO-UHFFFAOYSA-N-P308-P15-P308-601501

>  <HIPPO Pose ID>  (1276) 
501765

>  <name>  (1276) 
CYEULEJAIOSQEO-UHFFFAOYSA-N-P308-P15-P308-601501

>  <HIPPO Compound ID>  (1276) 
292596

>  <ref_mols>  (1276) 
A4331a,A0514a

>  <distance_score>  (1276) 
1.427565

>  <inspiration_score>  (1276) 
None

$$$$
RHLQHEYSSLRSNB-UHFFFAOYSA-N-P15-P15-P308-601501
     RDKit          3D

 20 21  0  0  0  0  0  0  0  0999 V2000
    9.0665    8.2843   22.8283 C   0  0  0  0  0  0  0  0  0  0  0  0
    8.2407    9.0758   23.6821 O   0  0  0  0  0  0  0  0  0  0  0  0
    8.9139   10.1666   24.0985 C   0  0  0  0  0  0  0  0  0  0  0  0
   10.0802   10.3826   23.8189 O   0  0  0  0  0  0  0  0  0  0  0  0
    8.0492   11.0751   24.8984 C   0  0  0  0  0  0  0  0  0  0  0  0
    6.9148   10.5812   25.5540 C   0  0  0  0  0  0  0  0  0  0  0  0
    6.2069   11.4271   26.4001 C   0  0  0  0  0  0  0  0  0  0  0  0
    5.0967   10.9557   27.2973 C   0  0  0  0  0  0  0  0  0  0  0  0
    3.9500   11.8908   27.6254 C   0  0  0  0  0  0  0  0  0  0  0  0
    4.9801   11.5966   28.6689 C   0  0  0  0  0  0  0  0  0  0  0  0
    6.5589   12.7232   26.5412 N   0  0  0  0  0  0  0  0  0  0  0  0
    7.6289   13.1862   25.8855 C   0  0  0  0  0  0  0  0  0  0  0  0
    8.4458   12.4122   25.0819 C   0  0  0  0  0  0  0  0  0  0  0  0
    9.6174   12.9466   24.5140 N   0  0  0  0  0  0  0  0  0  0  0  0
   10.4054   13.8617   25.2395 N   0  0  0  0  0  0  0  0  0  0  0  0
    9.5590   13.0139   23.0348 C   0  0  0  0  0  0  0  0  0  0  0  0
    9.4584   14.4379   22.4946 C   0  0  0  0  0  0  0  0  0  0  0  0
    9.1801   14.4943   21.0107 C   0  0  0  0  0  0  0  0  0  0  0  0
   10.8860   15.0258   22.5323 C   0  0  0  0  0  0  0  0  0  0  0  0
    8.1815   15.0640   23.1017 C   0  0  0  0  0  0  0  0  0  0  0  0
  1  2  1  0
  2  3  1  0
  3  4  2  0
  3  5  1  0
  5  6  2  0
  6  7  1  0
  7  8  1  0
  8  9  1  0
  9 10  1  0
  7 11  2  0
 11 12  1  0
 12 13  2  0
 13 14  1  0
 14 15  1  0
 14 16  1  0
 16 17  1  0
 17 18  1  0
 17 19  1  0
 17 20  1  0
 13  5  1  0
 10  8  1  0
M  END
>  <energy_score>  (1277) 
-24.276793

>  <inchikey>  (1277) 
RHLQHEYSSLRSNB-UHFFFAOYSA-N

>  <smiles>  (1277) 
COC(=O)c1cc(C2CC2)ncc1N(N)CC(C)(C)C

>  <ref_pdb>  (1277) 
A0528a

>  <alias>  (1277) 
RHLQHEYSSLRSNB-UHFFFAOYSA-N-P15-P15-P308-601501

>  <HIPPO Pose ID>  (1277) 
501770

>  <name>  (1277) 
RHLQHEYSSLRSNB-UHFFFAOYSA-N-P15-P15-P308-601501

>  <HIPPO Compound ID>  (1277) 
292599

>  <ref_mols>  (1277) 
A4331a,A0514a

>  <distance_score>  (1277) 
1.482882

>  <inspiration_score>  (1277) 
None

$$$$
DJESJVRIEJCZAC-UHFFFAOYSA-N-P308-P15-P308-601501
     RDKit          3D

 20 22  0  0  0  0  0  0  0  0999 V2000
    9.6228    8.4717   23.4786 C   0  0  0  0  0  0  0  0  0  0  0  0
    8.8357    9.3423   24.2825 O   0  0  0  0  0  0  0  0  0  0  0  0
    8.8699   10.6188   23.8373 C   0  0  0  0  0  0  0  0  0  0  0  0
    9.4427   11.0028   22.8313 O   0  0  0  0  0  0  0  0  0  0  0  0
    8.1065   11.4970   24.7456 C   0  0  0  0  0  0  0  0  0  0  0  0
    7.0299   10.9662   25.4717 C   0  0  0  0  0  0  0  0  0  0  0  0
    6.2584   11.8151   26.2532 C   0  0  0  0  0  0  0  0  0  0  0  0
    5.0766   11.3358   27.0501 C   0  0  0  0  0  0  0  0  0  0  0  0
    4.8452   11.8861   28.4405 C   0  0  0  0  0  0  0  0  0  0  0  0
    3.9463   12.3115   27.3231 C   0  0  0  0  0  0  0  0  0  0  0  0
    6.5511   13.1333   26.3411 N   0  0  0  0  0  0  0  0  0  0  0  0
    7.5758   13.6218   25.6238 C   0  0  0  0  0  0  0  0  0  0  0  0
    8.3904   12.8664   24.8001 C   0  0  0  0  0  0  0  0  0  0  0  0
    9.3955   13.5305   24.0563 N   0  0  0  0  0  0  0  0  0  0  0  0
   10.7133   13.0550   24.2784 N   0  0  0  0  0  0  0  0  0  0  0  0
    9.0908   14.3613   22.8699 C   0  0  0  0  0  0  0  0  0  0  0  0
    7.6702   14.2060   22.3513 C   0  0  0  0  0  0  0  0  0  0  0  0
    9.5332   15.8189   23.0828 C   0  0  0  0  0  0  0  0  0  0  0  0
   10.7074   15.6315   22.2551 O   0  0  0  0  0  0  0  0  0  0  0  0
   10.1686   14.3822   21.7524 C   0  0  0  0  0  0  0  0  0  0  0  0
  1  2  1  0
  2  3  1  0
  3  4  2  0
  3  5  1  0
  5  6  2  0
  6  7  1  0
  7  8  1  0
  8  9  1  0
  9 10  1  0
  7 11  2  0
 11 12  1  0
 12 13  2  0
 13 14  1  0
 14 15  1  0
 14 16  1  0
 16 17  1  0
 16 18  1  0
 18 19  1  0
 19 20  1  0
 13  5  1  0
 20 16  1  0
 10  8  1  0
M  END
>  <energy_score>  (1278) 
-43.064804

>  <inchikey>  (1278) 
DJESJVRIEJCZAC-UHFFFAOYSA-N

>  <smiles>  (1278) 
COC(=O)c1cc(C2CC2)ncc1N(N)C1(C)COC1

>  <ref_pdb>  (1278) 
A0528a

>  <alias>  (1278) 
DJESJVRIEJCZAC-UHFFFAOYSA-N-P308-P15-P308-601501

>  <HIPPO Pose ID>  (1278) 
501775

>  <name>  (1278) 
DJESJVRIEJCZAC-UHFFFAOYSA-N-P308-P15-P308-601501

>  <HIPPO Compound ID>  (1278) 
292601

>  <ref_mols>  (1278) 
A4331a,A0514a

>  <distance_score>  (1278) 
1.563726

>  <inspiration_score>  (1278) 
None

$$$$
ZRILEGQRLALMHU-UHFFFAOYSA-N-P308-P15-P308-601501
     RDKit          3D

 20 22  0  0  0  0  0  0  0  0999 V2000
    9.1904    8.5660   23.1336 C   0  0  0  0  0  0  0  0  0  0  0  0
    8.4089    9.5169   23.8530 O   0  0  0  0  0  0  0  0  0  0  0  0
    9.1599   10.4089   24.5418 C   0  0  0  0  0  0  0  0  0  0  0  0
   10.3769   10.3789   24.6472 O   0  0  0  0  0  0  0  0  0  0  0  0
    8.2643   11.4541   25.0963 C   0  0  0  0  0  0  0  0  0  0  0  0
    7.0159   11.0778   25.6259 C   0  0  0  0  0  0  0  0  0  0  0  0
    6.1833   12.0627   26.1458 C   0  0  0  0  0  0  0  0  0  0  0  0
    4.8179   11.8384   26.7048 C   0  0  0  0  0  0  0  0  0  0  0  0
    4.4867   10.9149   27.8387 C   0  0  0  0  0  0  0  0  0  0  0  0
    4.5746   12.3860   28.1008 C   0  0  0  0  0  0  0  0  0  0  0  0
    6.5560   13.3580   26.1576 N   0  0  0  0  0  0  0  0  0  0  0  0
    7.7333   13.6984   25.6253 C   0  0  0  0  0  0  0  0  0  0  0  0
    8.6342   12.8055   25.0693 C   0  0  0  0  0  0  0  0  0  0  0  0
    9.7608   13.3672   24.4465 N   0  0  0  0  0  0  0  0  0  0  0  0
   11.0261   12.9529   24.8952 N   0  0  0  0  0  0  0  0  0  0  0  0
    9.5269   13.6623   23.0171 C   0  0  0  0  0  0  0  0  0  0  0  0
    9.6684   15.1543   22.7692 C   0  0  0  0  0  0  0  0  0  0  0  0
   11.0997   15.6421   22.5215 C   0  0  0  0  0  0  0  0  0  0  0  0
   10.8857   15.5891   21.0843 O   0  0  0  0  0  0  0  0  0  0  0  0
    9.4536   15.5645   21.3088 C   0  0  0  0  0  0  0  0  0  0  0  0
  1  2  1  0
  2  3  1  0
  3  4  2  0
  3  5  1  0
  5  6  2  0
  6  7  1  0
  7  8  1  0
  8  9  1  0
  9 10  1  0
  7 11  2  0
 11 12  1  0
 12 13  2  0
 13 14  1  0
 14 15  1  0
 14 16  1  0
 16 17  1  0
 17 18  1  0
 18 19  1  0
 19 20  1  0
 13  5  1  0
 20 17  1  0
 10  8  1  0
M  END
>  <energy_score>  (1279) 
-39.499496

>  <inchikey>  (1279) 
ZRILEGQRLALMHU-UHFFFAOYSA-N

>  <smiles>  (1279) 
COC(=O)c1cc(C2CC2)ncc1N(N)CC1COC1

>  <ref_pdb>  (1279) 
A0528a

>  <alias>  (1279) 
ZRILEGQRLALMHU-UHFFFAOYSA-N-P308-P15-P308-601501

>  <HIPPO Pose ID>  (1279) 
501781

>  <name>  (1279) 
ZRILEGQRLALMHU-UHFFFAOYSA-N-P308-P15-P308-601501

>  <HIPPO Compound ID>  (1279) 
292604

>  <ref_mols>  (1279) 
A4331a,A0514a

>  <distance_score>  (1279) 
1.437426

>  <inspiration_score>  (1279) 
None

$$$$
XCYAVCYOOLTXHF-UHFFFAOYSA-N-P308-P15-P308-601501
     RDKit          3D

 20 22  0  0  0  0  0  0  0  0999 V2000
    9.2486    8.6579   23.1974 C   0  0  0  0  0  0  0  0  0  0  0  0
    8.4198    9.5722   23.9151 O   0  0  0  0  0  0  0  0  0  0  0  0
    9.1202   10.5917   24.4701 C   0  0  0  0  0  0  0  0  0  0  0  0
   10.3335   10.7117   24.4561 O   0  0  0  0  0  0  0  0  0  0  0  0
    8.1742   11.5675   25.0655 C   0  0  0  0  0  0  0  0  0  0  0  0
    6.9375   11.1451   25.5816 C   0  0  0  0  0  0  0  0  0  0  0  0
    6.1164   12.0857   26.1938 C   0  0  0  0  0  0  0  0  0  0  0  0
    4.7585   11.8165   26.7492 C   0  0  0  0  0  0  0  0  0  0  0  0
    4.4588   10.8390   27.8464 C   0  0  0  0  0  0  0  0  0  0  0  0
    4.5105   12.2997   28.1680 C   0  0  0  0  0  0  0  0  0  0  0  0
    6.4942   13.3743   26.3208 N   0  0  0  0  0  0  0  0  0  0  0  0
    7.6684   13.7562   25.8060 C   0  0  0  0  0  0  0  0  0  0  0  0
    8.5470   12.9149   25.1467 C   0  0  0  0  0  0  0  0  0  0  0  0
    9.7405   13.4142   24.5746 N   0  0  0  0  0  0  0  0  0  0  0  0
   10.5768   14.1006   25.5053 N   0  0  0  0  0  0  0  0  0  0  0  0
    9.6584   14.1322   23.4031 C   0  0  0  0  0  0  0  0  0  0  0  0
   10.1819   13.7291   22.1944 C   0  0  0  0  0  0  0  0  0  0  0  0
   10.0814   14.7164   21.1707 C   0  0  0  0  0  0  0  0  0  0  0  0
    9.4071   15.8297   21.6060 C   0  0  0  0  0  0  0  0  0  0  0  0
    8.9354   15.6854   23.2375 S   0  0  0  0  0  0  0  0  0  0  0  0
  1  2  1  0
  2  3  1  0
  3  4  2  0
  3  5  1  0
  5  6  2  0
  6  7  1  0
  7  8  1  0
  8  9  1  0
  9 10  1  0
  7 11  2  0
 11 12  1  0
 12 13  2  0
 13 14  1  0
 14 15  1  0
 14 16  1  0
 16 17  2  0
 17 18  1  0
 18 19  2  0
 19 20  1  0
 13  5  1  0
 20 16  1  0
 10  8  1  0
M  END
>  <energy_score>  (1280) 
-24.3571

>  <inchikey>  (1280) 
XCYAVCYOOLTXHF-UHFFFAOYSA-N

>  <smiles>  (1280) 
COC(=O)c1cc(C2CC2)ncc1N(N)c1cccs1

>  <ref_pdb>  (1280) 
A0528a

>  <alias>  (1280) 
XCYAVCYOOLTXHF-UHFFFAOYSA-N-P308-P15-P308-601501

>  <HIPPO Pose ID>  (1280) 
501783

>  <name>  (1280) 
XCYAVCYOOLTXHF-UHFFFAOYSA-N-P308-P15-P308-601501

>  <HIPPO Compound ID>  (1280) 
292605

>  <ref_mols>  (1280) 
A4331a,A0514a

>  <distance_score>  (1280) 
1.550893

>  <inspiration_score>  (1280) 
None

$$$$
GJLMXBJRXGJLFX-UHFFFAOYSA-N-P308-P15-P308-601501
     RDKit          3D

 20 21  0  0  0  0  0  0  0  0999 V2000
   10.0209   15.1226   21.1141 C   0  0  0  0  0  0  0  0  0  0  0  0
   10.1678   14.1670   22.2945 C   0  0  0  0  0  0  0  0  0  0  0  0
    9.0491   14.2116   23.3750 C   0  0  0  0  0  0  0  0  0  0  0  0
    7.6717   14.1560   22.6757 C   0  0  0  0  0  0  0  0  0  0  0  0
    9.1921   15.5428   24.1429 C   0  0  0  0  0  0  0  0  0  0  0  0
    9.2329   12.9870   24.2714 N   0  0  0  0  0  0  0  0  0  0  0  0
   10.4923   12.7971   24.9192 N   0  0  0  0  0  0  0  0  0  0  0  0
    8.1423   12.5892   25.0658 C   0  0  0  0  0  0  0  0  0  0  0  0
    7.5241   13.5026   25.9085 C   0  0  0  0  0  0  0  0  0  0  0  0
    6.3832   13.3031   26.5836 N   0  0  0  0  0  0  0  0  0  0  0  0
    5.7855   12.1076   26.4799 C   0  0  0  0  0  0  0  0  0  0  0  0
    4.4573   11.9958   27.1440 C   0  0  0  0  0  0  0  0  0  0  0  0
    4.2134   11.0880   28.3130 C   0  0  0  0  0  0  0  0  0  0  0  0
    4.3296   12.5658   28.5403 C   0  0  0  0  0  0  0  0  0  0  0  0
    6.3894   11.0723   25.7932 C   0  0  0  0  0  0  0  0  0  0  0  0
    7.5909   11.3002   25.0977 C   0  0  0  0  0  0  0  0  0  0  0  0
    8.1557   10.0738   24.4891 C   0  0  0  0  0  0  0  0  0  0  0  0
    7.7367    8.9707   24.8203 O   0  0  0  0  0  0  0  0  0  0  0  0
    9.1039   10.2980   23.5595 O   0  0  0  0  0  0  0  0  0  0  0  0
    9.6184    9.0993   22.9754 C   0  0  0  0  0  0  0  0  0  0  0  0
  1  2  1  0
  2  3  1  0
  3  4  1  0
  3  5  1  0
  3  6  1  0
  6  7  1  0
  6  8  1  0
  8  9  2  0
  9 10  1  0
 10 11  2  0
 11 12  1  0
 12 13  1  0
 13 14  1  0
 11 15  1  0
 15 16  2  0
 16 17  1  0
 17 18  2  0
 17 19  1  0
 19 20  1  0
 16  8  1  0
 14 12  1  0
M  END
>  <energy_score>  (1281) 
-44.144939

>  <inchikey>  (1281) 
GJLMXBJRXGJLFX-UHFFFAOYSA-N

>  <smiles>  (1281) 
CCC(C)(C)N(N)c1cnc(C2CC2)cc1C(=O)OC

>  <ref_pdb>  (1281) 
A0528a

>  <alias>  (1281) 
GJLMXBJRXGJLFX-UHFFFAOYSA-N-P308-P15-P308-601501

>  <HIPPO Pose ID>  (1281) 
501785

>  <name>  (1281) 
GJLMXBJRXGJLFX-UHFFFAOYSA-N-P308-P15-P308-601501

>  <HIPPO Compound ID>  (1281) 
292606

>  <ref_mols>  (1281) 
A4331a,A0514a

>  <distance_score>  (1281) 
1.879283

>  <inspiration_score>  (1281) 
None

$$$$
ZQSUTBCBICYJQO-UHFFFAOYSA-N-P308-P15-P308-601501
     RDKit          3D

 20 21  0  0  0  0  0  0  0  0999 V2000
   12.5901   16.1338   21.6151 C   0  0  0  0  0  0  0  0  0  0  0  0
   11.6697   15.8335   22.3181 C   0  0  0  0  0  0  0  0  0  0  0  0
   10.5013   15.4609   23.0991 C   0  0  0  0  0  0  0  0  0  0  0  0
    9.8522   14.2417   22.4546 C   0  0  0  0  0  0  0  0  0  0  0  0
    8.6959   13.7348   23.2875 C   0  0  0  0  0  0  0  0  0  0  0  0
    9.1135   12.7394   24.3077 N   0  0  0  0  0  0  0  0  0  0  0  0
   10.2596   12.9497   25.1151 N   0  0  0  0  0  0  0  0  0  0  0  0
    7.9902   12.3185   25.0499 C   0  0  0  0  0  0  0  0  0  0  0  0
    7.2663   13.2485   25.7884 C   0  0  0  0  0  0  0  0  0  0  0  0
    6.1935   12.9717   26.5364 N   0  0  0  0  0  0  0  0  0  0  0  0
    5.7578   11.6980   26.5886 C   0  0  0  0  0  0  0  0  0  0  0  0
    4.6079   11.4150   27.5077 C   0  0  0  0  0  0  0  0  0  0  0  0
    3.4173   12.3435   27.5110 C   0  0  0  0  0  0  0  0  0  0  0  0
    4.3664   12.3574   28.6703 C   0  0  0  0  0  0  0  0  0  0  0  0
    6.3986   10.6994   25.8757 C   0  0  0  0  0  0  0  0  0  0  0  0
    7.5394   11.0000   25.1181 C   0  0  0  0  0  0  0  0  0  0  0  0
    8.1770    9.8299   24.4796 C   0  0  0  0  0  0  0  0  0  0  0  0
    7.8528    8.6955   24.8028 O   0  0  0  0  0  0  0  0  0  0  0  0
    9.0497   10.1414   23.5024 O   0  0  0  0  0  0  0  0  0  0  0  0
    9.6343    8.9934   22.8924 C   0  0  0  0  0  0  0  0  0  0  0  0
  1  2  3  0
  2  3  1  0
  3  4  1  0
  4  5  1  0
  5  6  1  0
  6  7  1  0
  6  8  1  0
  8  9  2  0
  9 10  1  0
 10 11  2  0
 11 12  1  0
 12 13  1  0
 13 14  1  0
 11 15  1  0
 15 16  2  0
 16 17  1  0
 17 18  2  0
 17 19  1  0
 19 20  1  0
 16  8  1  0
 14 12  1  0
M  END
>  <energy_score>  (1282) 
-28.282833

>  <inchikey>  (1282) 
ZQSUTBCBICYJQO-UHFFFAOYSA-N

>  <smiles>  (1282) 
C#CCCCN(N)c1cnc(C2CC2)cc1C(=O)OC

>  <ref_pdb>  (1282) 
A0528a

>  <alias>  (1282) 
ZQSUTBCBICYJQO-UHFFFAOYSA-N-P308-P15-P308-601501

>  <HIPPO Pose ID>  (1282) 
501791

>  <name>  (1282) 
ZQSUTBCBICYJQO-UHFFFAOYSA-N-P308-P15-P308-601501

>  <HIPPO Compound ID>  (1282) 
292609

>  <ref_mols>  (1282) 
A4331a,A0514a

>  <distance_score>  (1282) 
1.534131

>  <inspiration_score>  (1282) 
None

$$$$
UDGIAJVHXUBMAZ-UHFFFAOYSA-N-P308-P15-P308-601501
     RDKit          3D

 20 21  0  0  0  0  0  0  0  0999 V2000
    9.4785    8.6523   23.1076 C   0  0  0  0  0  0  0  0  0  0  0  0
    8.6185    9.5714   23.7724 O   0  0  0  0  0  0  0  0  0  0  0  0
    9.2631   10.5270   24.4755 C   0  0  0  0  0  0  0  0  0  0  0  0
   10.4672   10.6449   24.6399 O   0  0  0  0  0  0  0  0  0  0  0  0
    8.2420   11.4566   25.0001 C   0  0  0  0  0  0  0  0  0  0  0  0
    7.0950   10.9116   25.5976 C   0  0  0  0  0  0  0  0  0  0  0  0
    6.1748   11.7644   26.1915 C   0  0  0  0  0  0  0  0  0  0  0  0
    5.0488   11.2707   27.0585 C   0  0  0  0  0  0  0  0  0  0  0  0
    3.8510   12.1555   27.3341 C   0  0  0  0  0  0  0  0  0  0  0  0
    4.8706   11.9481   28.4071 C   0  0  0  0  0  0  0  0  0  0  0  0
    6.3324   13.1051   26.1221 N   0  0  0  0  0  0  0  0  0  0  0  0
    7.4154   13.6055   25.5109 C   0  0  0  0  0  0  0  0  0  0  0  0
    8.4313   12.8421   24.9620 C   0  0  0  0  0  0  0  0  0  0  0  0
    9.5391   13.5396   24.4427 N   0  0  0  0  0  0  0  0  0  0  0  0
   10.7673   13.3195   25.1277 N   0  0  0  0  0  0  0  0  0  0  0  0
    9.5915   13.5089   22.9606 C   0  0  0  0  0  0  0  0  0  0  0  0
    9.8854   14.8874   22.3445 C   0  0  0  0  0  0  0  0  0  0  0  0
    8.6461   15.7651   22.3008 C   0  0  0  0  0  0  0  0  0  0  0  0
   11.0460   15.6218   23.0049 C   0  0  0  0  0  0  0  0  0  0  0  0
   10.2412   14.6799   21.0349 F   0  0  0  0  0  0  0  0  0  0  0  0
  1  2  1  0
  2  3  1  0
  3  4  2  0
  3  5  1  0
  5  6  2  0
  6  7  1  0
  7  8  1  0
  8  9  1  0
  9 10  1  0
  7 11  2  0
 11 12  1  0
 12 13  2  0
 13 14  1  0
 14 15  1  0
 14 16  1  0
 16 17  1  0
 17 18  1  0
 17 19  1  0
 17 20  1  0
 13  5  1  0
 10  8  1  0
M  END
>  <energy_score>  (1283) 
-43.265696

>  <inchikey>  (1283) 
UDGIAJVHXUBMAZ-UHFFFAOYSA-N

>  <smiles>  (1283) 
COC(=O)c1cc(C2CC2)ncc1N(N)CC(C)(C)F

>  <ref_pdb>  (1283) 
A0528a

>  <alias>  (1283) 
UDGIAJVHXUBMAZ-UHFFFAOYSA-N-P308-P15-P308-601501

>  <HIPPO Pose ID>  (1283) 
501793

>  <name>  (1283) 
UDGIAJVHXUBMAZ-UHFFFAOYSA-N-P308-P15-P308-601501

>  <HIPPO Compound ID>  (1283) 
292610

>  <ref_mols>  (1283) 
A4331a,A0514a

>  <distance_score>  (1283) 
1.429581

>  <inspiration_score>  (1283) 
None

$$$$
LPTHWXRNIFTFCB-UHFFFAOYSA-N-P308-P15-P308-601501
     RDKit          3D

 20 21  0  0  0  0  0  0  0  0999 V2000
    9.6436    8.6119   23.3739 C   0  0  0  0  0  0  0  0  0  0  0  0
    8.6132    9.3725   23.9940 O   0  0  0  0  0  0  0  0  0  0  0  0
    9.0343   10.5779   24.4334 C   0  0  0  0  0  0  0  0  0  0  0  0
   10.1751   11.0141   24.4584 O   0  0  0  0  0  0  0  0  0  0  0  0
    7.8581   11.3566   24.8510 C   0  0  0  0  0  0  0  0  0  0  0  0
    6.9234   10.7639   25.7026 C   0  0  0  0  0  0  0  0  0  0  0  0
    5.9040   11.5431   26.2231 C   0  0  0  0  0  0  0  0  0  0  0  0
    5.0067   11.0784   27.3352 C   0  0  0  0  0  0  0  0  0  0  0  0
    3.7593   11.8555   27.6968 C   0  0  0  0  0  0  0  0  0  0  0  0
    4.9607   11.9467   28.5824 C   0  0  0  0  0  0  0  0  0  0  0  0
    5.7459   12.8178   25.8204 N   0  0  0  0  0  0  0  0  0  0  0  0
    6.6018   13.3278   24.9208 C   0  0  0  0  0  0  0  0  0  0  0  0
    7.7312   12.6846   24.4423 C   0  0  0  0  0  0  0  0  0  0  0  0
    8.5871   13.2540   23.5063 N   0  0  0  0  0  0  0  0  0  0  0  0
    8.5030   14.6859   23.2387 C   0  0  0  0  0  0  0  0  0  0  0  0
    9.7970   15.2150   22.6200 C   0  0  0  0  0  0  0  0  0  0  0  0
   11.0180   14.9038   23.3958 N   0  0  0  0  0  0  0  0  0  0  0  0
   10.9261   15.2508   24.8129 C   0  0  0  0  0  0  0  0  0  0  0  0
   12.1495   15.3270   22.8757 N   0  0  0  0  0  0  0  0  0  0  0  0
   12.1366   15.3779   21.6422 O   0  0  0  0  0  0  0  0  0  0  0  0
  1  2  1  0
  2  3  1  0
  3  4  2  0
  3  5  1  0
  5  6  2  0
  6  7  1  0
  7  8  1  0
  8  9  1  0
  9 10  1  0
  7 11  2  0
 11 12  1  0
 12 13  2  0
 13 14  1  0
 14 15  1  0
 15 16  1  0
 16 17  1  0
 17 18  1  0
 17 19  1  0
 19 20  2  0
 13  5  1  0
 10  8  1  0
M  END
>  <energy_score>  (1284) 
-41.696649

>  <inchikey>  (1284) 
LPTHWXRNIFTFCB-UHFFFAOYSA-N

>  <smiles>  (1284) 
COC(=O)c1cc(C2CC2)ncc1NCCN(C)N=O

>  <ref_pdb>  (1284) 
A0528a

>  <alias>  (1284) 
LPTHWXRNIFTFCB-UHFFFAOYSA-N-P308-P15-P308-601501

>  <HIPPO Pose ID>  (1284) 
501797

>  <name>  (1284) 
LPTHWXRNIFTFCB-UHFFFAOYSA-N-P308-P15-P308-601501

>  <HIPPO Compound ID>  (1284) 
292612

>  <ref_mols>  (1284) 
A4331a,A0514a

>  <distance_score>  (1284) 
1.419725

>  <inspiration_score>  (1284) 
None

$$$$
LLAUMRWDRXHAFK-UHFFFAOYSA-N-P308-P15-P308-601501
     RDKit          3D

 20 22  0  0  0  0  0  0  0  0999 V2000
    9.1912    8.4470   23.0888 C   0  0  0  0  0  0  0  0  0  0  0  0
    8.3904    9.3216   23.8766 O   0  0  0  0  0  0  0  0  0  0  0  0
    9.1259   10.2560   24.5151 C   0  0  0  0  0  0  0  0  0  0  0  0
   10.3426   10.2883   24.6161 O   0  0  0  0  0  0  0  0  0  0  0  0
    8.2252   11.3170   25.0052 C   0  0  0  0  0  0  0  0  0  0  0  0
    6.9920   10.9991   25.5935 C   0  0  0  0  0  0  0  0  0  0  0  0
    6.1937   12.0386   26.0566 C   0  0  0  0  0  0  0  0  0  0  0  0
    4.8420   11.8846   26.6735 C   0  0  0  0  0  0  0  0  0  0  0  0
    4.5095   11.0008   27.8375 C   0  0  0  0  0  0  0  0  0  0  0  0
    4.6751   12.4716   28.0642 C   0  0  0  0  0  0  0  0  0  0  0  0
    6.5876   13.3263   25.9514 N   0  0  0  0  0  0  0  0  0  0  0  0
    7.7351   13.6044   25.3168 C   0  0  0  0  0  0  0  0  0  0  0  0
    8.6065   12.6494   24.8272 C   0  0  0  0  0  0  0  0  0  0  0  0
    9.7676   13.0469   24.1329 N   0  0  0  0  0  0  0  0  0  0  0  0
   10.9976   12.9363   24.8368 N   0  0  0  0  0  0  0  0  0  0  0  0
    9.6756   13.9451   23.0741 C   0  0  0  0  0  0  0  0  0  0  0  0
    8.6250   14.0732   22.3056 N   0  0  0  0  0  0  0  0  0  0  0  0
    9.0012   15.0881   21.2974 C   0  0  0  0  0  0  0  0  0  0  0  0
   10.1177   15.8887   21.9123 C   0  0  0  0  0  0  0  0  0  0  0  0
   10.8395   14.8348   22.7040 C   0  0  0  0  0  0  0  0  0  0  0  0
  1  2  1  0
  2  3  1  0
  3  4  2  0
  3  5  1  0
  5  6  2  0
  6  7  1  0
  7  8  1  0
  8  9  1  0
  9 10  1  0
  7 11  2  0
 11 12  1  0
 12 13  2  0
 13 14  1  0
 14 15  1  0
 14 16  1  0
 16 17  2  0
 17 18  1  0
 18 19  1  0
 19 20  1  0
 13  5  1  0
 20 16  1  0
 10  8  1  0
M  END
>  <energy_score>  (1285) 
-40.413281

>  <inchikey>  (1285) 
LLAUMRWDRXHAFK-UHFFFAOYSA-N

>  <smiles>  (1285) 
COC(=O)c1cc(C2CC2)ncc1N(N)C1=NCCC1

>  <ref_pdb>  (1285) 
A0528a

>  <alias>  (1285) 
LLAUMRWDRXHAFK-UHFFFAOYSA-N-P308-P15-P308-601501

>  <HIPPO Pose ID>  (1285) 
501799

>  <name>  (1285) 
LLAUMRWDRXHAFK-UHFFFAOYSA-N-P308-P15-P308-601501

>  <HIPPO Compound ID>  (1285) 
292613

>  <ref_mols>  (1285) 
A4331a,A0514a

>  <distance_score>  (1285) 
1.500648

>  <inspiration_score>  (1285) 
None

$$$$
FTGMJRPKVSGOCM-UHFFFAOYSA-N-P308-P15-P308-601501
     RDKit          3D

 20 21  0  0  0  0  0  0  0  0999 V2000
    9.6198    9.0585   22.8577 C   0  0  0  0  0  0  0  0  0  0  0  0
    9.1133   10.2731   23.4059 O   0  0  0  0  0  0  0  0  0  0  0  0
    8.3390   10.0697   24.4900 C   0  0  0  0  0  0  0  0  0  0  0  0
    8.0205    8.9748   24.9340 O   0  0  0  0  0  0  0  0  0  0  0  0
    7.7957   11.3170   25.0640 C   0  0  0  0  0  0  0  0  0  0  0  0
    6.5544   11.1423   25.6998 C   0  0  0  0  0  0  0  0  0  0  0  0
    5.9053   12.2337   26.2486 C   0  0  0  0  0  0  0  0  0  0  0  0
    4.5625   12.1589   26.8926 C   0  0  0  0  0  0  0  0  0  0  0  0
    4.2877   11.3290   28.1131 C   0  0  0  0  0  0  0  0  0  0  0  0
    4.4111   12.8167   28.2485 C   0  0  0  0  0  0  0  0  0  0  0  0
    6.4568   13.4592   26.2066 N   0  0  0  0  0  0  0  0  0  0  0  0
    7.6352   13.6130   25.5884 C   0  0  0  0  0  0  0  0  0  0  0  0
    8.3722   12.5922   24.9991 C   0  0  0  0  0  0  0  0  0  0  0  0
    9.5872   12.9724   24.4003 N   0  0  0  0  0  0  0  0  0  0  0  0
   10.7591   12.2965   24.8064 N   0  0  0  0  0  0  0  0  0  0  0  0
    9.4105   13.3776   22.9792 C   0  0  0  0  0  0  0  0  0  0  0  0
    9.5569   14.8876   22.7669 C   0  0  0  0  0  0  0  0  0  0  0  0
   10.8759   15.4536   23.2487 C   0  0  0  0  0  0  0  0  0  0  0  0
    9.4175   15.1571   21.4412 F   0  0  0  0  0  0  0  0  0  0  0  0
    8.5456   15.5446   23.3934 F   0  0  0  0  0  0  0  0  0  0  0  0
  1  2  1  0
  2  3  1  0
  3  4  2  0
  3  5  1  0
  5  6  2  0
  6  7  1  0
  7  8  1  0
  8  9  1  0
  9 10  1  0
  7 11  2  0
 11 12  1  0
 12 13  2  0
 13 14  1  0
 14 15  1  0
 14 16  1  0
 16 17  1  0
 17 18  1  0
 17 19  1  0
 17 20  1  0
 13  5  1  0
 10  8  1  0
M  END
>  <energy_score>  (1286) 
-38.430597

>  <inchikey>  (1286) 
FTGMJRPKVSGOCM-UHFFFAOYSA-N

>  <smiles>  (1286) 
COC(=O)c1cc(C2CC2)ncc1N(N)CC(C)(F)F

>  <ref_pdb>  (1286) 
A0528a

>  <alias>  (1286) 
FTGMJRPKVSGOCM-UHFFFAOYSA-N-P308-P15-P308-601501

>  <HIPPO Pose ID>  (1286) 
501801

>  <name>  (1286) 
FTGMJRPKVSGOCM-UHFFFAOYSA-N-P308-P15-P308-601501

>  <HIPPO Compound ID>  (1286) 
292614

>  <ref_mols>  (1286) 
A4331a,A0514a

>  <distance_score>  (1286) 
1.544986

>  <inspiration_score>  (1286) 
None

$$$$
LWFFVESRMYVRKP-UHFFFAOYSA-N-P308-P15-P308-601501
     RDKit          3D

 20 22  0  0  0  0  0  0  0  0999 V2000
    9.3317    8.6608   23.1403 C   0  0  0  0  0  0  0  0  0  0  0  0
    8.5087    9.6004   23.8272 O   0  0  0  0  0  0  0  0  0  0  0  0
    9.2098   10.5181   24.5336 C   0  0  0  0  0  0  0  0  0  0  0  0
   10.4175   10.5285   24.7149 O   0  0  0  0  0  0  0  0  0  0  0  0
    8.2598   11.5235   25.0639 C   0  0  0  0  0  0  0  0  0  0  0  0
    7.0171   11.1141   25.5778 C   0  0  0  0  0  0  0  0  0  0  0  0
    6.1860   12.0715   26.1468 C   0  0  0  0  0  0  0  0  0  0  0  0
    4.8197   11.8226   26.6923 C   0  0  0  0  0  0  0  0  0  0  0  0
    4.4933   10.8833   27.8149 C   0  0  0  0  0  0  0  0  0  0  0  0
    4.5553   12.3525   28.0918 C   0  0  0  0  0  0  0  0  0  0  0  0
    6.5607   13.3649   26.2254 N   0  0  0  0  0  0  0  0  0  0  0  0
    7.7283   13.7372   25.6956 C   0  0  0  0  0  0  0  0  0  0  0  0
    8.6297   12.8730   25.0938 C   0  0  0  0  0  0  0  0  0  0  0  0
    9.8035   13.3631   24.4849 N   0  0  0  0  0  0  0  0  0  0  0  0
   10.5873   14.2371   25.3723 C   0  0  0  0  0  0  0  0  0  0  0  0
    9.7174   13.9289   23.1975 N   0  0  0  0  0  0  0  0  0  0  0  0
    8.6098   14.4495   22.5722 C   0  0  0  0  0  0  0  0  0  0  0  0
    9.0182   15.0369   21.3927 C   0  0  0  0  0  0  0  0  0  0  0  0
   10.3992   14.8147   21.2612 C   0  0  0  0  0  0  0  0  0  0  0  0
   10.7934   14.0999   22.3679 C   0  0  0  0  0  0  0  0  0  0  0  0
  1  2  1  0
  2  3  1  0
  3  4  2  0
  3  5  1  0
  5  6  2  0
  6  7  1  0
  7  8  1  0
  8  9  1  0
  9 10  1  0
  7 11  2  0
 11 12  1  0
 12 13  2  0
 13 14  1  0
 14 15  1  0
 14 16  1  0
 16 17  1  0
 17 18  2  0
 18 19  1  0
 19 20  2  0
 13  5  1  0
 20 16  1  0
 10  8  1  0
M  END
>  <energy_score>  (1287) 
-25.279461

>  <inchikey>  (1287) 
LWFFVESRMYVRKP-UHFFFAOYSA-N

>  <smiles>  (1287) 
COC(=O)c1cc(C2CC2)ncc1N(C)n1cccc1

>  <ref_pdb>  (1287) 
A0528a

>  <alias>  (1287) 
LWFFVESRMYVRKP-UHFFFAOYSA-N-P308-P15-P308-601501

>  <HIPPO Pose ID>  (1287) 
501803

>  <name>  (1287) 
LWFFVESRMYVRKP-UHFFFAOYSA-N-P308-P15-P308-601501

>  <HIPPO Compound ID>  (1287) 
292615

>  <ref_mols>  (1287) 
A4331a,A0514a

>  <distance_score>  (1287) 
1.736227

>  <inspiration_score>  (1287) 
None

$$$$
HMPPRESURCLCGG-UHFFFAOYSA-N-P308-P15-P308-601501
     RDKit          3D

 20 22  0  0  0  0  0  0  0  0999 V2000
    9.4156    8.5343   23.0626 C   0  0  0  0  0  0  0  0  0  0  0  0
    8.5793    9.3975   23.8185 O   0  0  0  0  0  0  0  0  0  0  0  0
    9.2630   10.3383   24.5105 C   0  0  0  0  0  0  0  0  0  0  0  0
   10.4725   10.4110   24.6475 O   0  0  0  0  0  0  0  0  0  0  0  0
    8.2672   11.2963   25.0269 C   0  0  0  0  0  0  0  0  0  0  0  0
    7.0903   10.8184   25.6181 C   0  0  0  0  0  0  0  0  0  0  0  0
    6.1952   11.7302   26.1608 C   0  0  0  0  0  0  0  0  0  0  0  0
    5.0480   11.3156   27.0419 C   0  0  0  0  0  0  0  0  0  0  0  0
    3.8734   12.2451   27.2597 C   0  0  0  0  0  0  0  0  0  0  0  0
    4.8795   12.0677   28.3516 C   0  0  0  0  0  0  0  0  0  0  0  0
    6.3972   13.0597   26.0220 N   0  0  0  0  0  0  0  0  0  0  0  0
    7.5071   13.4938   25.4064 C   0  0  0  0  0  0  0  0  0  0  0  0
    8.5089   12.6643   24.9361 C   0  0  0  0  0  0  0  0  0  0  0  0
    9.7003   13.2093   24.4221 N   0  0  0  0  0  0  0  0  0  0  0  0
   10.6488   13.5755   25.4364 N   0  0  0  0  0  0  0  0  0  0  0  0
    9.6476   13.9749   23.2535 C   0  0  0  0  0  0  0  0  0  0  0  0
    8.7445   13.8896   22.3241 N   0  0  0  0  0  0  0  0  0  0  0  0
    9.1169   14.7939   21.2100 C   0  0  0  0  0  0  0  0  0  0  0  0
    9.8852   15.9818   21.7338 C   0  0  0  0  0  0  0  0  0  0  0  0
   10.8961   15.2028   22.9963 S   0  0  0  0  0  0  0  0  0  0  0  0
  1  2  1  0
  2  3  1  0
  3  4  2  0
  3  5  1  0
  5  6  2  0
  6  7  1  0
  7  8  1  0
  8  9  1  0
  9 10  1  0
  7 11  2  0
 11 12  1  0
 12 13  2  0
 13 14  1  0
 14 15  1  0
 14 16  1  0
 16 17  2  0
 17 18  1  0
 18 19  1  0
 19 20  1  0
 13  5  1  0
 20 16  1  0
 10  8  1  0
M  END
>  <energy_score>  (1288) 
-41.177662

>  <inchikey>  (1288) 
HMPPRESURCLCGG-UHFFFAOYSA-N

>  <smiles>  (1288) 
COC(=O)c1cc(C2CC2)ncc1N(N)C1=NCCS1

>  <ref_pdb>  (1288) 
A0528a

>  <alias>  (1288) 
HMPPRESURCLCGG-UHFFFAOYSA-N-P308-P15-P308-601501

>  <HIPPO Pose ID>  (1288) 
501811

>  <name>  (1288) 
HMPPRESURCLCGG-UHFFFAOYSA-N-P308-P15-P308-601501

>  <HIPPO Compound ID>  (1288) 
292619

>  <ref_mols>  (1288) 
A4331a,A0514a

>  <distance_score>  (1288) 
1.684873

>  <inspiration_score>  (1288) 
None

$$$$
IZDVFGAUWMTFPI-UHFFFAOYSA-N-P308-P15-P308-601501
     RDKit          3D

 20 22  0  0  0  0  0  0  0  0999 V2000
    9.5565    8.4031   23.4429 C   0  0  0  0  0  0  0  0  0  0  0  0
    8.7863    9.2643   24.2732 O   0  0  0  0  0  0  0  0  0  0  0  0
    8.8323   10.5410   23.8299 C   0  0  0  0  0  0  0  0  0  0  0  0
    9.4098   10.9139   22.8243 O   0  0  0  0  0  0  0  0  0  0  0  0
    8.1033   11.4365   24.7492 C   0  0  0  0  0  0  0  0  0  0  0  0
    7.0199   10.9258   25.4798 C   0  0  0  0  0  0  0  0  0  0  0  0
    6.2662   11.7885   26.2628 C   0  0  0  0  0  0  0  0  0  0  0  0
    5.0759   11.3330   27.0611 C   0  0  0  0  0  0  0  0  0  0  0  0
    4.8416   11.9085   28.4407 C   0  0  0  0  0  0  0  0  0  0  0  0
    3.9536   12.3239   27.3108 C   0  0  0  0  0  0  0  0  0  0  0  0
    6.5841   13.0998   26.3486 N   0  0  0  0  0  0  0  0  0  0  0  0
    7.6137   13.5719   25.6264 C   0  0  0  0  0  0  0  0  0  0  0  0
    8.4177   12.8007   24.8054 C   0  0  0  0  0  0  0  0  0  0  0  0
    9.4368   13.4513   24.0619 N   0  0  0  0  0  0  0  0  0  0  0  0
   10.7371   12.8970   24.1355 N   0  0  0  0  0  0  0  0  0  0  0  0
    9.1261   14.3920   22.9708 C   0  0  0  0  0  0  0  0  0  0  0  0
    7.7254   14.1971   22.3877 C   0  0  0  0  0  0  0  0  0  0  0  0
   10.2277   14.5543   21.8662 C   0  0  0  0  0  0  0  0  0  0  0  0
   10.0134   16.0754   21.9656 C   0  0  0  0  0  0  0  0  0  0  0  0
    9.4663   15.8448   23.3883 C   0  0  0  0  0  0  0  0  0  0  0  0
  1  2  1  0
  2  3  1  0
  3  4  2  0
  3  5  1  0
  5  6  2  0
  6  7  1  0
  7  8  1  0
  8  9  1  0
  9 10  1  0
  7 11  2  0
 11 12  1  0
 12 13  2  0
 13 14  1  0
 14 15  1  0
 14 16  1  0
 16 17  1  0
 16 18  1  0
 18 19  1  0
 19 20  1  0
 13  5  1  0
 20 16  1  0
 10  8  1  0
M  END
>  <energy_score>  (1289) 
-55.311388

>  <inchikey>  (1289) 
IZDVFGAUWMTFPI-UHFFFAOYSA-N

>  <smiles>  (1289) 
COC(=O)c1cc(C2CC2)ncc1N(N)C1(C)CCC1

>  <ref_pdb>  (1289) 
A0528a

>  <alias>  (1289) 
IZDVFGAUWMTFPI-UHFFFAOYSA-N-P308-P15-P308-601501

>  <HIPPO Pose ID>  (1289) 
501819

>  <name>  (1289) 
IZDVFGAUWMTFPI-UHFFFAOYSA-N-P308-P15-P308-601501

>  <HIPPO Compound ID>  (1289) 
292623

>  <ref_mols>  (1289) 
A4331a,A0514a

>  <distance_score>  (1289) 
1.736625

>  <inspiration_score>  (1289) 
None

$$$$
LVPHNQDJRRDHAZ-UHFFFAOYSA-N-P15-P15-P308-601501
     RDKit          3D

 20 21  0  0  0  0  0  0  0  0999 V2000
   10.8793   15.3736   20.1753 C   0  0  0  0  0  0  0  0  0  0  0  0
    9.6407   15.3105   21.0442 C   0  0  0  0  0  0  0  0  0  0  0  0
    9.9122   14.3798   22.2122 C   0  0  0  0  0  0  0  0  0  0  0  0
    8.7747   14.1653   23.2269 C   0  0  1  0  0  0  0  0  0  0  0  0
    7.4038   14.2326   22.5507 C   0  0  0  0  0  0  0  0  0  0  0  0
    8.9856   12.8586   23.9162 N   0  0  0  0  0  0  0  0  0  0  0  0
   10.3063   12.4951   24.3099 N   0  0  0  0  0  0  0  0  0  0  0  0
    8.0169   12.4562   24.8510 C   0  0  0  0  0  0  0  0  0  0  0  0
    7.4060   13.3828   25.6906 C   0  0  0  0  0  0  0  0  0  0  0  0
    6.4527   13.1110   26.5973 N   0  0  0  0  0  0  0  0  0  0  0  0
    6.0044   11.8479   26.7027 C   0  0  0  0  0  0  0  0  0  0  0  0
    4.9149   11.5802   27.6961 C   0  0  0  0  0  0  0  0  0  0  0  0
    3.6303   12.3678   27.6003 C   0  0  0  0  0  0  0  0  0  0  0  0
    4.5813   12.6404   28.7255 C   0  0  0  0  0  0  0  0  0  0  0  0
    6.5603   10.8434   25.9372 C   0  0  0  0  0  0  0  0  0  0  0  0
    7.5980   11.1337   25.0335 C   0  0  0  0  0  0  0  0  0  0  0  0
    8.1508    9.9327   24.3737 C   0  0  0  0  0  0  0  0  0  0  0  0
    7.7589    8.8287   24.7222 O   0  0  0  0  0  0  0  0  0  0  0  0
    9.0896   10.1539   23.4349 O   0  0  0  0  0  0  0  0  0  0  0  0
    9.6294    8.9524   22.8843 C   0  0  0  0  0  0  0  0  0  0  0  0
  1  2  1  0
  2  3  1  0
  3  4  1  0
  4  5  1  6
  4  6  1  0
  6  7  1  0
  6  8  1  0
  8  9  2  0
  9 10  1  0
 10 11  2  0
 11 12  1  0
 12 13  1  0
 13 14  1  0
 11 15  1  0
 15 16  2  0
 16 17  1  0
 17 18  2  0
 17 19  1  0
 19 20  1  0
 16  8  1  0
 14 12  1  0
M  END
>  <energy_score>  (1290) 
-34.432412

>  <inchikey>  (1290) 
LVPHNQDJRRDHAZ-UHFFFAOYSA-N

>  <smiles>  (1290) 
CCCC(C)N(N)c1cnc(C2CC2)cc1C(=O)OC

>  <ref_pdb>  (1290) 
A0528a

>  <alias>  (1290) 
LVPHNQDJRRDHAZ-UHFFFAOYSA-N-P15-P15-P308-601501

>  <HIPPO Pose ID>  (1290) 
501826

>  <name>  (1290) 
LVPHNQDJRRDHAZ-UHFFFAOYSA-N-P15-P15-P308-601501

>  <HIPPO Compound ID>  (1290) 
292627

>  <ref_mols>  (1290) 
A4331a,A0514a

>  <distance_score>  (1290) 
1.538204

>  <inspiration_score>  (1290) 
None

$$$$
ZZTIGHJYNOWYFS-UHFFFAOYSA-N-P15-P15-P308-601501
     RDKit          3D

 20 22  0  0  0  0  0  0  0  0999 V2000
    9.3933    8.4809   23.1216 C   0  0  0  0  0  0  0  0  0  0  0  0
    8.6631    9.3257   24.0121 O   0  0  0  0  0  0  0  0  0  0  0  0
    8.8805   10.6484   23.8334 C   0  0  0  0  0  0  0  0  0  0  0  0
    9.6283   11.1217   22.9945 O   0  0  0  0  0  0  0  0  0  0  0  0
    8.0749   11.4558   24.7865 C   0  0  0  0  0  0  0  0  0  0  0  0
    7.0244   10.8460   25.4894 C   0  0  0  0  0  0  0  0  0  0  0  0
    6.2537   11.6079   26.3580 C   0  0  0  0  0  0  0  0  0  0  0  0
    5.1754   11.0139   27.2175 C   0  0  0  0  0  0  0  0  0  0  0  0
    5.1085   11.4044   28.6764 C   0  0  0  0  0  0  0  0  0  0  0  0
    4.0705   11.9204   27.7292 C   0  0  0  0  0  0  0  0  0  0  0  0
    6.4766   12.9318   26.5083 N   0  0  0  0  0  0  0  0  0  0  0  0
    7.4619   13.5072   25.8061 C   0  0  0  0  0  0  0  0  0  0  0  0
    8.3240   12.8281   24.9609 C   0  0  0  0  0  0  0  0  0  0  0  0
    9.3715   13.5875   24.3840 N   0  0  0  0  0  0  0  0  0  0  0  0
   10.6757   13.0474   24.5679 N   0  0  0  0  0  0  0  0  0  0  0  0
    8.9454   14.0702   23.0405 C   0  0  0  0  0  0  0  0  0  0  0  0
   10.1299   14.4196   22.1441 C   0  0  0  0  0  0  0  0  0  0  0  0
    9.7211   15.0751   20.8628 C   0  0  0  0  0  0  0  0  0  0  0  0
   10.7828   15.2506   19.7958 C   0  0  0  0  0  0  0  0  0  0  0  0
   10.2296   16.4361   20.5067 C   0  0  0  0  0  0  0  0  0  0  0  0
  1  2  1  0
  2  3  1  0
  3  4  2  0
  3  5  1  0
  5  6  2  0
  6  7  1  0
  7  8  1  0
  8  9  1  0
  9 10  1  0
  7 11  2  0
 11 12  1  0
 12 13  2  0
 13 14  1  0
 14 15  1  0
 14 16  1  0
 16 17  1  0
 17 18  1  0
 18 19  1  0
 19 20  1  0
 13  5  1  0
 20 18  1  0
 10  8  1  0
M  END
>  <energy_score>  (1291) 
-32.566899

>  <inchikey>  (1291) 
ZZTIGHJYNOWYFS-UHFFFAOYSA-N

>  <smiles>  (1291) 
COC(=O)c1cc(C2CC2)ncc1N(N)CCC1CC1

>  <ref_pdb>  (1291) 
A0528a

>  <alias>  (1291) 
ZZTIGHJYNOWYFS-UHFFFAOYSA-N-P15-P15-P308-601501

>  <HIPPO Pose ID>  (1291) 
501830

>  <name>  (1291) 
ZZTIGHJYNOWYFS-UHFFFAOYSA-N-P15-P15-P308-601501

>  <HIPPO Compound ID>  (1291) 
292629

>  <ref_mols>  (1291) 
A4331a,A0514a

>  <distance_score>  (1291) 
1.731077

>  <inspiration_score>  (1291) 
None

$$$$
LKKIVODBMFQDDD-UHFFFAOYSA-N-P15-P15-P308-601501
     RDKit          3D

 20 21  0  0  0  0  0  0  0  0999 V2000
   11.2968   14.6451   22.4691 C   0  0  0  0  0  0  0  0  0  0  0  0
    9.8334   14.4548   22.0943 C   0  0  0  0  0  0  0  0  0  0  0  0
    8.8343   14.1854   23.2413 C   0  0  1  0  0  0  0  0  0  0  0  0
    7.4142   14.2959   22.6414 C   0  0  0  0  0  0  0  0  0  0  0  0
    7.1960   13.2738   21.7751 F   0  0  0  0  0  0  0  0  0  0  0  0
    9.0567   12.8750   23.9252 N   0  0  0  0  0  0  0  0  0  0  0  0
   10.3545   12.5190   24.3431 N   0  0  0  0  0  0  0  0  0  0  0  0
    8.0753   12.4653   24.8463 C   0  0  0  0  0  0  0  0  0  0  0  0
    7.4854   13.3818   25.7125 C   0  0  0  0  0  0  0  0  0  0  0  0
    6.5223   13.1117   26.6075 N   0  0  0  0  0  0  0  0  0  0  0  0
    6.0436   11.8565   26.6777 C   0  0  0  0  0  0  0  0  0  0  0  0
    4.9393   11.5897   27.6553 C   0  0  0  0  0  0  0  0  0  0  0  0
    3.6626   12.3891   27.5501 C   0  0  0  0  0  0  0  0  0  0  0  0
    4.6005   12.6432   28.6902 C   0  0  0  0  0  0  0  0  0  0  0  0
    6.5855   10.8580   25.8939 C   0  0  0  0  0  0  0  0  0  0  0  0
    7.6337   11.1471   25.0007 C   0  0  0  0  0  0  0  0  0  0  0  0
    8.1831    9.9469   24.3382 C   0  0  0  0  0  0  0  0  0  0  0  0
    7.8136    8.8423   24.7122 O   0  0  0  0  0  0  0  0  0  0  0  0
    9.0866   10.1701   23.3682 O   0  0  0  0  0  0  0  0  0  0  0  0
    9.6406    8.9672   22.8397 C   0  0  0  0  0  0  0  0  0  0  0  0
  1  2  1  0
  3  2  1  6
  3  4  1  0
  4  5  1  0
  3  6  1  0
  6  7  1  0
  6  8  1  0
  8  9  2  0
  9 10  1  0
 10 11  2  0
 11 12  1  0
 12 13  1  0
 13 14  1  0
 11 15  1  0
 15 16  2  0
 16 17  1  0
 17 18  2  0
 17 19  1  0
 19 20  1  0
 16  8  1  0
 14 12  1  0
M  END
>  <energy_score>  (1292) 
-23.875842

>  <inchikey>  (1292) 
LKKIVODBMFQDDD-UHFFFAOYSA-N

>  <smiles>  (1292) 
CCC(CF)N(N)c1cnc(C2CC2)cc1C(=O)OC

>  <ref_pdb>  (1292) 
A0528a

>  <alias>  (1292) 
LKKIVODBMFQDDD-UHFFFAOYSA-N-P15-P15-P308-601501

>  <HIPPO Pose ID>  (1292) 
501832

>  <name>  (1292) 
LKKIVODBMFQDDD-UHFFFAOYSA-N-P15-P15-P308-601501

>  <HIPPO Compound ID>  (1292) 
292630

>  <ref_mols>  (1292) 
A4331a,A0514a

>  <distance_score>  (1292) 
1.429366

>  <inspiration_score>  (1292) 
None

$$$$
GIUBGVXWNQJBDM-UHFFFAOYSA-N-P308-P15-P308-601501
     RDKit          3D

 20 21  0  0  0  0  0  0  0  0999 V2000
    9.4436    8.6123   23.0541 C   0  0  0  0  0  0  0  0  0  0  0  0
    8.6315    9.5536   23.7429 O   0  0  0  0  0  0  0  0  0  0  0  0
    9.3310   10.4425   24.4860 C   0  0  0  0  0  0  0  0  0  0  0  0
   10.5366   10.4534   24.6721 O   0  0  0  0  0  0  0  0  0  0  0  0
    8.3601   11.4171   25.0251 C   0  0  0  0  0  0  0  0  0  0  0  0
    7.1579   10.9402   25.5699 C   0  0  0  0  0  0  0  0  0  0  0  0
    6.2982   11.8386   26.1846 C   0  0  0  0  0  0  0  0  0  0  0  0
    5.0921   11.4037   26.9726 C   0  0  0  0  0  0  0  0  0  0  0  0
    3.9228   12.3475   27.1546 C   0  0  0  0  0  0  0  0  0  0  0  0
    4.8453   12.0925   28.3036 C   0  0  0  0  0  0  0  0  0  0  0  0
    6.5839   13.1601   26.2023 N   0  0  0  0  0  0  0  0  0  0  0  0
    7.7316   13.5959   25.6575 C   0  0  0  0  0  0  0  0  0  0  0  0
    8.6788   12.7782   25.0671 C   0  0  0  0  0  0  0  0  0  0  0  0
    9.8788   13.3029   24.5420 N   0  0  0  0  0  0  0  0  0  0  0  0
   10.5719   14.2236   25.3725 N   0  0  0  0  0  0  0  0  0  0  0  0
    9.7454   13.6477   23.1023 C   0  0  0  0  0  0  0  0  0  0  0  0
    9.2940   15.0876   22.8769 C   0  0  0  0  0  0  0  0  0  0  0  0
    9.1602   15.3525   21.3995 C   0  0  0  0  0  0  0  0  0  0  0  0
   10.3430   15.1221   20.7801 F   0  0  0  0  0  0  0  0  0  0  0  0
    8.2571   14.4839   20.8761 F   0  0  0  0  0  0  0  0  0  0  0  0
  1  2  1  0
  2  3  1  0
  3  4  2  0
  3  5  1  0
  5  6  2  0
  6  7  1  0
  7  8  1  0
  8  9  1  0
  9 10  1  0
  7 11  2  0
 11 12  1  0
 12 13  2  0
 13 14  1  0
 14 15  1  0
 14 16  1  0
 16 17  1  0
 17 18  1  0
 18 19  1  0
 18 20  1  0
 13  5  1  0
 10  8  1  0
M  END
>  <energy_score>  (1293) 
-25.817402

>  <inchikey>  (1293) 
GIUBGVXWNQJBDM-UHFFFAOYSA-N

>  <smiles>  (1293) 
COC(=O)c1cc(C2CC2)ncc1N(N)CCC(F)F

>  <ref_pdb>  (1293) 
A0528a

>  <alias>  (1293) 
GIUBGVXWNQJBDM-UHFFFAOYSA-N-P308-P15-P308-601501

>  <HIPPO Pose ID>  (1293) 
501835

>  <name>  (1293) 
GIUBGVXWNQJBDM-UHFFFAOYSA-N-P308-P15-P308-601501

>  <HIPPO Compound ID>  (1293) 
292631

>  <ref_mols>  (1293) 
A4331a,A0514a

>  <distance_score>  (1293) 
1.597944

>  <inspiration_score>  (1293) 
None

$$$$
WPHOIXWCRTWZDS-UHFFFAOYSA-N-P308-P15-P308-601501
     RDKit          3D

 20 21  0  0  0  0  0  0  0  0999 V2000
    9.2602    8.6076   23.1757 C   0  0  0  0  0  0  0  0  0  0  0  0
    8.4126    9.5012   23.8951 O   0  0  0  0  0  0  0  0  0  0  0  0
    9.0942   10.4380   24.5913 C   0  0  0  0  0  0  0  0  0  0  0  0
   10.3049   10.4979   24.7495 O   0  0  0  0  0  0  0  0  0  0  0  0
    8.1251   11.4281   25.1164 C   0  0  0  0  0  0  0  0  0  0  0  0
    6.9120   11.0105   25.6845 C   0  0  0  0  0  0  0  0  0  0  0  0
    6.0685   11.9760   26.2238 C   0  0  0  0  0  0  0  0  0  0  0  0
    4.7369   11.7279   26.8458 C   0  0  0  0  0  0  0  0  0  0  0  0
    4.4571   10.7535   27.9478 C   0  0  0  0  0  0  0  0  0  0  0  0
    4.5720   12.2100   28.2762 C   0  0  0  0  0  0  0  0  0  0  0  0
    6.3990   13.2840   26.2167 N   0  0  0  0  0  0  0  0  0  0  0  0
    7.5277   13.6607   25.6136 C   0  0  0  0  0  0  0  0  0  0  0  0
    8.4309   12.7907   25.0281 C   0  0  0  0  0  0  0  0  0  0  0  0
    9.5558   13.2802   24.3463 N   0  0  0  0  0  0  0  0  0  0  0  0
   10.7668   13.2847   25.0822 N   0  0  0  0  0  0  0  0  0  0  0  0
    9.2680   14.4109   23.4493 C   0  0  0  0  0  0  0  0  0  0  0  0
   10.3282   14.4800   22.3672 C   0  0  0  0  0  0  0  0  0  0  0  0
    9.8952   15.3928   21.2345 C   0  0  0  0  0  0  0  0  0  0  0  0
   10.9923   15.4896   20.1897 C   0  0  0  0  0  0  0  0  0  0  0  0
   10.5169   16.2312   19.0794 O   0  0  0  0  0  0  0  0  0  0  0  0
  1  2  1  0
  2  3  1  0
  3  4  2  0
  3  5  1  0
  5  6  2  0
  6  7  1  0
  7  8  1  0
  8  9  1  0
  9 10  1  0
  7 11  2  0
 11 12  1  0
 12 13  2  0
 13 14  1  0
 14 15  1  0
 14 16  1  0
 16 17  1  0
 17 18  1  0
 18 19  1  0
 19 20  1  0
 13  5  1  0
 10  8  1  0
M  END
>  <energy_score>  (1294) 
-40.098688

>  <inchikey>  (1294) 
WPHOIXWCRTWZDS-UHFFFAOYSA-N

>  <smiles>  (1294) 
COC(=O)c1cc(C2CC2)ncc1N(N)CCCCO

>  <ref_pdb>  (1294) 
A0528a

>  <alias>  (1294) 
WPHOIXWCRTWZDS-UHFFFAOYSA-N-P308-P15-P308-601501

>  <HIPPO Pose ID>  (1294) 
501841

>  <name>  (1294) 
WPHOIXWCRTWZDS-UHFFFAOYSA-N-P308-P15-P308-601501

>  <HIPPO Compound ID>  (1294) 
292634

>  <ref_mols>  (1294) 
A4331a,A0514a

>  <distance_score>  (1294) 
1.554651

>  <inspiration_score>  (1294) 
None

$$$$
SOVKJKVVSRIWIJ-UHFFFAOYSA-N-P308-P15-P308-601501
     RDKit          3D

 21 23  0  0  0  0  0  0  0  0999 V2000
    9.6201    8.8263   23.2291 C   0  0  0  0  0  0  0  0  0  0  0  0
    8.7232    9.7585   23.8287 O   0  0  0  0  0  0  0  0  0  0  0  0
    9.3075   10.7734   24.5096 C   0  0  0  0  0  0  0  0  0  0  0  0
   10.5020   10.9724   24.6538 O   0  0  0  0  0  0  0  0  0  0  0  0
    8.2148   11.6071   25.0617 C   0  0  0  0  0  0  0  0  0  0  0  0
    7.0831   10.9639   25.5961 C   0  0  0  0  0  0  0  0  0  0  0  0
    6.1010   11.7244   26.2184 C   0  0  0  0  0  0  0  0  0  0  0  0
    5.0120   11.1265   27.0670 C   0  0  0  0  0  0  0  0  0  0  0  0
    3.7953   11.9500   27.4441 C   0  0  0  0  0  0  0  0  0  0  0  0
    4.8523   11.6975   28.4678 C   0  0  0  0  0  0  0  0  0  0  0  0
    6.1712   13.0716   26.2208 N   0  0  0  0  0  0  0  0  0  0  0  0
    7.2505   13.6662   25.6977 C   0  0  0  0  0  0  0  0  0  0  0  0
    8.3307   12.9974   25.1352 C   0  0  0  0  0  0  0  0  0  0  0  0
    9.4980   13.7217   24.7610 N   0  0  0  0  0  0  0  0  0  0  0  0
   10.0616   14.3775   25.9150 N   0  0  0  0  0  0  0  0  0  0  0  0
    9.1943   14.6166   23.6043 C   0  0  2  0  0  0  0  0  0  0  0  0
    8.9046   13.8531   22.3301 C   0  0  0  0  0  0  0  0  0  0  0  0
    9.2598   14.8431   21.2309 C   0  0  0  0  0  0  0  0  0  0  0  0
    9.9975   15.9127   21.8247 O   0  0  0  0  0  0  0  0  0  0  0  0
   10.3535   15.5061   23.1545 C   0  0  2  0  0  0  0  0  0  0  0  0
   11.7218   14.8463   23.0735 C   0  0  0  0  0  0  0  0  0  0  0  0
  1  2  1  0
  2  3  1  0
  3  4  2  0
  3  5  1  0
  5  6  2  0
  6  7  1  0
  7  8  1  0
  8  9  1  0
  9 10  1  0
  7 11  2  0
 11 12  1  0
 12 13  2  0
 13 14  1  0
 14 15  1  0
 16 14  1  1
 16 17  1  0
 17 18  1  0
 18 19  1  0
 19 20  1  0
 20 21  1  6
 13  5  1  0
 20 16  1  0
 10  8  1  0
M  END
>  <energy_score>  (1295) 
-32.09618

>  <inchikey>  (1295) 
SOVKJKVVSRIWIJ-UHFFFAOYSA-N

>  <smiles>  (1295) 
COC(=O)c1cc(C2CC2)ncc1N(N)C1CCOC1C

>  <ref_pdb>  (1295) 
A0528a

>  <alias>  (1295) 
SOVKJKVVSRIWIJ-UHFFFAOYSA-N-P308-P15-P308-601501

>  <HIPPO Pose ID>  (1295) 
501845

>  <name>  (1295) 
SOVKJKVVSRIWIJ-UHFFFAOYSA-N-P308-P15-P308-601501

>  <HIPPO Compound ID>  (1295) 
292636

>  <ref_mols>  (1295) 
A4331a,A0514a

>  <distance_score>  (1295) 
1.493256

>  <inspiration_score>  (1295) 
None

$$$$
OMUFBPMYWYJCPQ-UHFFFAOYSA-N-P308-P15-P308-601501
     RDKit          3D

 21 23  0  0  0  0  0  0  0  0999 V2000
    9.4502    8.5893   23.0613 C   0  0  0  0  0  0  0  0  0  0  0  0
    8.6163    9.5219   23.7375 O   0  0  0  0  0  0  0  0  0  0  0  0
    9.2983   10.4490   24.4466 C   0  0  0  0  0  0  0  0  0  0  0  0
   10.5039   10.5072   24.6250 O   0  0  0  0  0  0  0  0  0  0  0  0
    8.3085   11.4198   24.9501 C   0  0  0  0  0  0  0  0  0  0  0  0
    7.1642   10.9087   25.5847 C   0  0  0  0  0  0  0  0  0  0  0  0
    6.2345   11.7895   26.1163 C   0  0  0  0  0  0  0  0  0  0  0  0
    5.1132   11.3428   27.0156 C   0  0  0  0  0  0  0  0  0  0  0  0
    3.9168   12.2388   27.2550 C   0  0  0  0  0  0  0  0  0  0  0  0
    4.9469   12.0903   28.3283 C   0  0  0  0  0  0  0  0  0  0  0  0
    6.3765   13.1202   25.9422 N   0  0  0  0  0  0  0  0  0  0  0  0
    7.4602   13.5846   25.2978 C   0  0  0  0  0  0  0  0  0  0  0  0
    8.4937   12.7973   24.8130 C   0  0  0  0  0  0  0  0  0  0  0  0
    9.6002   13.4591   24.2657 N   0  0  0  0  0  0  0  0  0  0  0  0
   10.8896   13.1464   24.7557 N   0  0  0  0  0  0  0  0  0  0  0  0
    9.4574   13.8548   22.8450 C   0  0  0  0  0  0  0  0  0  0  0  0
   10.0662   15.2145   22.6574 C   0  0  2  0  0  0  0  0  0  0  0  0
    9.4967   16.2342   21.7116 C   0  0  0  0  0  0  0  0  0  0  0  0
   10.8412   15.6173   21.3982 C   0  0  0  0  0  0  0  0  0  0  0  0
   12.1265   16.3276   21.6891 C   0  0  0  0  0  0  0  0  0  0  0  0
   10.8741   14.8515   20.1161 C   0  0  0  0  0  0  0  0  0  0  0  0
  1  2  1  0
  2  3  1  0
  3  4  2  0
  3  5  1  0
  5  6  2  0
  6  7  1  0
  7  8  1  0
  8  9  1  0
  9 10  1  0
  7 11  2  0
 11 12  1  0
 12 13  2  0
 13 14  1  0
 14 15  1  0
 14 16  1  0
 17 16  1  6
 17 18  1  0
 18 19  1  0
 19 20  1  0
 19 21  1  0
 13  5  1  0
 19 17  1  0
 10  8  1  0
M  END
>  <energy_score>  (1296) 
-25.304451

>  <inchikey>  (1296) 
OMUFBPMYWYJCPQ-UHFFFAOYSA-N

>  <smiles>  (1296) 
COC(=O)c1cc(C2CC2)ncc1N(N)CC1CC1(C)C

>  <ref_pdb>  (1296) 
A0528a

>  <alias>  (1296) 
OMUFBPMYWYJCPQ-UHFFFAOYSA-N-P308-P15-P308-601501

>  <HIPPO Pose ID>  (1296) 
501847

>  <name>  (1296) 
OMUFBPMYWYJCPQ-UHFFFAOYSA-N-P308-P15-P308-601501

>  <HIPPO Compound ID>  (1296) 
292637

>  <ref_mols>  (1296) 
A4331a,A0514a

>  <distance_score>  (1296) 
1.299467

>  <inspiration_score>  (1296) 
None

$$$$
FUSKJAVSOWUFSQ-UHFFFAOYSA-N-P308-P15-P308-601501
     RDKit          3D

 21 23  0  0  0  0  0  0  0  0999 V2000
    9.3442    8.5903   23.0707 C   0  0  0  0  0  0  0  0  0  0  0  0
    8.5088    9.4864   23.7984 O   0  0  0  0  0  0  0  0  0  0  0  0
    9.1929   10.4681   24.4263 C   0  0  0  0  0  0  0  0  0  0  0  0
   10.4045   10.5915   24.4785 O   0  0  0  0  0  0  0  0  0  0  0  0
    8.2213   11.4063   25.0267 C   0  0  0  0  0  0  0  0  0  0  0  0
    7.0788   10.8652   25.6404 C   0  0  0  0  0  0  0  0  0  0  0  0
    6.1689   11.7131   26.2576 C   0  0  0  0  0  0  0  0  0  0  0  0
    4.9996   11.2146   27.0586 C   0  0  0  0  0  0  0  0  0  0  0  0
    4.8082   11.7380   28.4669 C   0  0  0  0  0  0  0  0  0  0  0  0
    3.8707   12.1759   27.3882 C   0  0  0  0  0  0  0  0  0  0  0  0
    6.3471   13.0504   26.2309 N   0  0  0  0  0  0  0  0  0  0  0  0
    7.4153   13.5501   25.5959 C   0  0  0  0  0  0  0  0  0  0  0  0
    8.4086   12.7919   24.9916 C   0  0  0  0  0  0  0  0  0  0  0  0
    9.4578   13.5119   24.3799 N   0  0  0  0  0  0  0  0  0  0  0  0
   10.7844   13.1413   24.6196 N   0  0  0  0  0  0  0  0  0  0  0  0
    9.2690   14.1150   23.1687 C   0  0  0  0  0  0  0  0  0  0  0  0
    8.1894   14.1458   22.3049 C   0  0  0  0  0  0  0  0  0  0  0  0
    8.4897   14.8802   21.1956 N   0  0  0  0  0  0  0  0  0  0  0  0
    9.6975   15.3872   21.3587 N   0  0  0  0  0  0  0  0  0  0  0  0
   10.1596   14.9606   22.5486 N   0  0  0  0  0  0  0  0  0  0  0  0
   11.3801   15.5203   23.0570 C   0  0  0  0  0  0  0  0  0  0  0  0
  1  2  1  0
  2  3  1  0
  3  4  2  0
  3  5  1  0
  5  6  2  0
  6  7  1  0
  7  8  1  0
  8  9  1  0
  9 10  1  0
  7 11  2  0
 11 12  1  0
 12 13  2  0
 13 14  1  0
 14 15  1  0
 14 16  1  0
 16 17  2  0
 17 18  1  0
 18 19  2  0
 19 20  1  0
 20 21  1  0
 13  5  1  0
 20 16  1  0
 10  8  1  0
M  END
>  <energy_score>  (1297) 
-38.406126

>  <inchikey>  (1297) 
FUSKJAVSOWUFSQ-UHFFFAOYSA-N

>  <smiles>  (1297) 
COC(=O)c1cc(C2CC2)ncc1N(N)c1cnnn1C

>  <ref_pdb>  (1297) 
A0528a

>  <alias>  (1297) 
FUSKJAVSOWUFSQ-UHFFFAOYSA-N-P308-P15-P308-601501

>  <HIPPO Pose ID>  (1297) 
501849

>  <name>  (1297) 
FUSKJAVSOWUFSQ-UHFFFAOYSA-N-P308-P15-P308-601501

>  <HIPPO Compound ID>  (1297) 
292638

>  <ref_mols>  (1297) 
A4331a,A0514a

>  <distance_score>  (1297) 
1.548877

>  <inspiration_score>  (1297) 
None

$$$$
XOJNCIHWOGBMKH-UHFFFAOYSA-N-P308-P15-P308-601501
     RDKit          3D

 21 23  0  0  0  0  0  0  0  0999 V2000
    9.5085    8.3685   23.4690 C   0  0  0  0  0  0  0  0  0  0  0  0
    8.7274    9.2017   24.3167 O   0  0  0  0  0  0  0  0  0  0  0  0
    8.7415   10.4796   23.8794 C   0  0  0  0  0  0  0  0  0  0  0  0
    9.2944   10.8679   22.8626 O   0  0  0  0  0  0  0  0  0  0  0  0
    8.0114   11.3683   24.8005 C   0  0  0  0  0  0  0  0  0  0  0  0
    6.9068   10.8666   25.5028 C   0  0  0  0  0  0  0  0  0  0  0  0
    6.1560   11.7347   26.2836 C   0  0  0  0  0  0  0  0  0  0  0  0
    5.0167   11.2750   27.1516 C   0  0  0  0  0  0  0  0  0  0  0  0
    3.8216   12.1798   27.3623 C   0  0  0  0  0  0  0  0  0  0  0  0
    4.8027   11.9886   28.4749 C   0  0  0  0  0  0  0  0  0  0  0  0
    6.4589   13.0520   26.3443 N   0  0  0  0  0  0  0  0  0  0  0  0
    7.5235   13.5067   25.6672 C   0  0  0  0  0  0  0  0  0  0  0  0
    8.3646   12.7199   24.8994 C   0  0  0  0  0  0  0  0  0  0  0  0
    9.4780   13.3579   24.3113 N   0  0  0  0  0  0  0  0  0  0  0  0
   10.7207   12.6421   24.3732 N   0  0  0  0  0  0  0  0  0  0  0  0
    9.1306   13.9284   22.9853 C   0  0  0  0  0  0  0  0  0  0  0  0
    9.5787   15.3917   22.8551 C   0  0  2  0  0  0  0  0  0  0  0  0
    9.9761   15.6839   21.4157 C   0  0  0  0  0  0  0  0  0  0  0  0
   11.4267   15.2123   21.3576 C   0  0  0  0  0  0  0  0  0  0  0  0
   11.9029   15.1340   22.7206 O   0  0  0  0  0  0  0  0  0  0  0  0
   10.8883   15.7190   23.5427 C   0  0  0  0  0  0  0  0  0  0  0  0
  1  2  1  0
  2  3  1  0
  3  4  2  0
  3  5  1  0
  5  6  2  0
  6  7  1  0
  7  8  1  0
  8  9  1  0
  9 10  1  0
  7 11  2  0
 11 12  1  0
 12 13  2  0
 13 14  1  0
 14 15  1  0
 14 16  1  0
 17 16  1  6
 17 18  1  0
 18 19  1  0
 19 20  1  0
 20 21  1  0
 13  5  1  0
 21 17  1  0
 10  8  1  0
M  END
>  <energy_score>  (1298) 
-44.342568

>  <inchikey>  (1298) 
XOJNCIHWOGBMKH-UHFFFAOYSA-N

>  <smiles>  (1298) 
COC(=O)c1cc(C2CC2)ncc1N(N)CC1CCOC1

>  <ref_pdb>  (1298) 
A0528a

>  <alias>  (1298) 
XOJNCIHWOGBMKH-UHFFFAOYSA-N-P308-P15-P308-601501

>  <HIPPO Pose ID>  (1298) 
501859

>  <name>  (1298) 
XOJNCIHWOGBMKH-UHFFFAOYSA-N-P308-P15-P308-601501

>  <HIPPO Compound ID>  (1298) 
292643

>  <ref_mols>  (1298) 
A4331a,A0514a

>  <distance_score>  (1298) 
1.254181

>  <inspiration_score>  (1298) 
None

$$$$
TVWYFCKSLCGQKH-UHFFFAOYSA-N-P308-P15-P308-601501
     RDKit          3D

 21 23  0  0  0  0  0  0  0  0999 V2000
    9.5971    8.5858   23.5119 C   0  0  0  0  0  0  0  0  0  0  0  0
    8.7929    9.3949   24.3685 O   0  0  0  0  0  0  0  0  0  0  0  0
    8.7749   10.6960   23.9919 C   0  0  0  0  0  0  0  0  0  0  0  0
    9.3551   11.1632   23.0288 O   0  0  0  0  0  0  0  0  0  0  0  0
    7.9316   11.4822   24.9138 C   0  0  0  0  0  0  0  0  0  0  0  0
    6.8333   10.8832   25.5455 C   0  0  0  0  0  0  0  0  0  0  0  0
    6.0269   11.6609   26.3669 C   0  0  0  0  0  0  0  0  0  0  0  0
    4.9212   11.0939   27.2130 C   0  0  0  0  0  0  0  0  0  0  0  0
    3.7074   11.9438   27.5292 C   0  0  0  0  0  0  0  0  0  0  0  0
    4.7235   11.6910   28.5959 C   0  0  0  0  0  0  0  0  0  0  0  0
    6.2554   12.9849   26.5151 N   0  0  0  0  0  0  0  0  0  0  0  0
    7.3146   13.5359   25.9108 C   0  0  0  0  0  0  0  0  0  0  0  0
    8.2203   12.8329   25.1342 C   0  0  0  0  0  0  0  0  0  0  0  0
    9.3898   13.4732   24.6405 N   0  0  0  0  0  0  0  0  0  0  0  0
   10.1147   14.1547   25.6717 N   0  0  0  0  0  0  0  0  0  0  0  0
    8.9872   14.3032   23.4686 C   0  0  0  0  0  0  0  0  0  0  0  0
   10.1445   14.4898   22.4952 C   0  0  0  0  0  0  0  0  0  0  0  0
   11.2827   15.3903   22.9796 C   0  0  0  0  0  0  0  0  0  0  0  0
   11.8560   16.0453   21.7251 C   0  0  0  0  0  0  0  0  0  0  0  0
   10.9959   15.5679   20.5617 C   0  0  0  0  0  0  0  0  0  0  0  0
    9.6842   15.1843   21.2176 C   0  0  0  0  0  0  0  0  0  0  0  0
  1  2  1  0
  2  3  1  0
  3  4  2  0
  3  5  1  0
  5  6  2  0
  6  7  1  0
  7  8  1  0
  8  9  1  0
  9 10  1  0
  7 11  2  0
 11 12  1  0
 12 13  2  0
 13 14  1  0
 14 15  1  0
 14 16  1  0
 16 17  1  0
 17 18  1  0
 18 19  1  0
 19 20  1  0
 20 21  1  0
 13  5  1  0
 21 17  1  0
 10  8  1  0
M  END
>  <energy_score>  (1299) 
-30.709613

>  <inchikey>  (1299) 
TVWYFCKSLCGQKH-UHFFFAOYSA-N

>  <smiles>  (1299) 
COC(=O)c1cc(C2CC2)ncc1N(N)CC1CCCC1

>  <ref_pdb>  (1299) 
A0528a

>  <alias>  (1299) 
TVWYFCKSLCGQKH-UHFFFAOYSA-N-P308-P15-P308-601501

>  <HIPPO Pose ID>  (1299) 
501861

>  <name>  (1299) 
TVWYFCKSLCGQKH-UHFFFAOYSA-N-P308-P15-P308-601501

>  <HIPPO Compound ID>  (1299) 
292644

>  <ref_mols>  (1299) 
A4331a,A0514a

>  <distance_score>  (1299) 
1.761265

>  <inspiration_score>  (1299) 
None

$$$$
MBGHLLKVLHPVKS-UHFFFAOYSA-N-P308-P15-P308-601501
     RDKit          3D

 21 23  0  0  0  0  0  0  0  0999 V2000
    9.3441    8.5036   23.0224 C   0  0  0  0  0  0  0  0  0  0  0  0
    8.5356    9.4095   23.7603 O   0  0  0  0  0  0  0  0  0  0  0  0
    9.2563   10.2792   24.5074 C   0  0  0  0  0  0  0  0  0  0  0  0
   10.4633   10.2610   24.6817 O   0  0  0  0  0  0  0  0  0  0  0  0
    8.3037   11.2767   25.0382 C   0  0  0  0  0  0  0  0  0  0  0  0
    7.1000   10.8425   25.6067 C   0  0  0  0  0  0  0  0  0  0  0  0
    6.2629   11.7811   26.1934 C   0  0  0  0  0  0  0  0  0  0  0  0
    5.0588   11.3959   27.0100 C   0  0  0  0  0  0  0  0  0  0  0  0
    3.9017   12.3595   27.1601 C   0  0  0  0  0  0  0  0  0  0  0  0
    4.8316   12.1445   28.3119 C   0  0  0  0  0  0  0  0  0  0  0  0
    6.5674   13.0986   26.1551 N   0  0  0  0  0  0  0  0  0  0  0  0
    7.7182   13.4918   25.5838 C   0  0  0  0  0  0  0  0  0  0  0  0
    8.6383   12.6313   25.0172 C   0  0  0  0  0  0  0  0  0  0  0  0
    9.8186   13.1008   24.4377 N   0  0  0  0  0  0  0  0  0  0  0  0
   10.7287   13.7419   25.3115 N   0  0  0  0  0  0  0  0  0  0  0  0
    9.6753   13.5526   23.0320 C   0  0  0  0  0  0  0  0  0  0  0  0
    9.6284   15.0857   22.8752 C   0  0  2  0  0  0  0  0  0  0  0  0
    9.4516   15.5057   21.4253 C   0  0  0  0  0  0  0  0  0  0  0  0
   10.8677   15.4994   20.9074 C   0  0  0  0  0  0  0  0  0  0  0  0
   11.6520   15.9815   22.1090 C   0  0  0  0  0  0  0  0  0  0  0  0
   10.8967   15.6500   23.2877 O   0  0  0  0  0  0  0  0  0  0  0  0
  1  2  1  0
  2  3  1  0
  3  4  2  0
  3  5  1  0
  5  6  2  0
  6  7  1  0
  7  8  1  0
  8  9  1  0
  9 10  1  0
  7 11  2  0
 11 12  1  0
 12 13  2  0
 13 14  1  0
 14 15  1  0
 14 16  1  0
 17 16  1  6
 17 18  1  0
 18 19  1  0
 19 20  1  0
 20 21  1  0
 13  5  1  0
 21 17  1  0
 10  8  1  0
M  END
>  <energy_score>  (1300) 
-44.652784

>  <inchikey>  (1300) 
MBGHLLKVLHPVKS-UHFFFAOYSA-N

>  <smiles>  (1300) 
COC(=O)c1cc(C2CC2)ncc1N(N)CC1CCCO1

>  <ref_pdb>  (1300) 
A0528a

>  <alias>  (1300) 
MBGHLLKVLHPVKS-UHFFFAOYSA-N-P308-P15-P308-601501

>  <HIPPO Pose ID>  (1300) 
501863

>  <name>  (1300) 
MBGHLLKVLHPVKS-UHFFFAOYSA-N-P308-P15-P308-601501

>  <HIPPO Compound ID>  (1300) 
292645

>  <ref_mols>  (1300) 
A4331a,A0514a

>  <distance_score>  (1300) 
1.329849

>  <inspiration_score>  (1300) 
None

$$$$
DYFVMUMPTGMQNZ-UHFFFAOYSA-N-P308-P15-P308-601501
     RDKit          3D

 21 22  0  0  0  0  0  0  0  0999 V2000
    9.2447    8.6311   23.1367 C   0  0  0  0  0  0  0  0  0  0  0  0
    8.4559    9.5729   23.8622 O   0  0  0  0  0  0  0  0  0  0  0  0
    9.1896   10.4521   24.5824 C   0  0  0  0  0  0  0  0  0  0  0  0
   10.4029   10.4265   24.7270 O   0  0  0  0  0  0  0  0  0  0  0  0
    8.2837   11.4822   25.1468 C   0  0  0  0  0  0  0  0  0  0  0  0
    7.0196   11.0958   25.6291 C   0  0  0  0  0  0  0  0  0  0  0  0
    6.1810   12.0668   26.1654 C   0  0  0  0  0  0  0  0  0  0  0  0
    4.8073   11.8291   26.6956 C   0  0  0  0  0  0  0  0  0  0  0  0
    4.4704   10.9064   27.8296 C   0  0  0  0  0  0  0  0  0  0  0  0
    4.5248   12.3801   28.0833 C   0  0  0  0  0  0  0  0  0  0  0  0
    6.5576   13.3593   26.2266 N   0  0  0  0  0  0  0  0  0  0  0  0
    7.7462   13.7124   25.7333 C   0  0  0  0  0  0  0  0  0  0  0  0
    8.6652   12.8302   25.1885 C   0  0  0  0  0  0  0  0  0  0  0  0
    9.8225   13.4141   24.6445 N   0  0  0  0  0  0  0  0  0  0  0  0
   11.0812   12.9981   25.1120 N   0  0  0  0  0  0  0  0  0  0  0  0
    9.6699   13.6849   23.2038 C   0  0  0  0  0  0  0  0  0  0  0  0
    9.9572   15.1478   22.9375 C   0  0  0  0  0  0  0  0  0  0  0  0
    9.8091   15.4516   21.1998 S   0  0  0  0  0  0  0  0  0  0  0  0
   11.1163   14.6091   20.6054 N   0  0  0  0  0  0  0  0  0  0  0  0
    8.6177   14.7829   20.7335 O   0  0  0  0  0  0  0  0  0  0  0  0
   10.0826   16.8383   20.9133 O   0  0  0  0  0  0  0  0  0  0  0  0
  1  2  1  0
  2  3  1  0
  3  4  2  0
  3  5  1  0
  5  6  2  0
  6  7  1  0
  7  8  1  0
  8  9  1  0
  9 10  1  0
  7 11  2  0
 11 12  1  0
 12 13  2  0
 13 14  1  0
 14 15  1  0
 14 16  1  0
 16 17  1  0
 17 18  1  0
 18 19  1  0
 18 20  2  0
 18 21  2  0
 13  5  1  0
 10  8  1  0
M  END
>  <energy_score>  (1301) 
-61.802301

>  <inchikey>  (1301) 
DYFVMUMPTGMQNZ-UHFFFAOYSA-N

>  <smiles>  (1301) 
COC(=O)c1cc(C2CC2)ncc1N(N)CCS(N)(=O)=O

>  <ref_pdb>  (1301) 
A0528a

>  <alias>  (1301) 
DYFVMUMPTGMQNZ-UHFFFAOYSA-N-P308-P15-P308-601501

>  <HIPPO Pose ID>  (1301) 
501869

>  <name>  (1301) 
DYFVMUMPTGMQNZ-UHFFFAOYSA-N-P308-P15-P308-601501

>  <HIPPO Compound ID>  (1301) 
292648

>  <ref_mols>  (1301) 
A4331a,A0514a

>  <distance_score>  (1301) 
1.62877

>  <inspiration_score>  (1301) 
None

$$$$
GNBFRSDSSGPXFU-UHFFFAOYSA-N-P308-P15-P308-601501
     RDKit          3D

 21 23  0  0  0  0  0  0  0  0999 V2000
    9.5912    8.5488   23.1313 C   0  0  0  0  0  0  0  0  0  0  0  0
    8.7073    9.4026   23.8402 O   0  0  0  0  0  0  0  0  0  0  0  0
    9.3250   10.4147   24.4822 C   0  0  0  0  0  0  0  0  0  0  0  0
   10.5188   10.5881   24.6682 O   0  0  0  0  0  0  0  0  0  0  0  0
    8.2692   11.3481   24.9000 C   0  0  0  0  0  0  0  0  0  0  0  0
    7.1457   10.8583   25.5748 C   0  0  0  0  0  0  0  0  0  0  0  0
    6.2188   11.7636   26.0673 C   0  0  0  0  0  0  0  0  0  0  0  0
    5.1199   11.3597   27.0133 C   0  0  0  0  0  0  0  0  0  0  0  0
    3.9315   12.2674   27.2452 C   0  0  0  0  0  0  0  0  0  0  0  0
    4.9869   12.1589   28.2989 C   0  0  0  0  0  0  0  0  0  0  0  0
    6.3501   13.0863   25.8161 N   0  0  0  0  0  0  0  0  0  0  0  0
    7.3929   13.5190   25.0885 C   0  0  0  0  0  0  0  0  0  0  0  0
    8.4104   12.7049   24.6255 C   0  0  0  0  0  0  0  0  0  0  0  0
    9.5942   13.2510   24.0904 N   0  0  0  0  0  0  0  0  0  0  0  0
    9.5155   14.1683   23.0706 C   0  0  0  0  0  0  0  0  0  0  0  0
    9.1569   13.9403   21.8444 N   0  0  0  0  0  0  0  0  0  0  0  0
    9.2445   15.1359   21.1708 N   0  0  0  0  0  0  0  0  0  0  0  0
   10.3616   15.2822   20.2181 C   0  0  0  0  0  0  0  0  0  0  0  0
    9.2426   16.2466   22.1324 C   0  0  1  0  0  0  0  0  0  0  0  0
    7.7919   16.6223   22.4555 C   0  0  0  0  0  0  0  0  0  0  0  0
    9.9235   15.5922   23.3216 C   0  0  0  0  0  0  0  0  0  0  0  0
  1  2  1  0
  2  3  1  0
  3  4  2  0
  3  5  1  0
  5  6  2  0
  6  7  1  0
  7  8  1  0
  8  9  1  0
  9 10  1  0
  7 11  2  0
 11 12  1  0
 12 13  2  0
 13 14  1  0
 14 15  1  0
 15 16  2  0
 16 17  1  0
 17 18  1  0
 17 19  1  0
 19 20  1  1
 19 21  1  0
 13  5  1  0
 21 15  1  0
 10  8  1  0
M  END
>  <energy_score>  (1302) 
-26.028961

>  <inchikey>  (1302) 
GNBFRSDSSGPXFU-UHFFFAOYSA-N

>  <smiles>  (1302) 
COC(=O)c1cc(C2CC2)ncc1NC1=NN(C)C(C)C1

>  <ref_pdb>  (1302) 
A0528a

>  <alias>  (1302) 
GNBFRSDSSGPXFU-UHFFFAOYSA-N-P308-P15-P308-601501

>  <HIPPO Pose ID>  (1302) 
501877

>  <name>  (1302) 
GNBFRSDSSGPXFU-UHFFFAOYSA-N-P308-P15-P308-601501

>  <HIPPO Compound ID>  (1302) 
292652

>  <ref_mols>  (1302) 
A4331a,A0514a

>  <distance_score>  (1302) 
1.652962

>  <inspiration_score>  (1302) 
None

$$$$
DPYYHQKIKOWDIW-UHFFFAOYSA-N-P308-P15-P308-601501
     RDKit          3D

 21 22  0  0  0  0  0  0  0  0999 V2000
    9.5804    8.5052   23.5098 C   0  0  0  0  0  0  0  0  0  0  0  0
    8.7287    9.2546   24.3722 O   0  0  0  0  0  0  0  0  0  0  0  0
    8.6204   10.5453   23.9798 C   0  0  0  0  0  0  0  0  0  0  0  0
    9.1174   11.0288   22.9751 O   0  0  0  0  0  0  0  0  0  0  0  0
    7.7931   11.3106   24.9305 C   0  0  0  0  0  0  0  0  0  0  0  0
    6.7117   10.7234   25.5904 C   0  0  0  0  0  0  0  0  0  0  0  0
    5.9292   11.5217   26.4173 C   0  0  0  0  0  0  0  0  0  0  0  0
    4.8407   10.9767   27.2986 C   0  0  0  0  0  0  0  0  0  0  0  0
    3.6389   11.8394   27.6263 C   0  0  0  0  0  0  0  0  0  0  0  0
    4.6770   11.5993   28.6748 C   0  0  0  0  0  0  0  0  0  0  0  0
    6.1654   12.8488   26.5420 N   0  0  0  0  0  0  0  0  0  0  0  0
    7.2174   13.3826   25.9157 C   0  0  0  0  0  0  0  0  0  0  0  0
    8.0900   12.6602   25.1254 C   0  0  0  0  0  0  0  0  0  0  0  0
    9.2495   13.2547   24.5955 N   0  0  0  0  0  0  0  0  0  0  0  0
   10.2005   13.5768   25.6060 N   0  0  0  0  0  0  0  0  0  0  0  0
    8.8946   14.2708   23.5810 C   0  0  0  0  0  0  0  0  0  0  0  0
    9.9727   14.4186   22.5361 C   0  0  0  0  0  0  0  0  0  0  0  0
   11.4335   15.1598   23.2135 S   0  0  0  0  0  0  0  0  0  0  0  0
   12.1946   15.8487   21.7776 C   0  0  0  0  0  0  0  0  0  0  0  0
   11.0334   16.2475   24.0887 O   0  0  0  0  0  0  0  0  0  0  0  0
   12.2991   14.1133   23.7361 O   0  0  0  0  0  0  0  0  0  0  0  0
  1  2  1  0
  2  3  1  0
  3  4  2  0
  3  5  1  0
  5  6  2  0
  6  7  1  0
  7  8  1  0
  8  9  1  0
  9 10  1  0
  7 11  2  0
 11 12  1  0
 12 13  2  0
 13 14  1  0
 14 15  1  0
 14 16  1  0
 16 17  1  0
 17 18  1  0
 18 19  1  0
 18 20  2  0
 18 21  2  0
 13  5  1  0
 10  8  1  0
M  END
>  <energy_score>  (1303) 
-49.802738

>  <inchikey>  (1303) 
DPYYHQKIKOWDIW-UHFFFAOYSA-N

>  <smiles>  (1303) 
COC(=O)c1cc(C2CC2)ncc1N(N)CCS(C)(=O)=O

>  <ref_pdb>  (1303) 
A0528a

>  <alias>  (1303) 
DPYYHQKIKOWDIW-UHFFFAOYSA-N-P308-P15-P308-601501

>  <HIPPO Pose ID>  (1303) 
501879

>  <name>  (1303) 
DPYYHQKIKOWDIW-UHFFFAOYSA-N-P308-P15-P308-601501

>  <HIPPO Compound ID>  (1303) 
292653

>  <ref_mols>  (1303) 
A4331a,A0514a

>  <distance_score>  (1303) 
1.594614

>  <inspiration_score>  (1303) 
None

$$$$
BITIFNIBDBDQTC-UHFFFAOYSA-N-P308-P15-P308-601501
     RDKit          3D

 21 23  0  0  0  0  0  0  0  0999 V2000
    9.1702    8.6235   23.2526 C   0  0  0  0  0  0  0  0  0  0  0  0
    8.3471    9.6229   23.8522 O   0  0  0  0  0  0  0  0  0  0  0  0
    9.0542   10.5740   24.5028 C   0  0  0  0  0  0  0  0  0  0  0  0
   10.2458   10.5368   24.7647 O   0  0  0  0  0  0  0  0  0  0  0  0
    8.1443   11.7015   24.8057 C   0  0  0  0  0  0  0  0  0  0  0  0
    6.9089   11.4488   25.4054 C   0  0  0  0  0  0  0  0  0  0  0  0
    6.0761   12.5198   25.7090 C   0  0  0  0  0  0  0  0  0  0  0  0
    4.7630   12.3806   26.4141 C   0  0  0  0  0  0  0  0  0  0  0  0
    4.5470   11.5819   27.6672 C   0  0  0  0  0  0  0  0  0  0  0  0
    4.6506   13.0725   27.7601 C   0  0  0  0  0  0  0  0  0  0  0  0
    6.4084   13.7817   25.3747 N   0  0  0  0  0  0  0  0  0  0  0  0
    7.5764   13.9894   24.7503 C   0  0  0  0  0  0  0  0  0  0  0  0
    8.5206   13.0115   24.4993 C   0  0  0  0  0  0  0  0  0  0  0  0
    9.8317   13.3815   24.1416 N   0  0  0  0  0  0  0  0  0  0  0  0
   10.7684   13.1719   25.1852 N   0  0  0  0  0  0  0  0  0  0  0  0
   10.1940   14.2948   23.1061 C   0  0  0  0  0  0  0  0  0  0  0  0
   11.4641   14.8921   23.1138 C   0  0  0  0  0  0  0  0  0  0  0  0
   11.9449   15.6893   22.1358 N   0  0  0  0  0  0  0  0  0  0  0  0
   11.1073   15.8621   21.0988 C   0  0  0  0  0  0  0  0  0  0  0  0
    9.8392   15.3084   21.0739 C   0  0  0  0  0  0  0  0  0  0  0  0
    9.3452   14.5373   22.0767 N   0  0  0  0  0  0  0  0  0  0  0  0
  1  2  1  0
  2  3  1  0
  3  4  2  0
  3  5  1  0
  5  6  2  0
  6  7  1  0
  7  8  1  0
  8  9  1  0
  9 10  1  0
  7 11  2  0
 11 12  1  0
 12 13  2  0
 13 14  1  0
 14 15  1  0
 14 16  1  0
 16 17  2  0
 17 18  1  0
 18 19  2  0
 19 20  1  0
 20 21  2  0
 13  5  1  0
 21 16  1  0
 10  8  1  0
M  END
>  <energy_score>  (1304) 
-30.597749

>  <inchikey>  (1304) 
BITIFNIBDBDQTC-UHFFFAOYSA-N

>  <smiles>  (1304) 
COC(=O)c1cc(C2CC2)ncc1N(N)c1cnccn1

>  <ref_pdb>  (1304) 
A0528a

>  <alias>  (1304) 
BITIFNIBDBDQTC-UHFFFAOYSA-N-P308-P15-P308-601501

>  <HIPPO Pose ID>  (1304) 
501881

>  <name>  (1304) 
BITIFNIBDBDQTC-UHFFFAOYSA-N-P308-P15-P308-601501

>  <HIPPO Compound ID>  (1304) 
292654

>  <ref_mols>  (1304) 
A4331a,A0514a

>  <distance_score>  (1304) 
1.939395

>  <inspiration_score>  (1304) 
None

$$$$
QMAPQXROPSIKOO-UHFFFAOYSA-N-P308-P15-P308-601501
     RDKit          3D

 21 23  0  0  0  0  0  0  0  0999 V2000
    9.2152    8.6531   23.2663 C   0  0  0  0  0  0  0  0  0  0  0  0
    8.4177    9.6677   23.8719 O   0  0  0  0  0  0  0  0  0  0  0  0
    9.1523   10.6169   24.5062 C   0  0  0  0  0  0  0  0  0  0  0  0
   10.3525   10.5635   24.7132 O   0  0  0  0  0  0  0  0  0  0  0  0
    8.2330   11.7361   24.8283 C   0  0  0  0  0  0  0  0  0  0  0  0
    6.9943   11.4708   25.4211 C   0  0  0  0  0  0  0  0  0  0  0  0
    6.1398   12.5303   25.7083 C   0  0  0  0  0  0  0  0  0  0  0  0
    4.8122   12.3748   26.3835 C   0  0  0  0  0  0  0  0  0  0  0  0
    4.5773   11.5964   27.6455 C   0  0  0  0  0  0  0  0  0  0  0  0
    4.6514   13.0898   27.7127 C   0  0  0  0  0  0  0  0  0  0  0  0
    6.4578   13.7957   25.3737 N   0  0  0  0  0  0  0  0  0  0  0  0
    7.6342   14.0160   24.7709 C   0  0  0  0  0  0  0  0  0  0  0  0
    8.5877   13.0482   24.5152 C   0  0  0  0  0  0  0  0  0  0  0  0
    9.8863   13.4152   24.1320 N   0  0  0  0  0  0  0  0  0  0  0  0
   10.7566   13.4684   25.2735 N   0  0  0  0  0  0  0  0  0  0  0  0
   10.2367   14.2875   23.0561 C   0  0  0  0  0  0  0  0  0  0  0  0
    9.3819   14.4872   22.0382 N   0  0  0  0  0  0  0  0  0  0  0  0
    9.8413   15.2242   21.0065 C   0  0  0  0  0  0  0  0  0  0  0  0
   11.0957   15.7765   20.9550 C   0  0  0  0  0  0  0  0  0  0  0  0
   11.8787   15.5613   22.0547 C   0  0  0  0  0  0  0  0  0  0  0  0
   11.4762   14.8382   23.1132 N   0  0  0  0  0  0  0  0  0  0  0  0
  1  2  1  0
  2  3  1  0
  3  4  2  0
  3  5  1  0
  5  6  2  0
  6  7  1  0
  7  8  1  0
  8  9  1  0
  9 10  1  0
  7 11  2  0
 11 12  1  0
 12 13  2  0
 13 14  1  0
 14 15  1  0
 14 16  1  0
 16 17  2  0
 17 18  1  0
 18 19  2  0
 19 20  1  0
 20 21  2  0
 13  5  1  0
 21 16  1  0
 10  8  1  0
M  END
>  <energy_score>  (1305) 
-48.859254

>  <inchikey>  (1305) 
QMAPQXROPSIKOO-UHFFFAOYSA-N

>  <smiles>  (1305) 
COC(=O)c1cc(C2CC2)ncc1N(N)c1ncccn1

>  <ref_pdb>  (1305) 
A0528a

>  <alias>  (1305) 
QMAPQXROPSIKOO-UHFFFAOYSA-N-P308-P15-P308-601501

>  <HIPPO Pose ID>  (1305) 
501883

>  <name>  (1305) 
QMAPQXROPSIKOO-UHFFFAOYSA-N-P308-P15-P308-601501

>  <HIPPO Compound ID>  (1305) 
292655

>  <ref_mols>  (1305) 
A4331a,A0514a

>  <distance_score>  (1305) 
1.608049

>  <inspiration_score>  (1305) 
None

$$$$
ULYRXWBJWDLZON-UHFFFAOYSA-N-P308-P15-P308-601501
     RDKit          3D

 21 23  0  0  0  0  0  0  0  0999 V2000
    9.3836    8.4829   23.0319 C   0  0  0  0  0  0  0  0  0  0  0  0
    8.5626    9.3944   23.7468 O   0  0  0  0  0  0  0  0  0  0  0  0
    9.2632   10.3058   24.4528 C   0  0  0  0  0  0  0  0  0  0  0  0
   10.4684   10.3390   24.6443 O   0  0  0  0  0  0  0  0  0  0  0  0
    8.3009   11.3235   24.9109 C   0  0  0  0  0  0  0  0  0  0  0  0
    7.1294   10.8916   25.5437 C   0  0  0  0  0  0  0  0  0  0  0  0
    6.2416   11.8413   26.0218 C   0  0  0  0  0  0  0  0  0  0  0  0
    5.1043   11.4804   26.9392 C   0  0  0  0  0  0  0  0  0  0  0  0
    3.9401   12.4251   27.1335 C   0  0  0  0  0  0  0  0  0  0  0  0
    4.9631   12.2894   28.2167 C   0  0  0  0  0  0  0  0  0  0  0  0
    6.4435   13.1570   25.7772 N   0  0  0  0  0  0  0  0  0  0  0  0
    7.5570   13.5437   25.1244 C   0  0  0  0  0  0  0  0  0  0  0  0
    8.5596   12.6839   24.7131 C   0  0  0  0  0  0  0  0  0  0  0  0
    9.7806   13.1911   24.2093 N   0  0  0  0  0  0  0  0  0  0  0  0
   10.9035   12.9469   25.0683 N   0  0  0  0  0  0  0  0  0  0  0  0
    9.9212   14.2193   23.3242 C   0  0  0  0  0  0  0  0  0  0  0  0
   10.8062   15.3101   23.4234 C   0  0  0  0  0  0  0  0  0  0  0  0
   10.8786   16.0171   22.2999 N   0  0  0  0  0  0  0  0  0  0  0  0
   10.0710   15.3522   21.4586 N   0  0  0  0  0  0  0  0  0  0  0  0
   10.1170   15.6775   20.0506 C   0  0  0  0  0  0  0  0  0  0  0  0
    9.3453   14.3621   22.0820 C   0  0  0  0  0  0  0  0  0  0  0  0
  1  2  1  0
  2  3  1  0
  3  4  2  0
  3  5  1  0
  5  6  2  0
  6  7  1  0
  7  8  1  0
  8  9  1  0
  9 10  1  0
  7 11  2  0
 11 12  1  0
 12 13  2  0
 13 14  1  0
 14 15  1  0
 14 16  1  0
 16 17  1  0
 17 18  2  0
 18 19  1  0
 19 20  1  0
 19 21  1  0
 13  5  1  0
 21 16  2  0
 10  8  1  0
M  END
>  <energy_score>  (1306) 
-58.074538

>  <inchikey>  (1306) 
ULYRXWBJWDLZON-UHFFFAOYSA-N

>  <smiles>  (1306) 
COC(=O)c1cc(C2CC2)ncc1N(N)c1cnn(C)c1

>  <ref_pdb>  (1306) 
A0528a

>  <alias>  (1306) 
ULYRXWBJWDLZON-UHFFFAOYSA-N-P308-P15-P308-601501

>  <HIPPO Pose ID>  (1306) 
501887

>  <name>  (1306) 
ULYRXWBJWDLZON-UHFFFAOYSA-N-P308-P15-P308-601501

>  <HIPPO Compound ID>  (1306) 
292657

>  <ref_mols>  (1306) 
A4331a,A0514a

>  <distance_score>  (1306) 
1.61909

>  <inspiration_score>  (1306) 
None

$$$$
QHERRQLKYCHILU-UHFFFAOYSA-N-P308-P15-P308-601501
     RDKit          3D

 21 23  0  0  0  0  0  0  0  0999 V2000
    9.3850    8.4693   23.0231 C   0  0  0  0  0  0  0  0  0  0  0  0
    8.5558    9.3440   23.7709 O   0  0  0  0  0  0  0  0  0  0  0  0
    9.2482   10.2347   24.5129 C   0  0  0  0  0  0  0  0  0  0  0  0
   10.4463   10.2356   24.7468 O   0  0  0  0  0  0  0  0  0  0  0  0
    8.2793   11.2498   24.9615 C   0  0  0  0  0  0  0  0  0  0  0  0
    7.0920   10.8226   25.5668 C   0  0  0  0  0  0  0  0  0  0  0  0
    6.2014   11.7773   26.0306 C   0  0  0  0  0  0  0  0  0  0  0  0
    5.0677   11.4328   26.9582 C   0  0  0  0  0  0  0  0  0  0  0  0
    3.9114   12.3876   27.1519 C   0  0  0  0  0  0  0  0  0  0  0  0
    4.9426   12.2575   28.2280 C   0  0  0  0  0  0  0  0  0  0  0  0
    6.4032   13.0878   25.7680 N   0  0  0  0  0  0  0  0  0  0  0  0
    7.5230   13.4702   25.1275 C   0  0  0  0  0  0  0  0  0  0  0  0
    8.5459   12.6072   24.7771 C   0  0  0  0  0  0  0  0  0  0  0  0
    9.8001   13.1199   24.3790 N   0  0  0  0  0  0  0  0  0  0  0  0
   10.8659   12.8789   25.3010 N   0  0  0  0  0  0  0  0  0  0  0  0
    9.9829   14.1349   23.4805 C   0  0  0  0  0  0  0  0  0  0  0  0
   10.8144   15.2517   23.7567 C   0  0  0  0  0  0  0  0  0  0  0  0
   10.8885   15.9584   22.5891 C   0  0  0  0  0  0  0  0  0  0  0  0
   10.1869   15.2272   21.6883 N   0  0  0  0  0  0  0  0  0  0  0  0
   10.2388   15.4313   20.2698 C   0  0  0  0  0  0  0  0  0  0  0  0
    9.4809   14.2092   22.2387 N   0  0  0  0  0  0  0  0  0  0  0  0
  1  2  1  0
  2  3  1  0
  3  4  2  0
  3  5  1  0
  5  6  2  0
  6  7  1  0
  7  8  1  0
  8  9  1  0
  9 10  1  0
  7 11  2  0
 11 12  1  0
 12 13  2  0
 13 14  1  0
 14 15  1  0
 14 16  1  0
 16 17  1  0
 17 18  2  0
 18 19  1  0
 19 20  1  0
 19 21  1  0
 13  5  1  0
 21 16  2  0
 10  8  1  0
M  END
>  <energy_score>  (1307) 
-16.929515

>  <inchikey>  (1307) 
QHERRQLKYCHILU-UHFFFAOYSA-N

>  <smiles>  (1307) 
COC(=O)c1cc(C2CC2)ncc1N(N)c1ccn(C)n1

>  <ref_pdb>  (1307) 
A0528a

>  <alias>  (1307) 
QHERRQLKYCHILU-UHFFFAOYSA-N-P308-P15-P308-601501

>  <HIPPO Pose ID>  (1307) 
501891

>  <name>  (1307) 
QHERRQLKYCHILU-UHFFFAOYSA-N-P308-P15-P308-601501

>  <HIPPO Compound ID>  (1307) 
292659

>  <ref_mols>  (1307) 
A4331a,A0514a

>  <distance_score>  (1307) 
1.828545

>  <inspiration_score>  (1307) 
None

$$$$
WPQRLASIRMEZFL-UHFFFAOYSA-N-P308-P15-P308-601501
     RDKit          3D

 21 22  0  0  0  0  0  0  0  0999 V2000
    9.3972    8.6048   23.0606 C   0  0  0  0  0  0  0  0  0  0  0  0
    8.5848    9.5182   23.7891 O   0  0  0  0  0  0  0  0  0  0  0  0
    9.2905   10.4321   24.4981 C   0  0  0  0  0  0  0  0  0  0  0  0
   10.5050   10.4686   24.6181 O   0  0  0  0  0  0  0  0  0  0  0  0
    8.3211   11.3882   25.0805 C   0  0  0  0  0  0  0  0  0  0  0  0
    7.1360   10.8757   25.6343 C   0  0  0  0  0  0  0  0  0  0  0  0
    6.2290   11.7461   26.2244 C   0  0  0  0  0  0  0  0  0  0  0  0
    5.0248   11.2748   26.9901 C   0  0  0  0  0  0  0  0  0  0  0  0
    4.8099   11.7990   28.3947 C   0  0  0  0  0  0  0  0  0  0  0  0
    3.9114   12.2620   27.2931 C   0  0  0  0  0  0  0  0  0  0  0  0
    6.4432   13.0776   26.2094 N   0  0  0  0  0  0  0  0  0  0  0  0
    7.5629   13.5503   25.6435 C   0  0  0  0  0  0  0  0  0  0  0  0
    8.5620   12.7645   25.0915 C   0  0  0  0  0  0  0  0  0  0  0  0
    9.6717   13.4395   24.5617 N   0  0  0  0  0  0  0  0  0  0  0  0
   10.9393   13.0954   25.0797 N   0  0  0  0  0  0  0  0  0  0  0  0
    9.5312   13.7077   23.1152 C   0  0  0  0  0  0  0  0  0  0  0  0
    9.7759   15.1978   22.8667 C   0  0  0  0  0  0  0  0  0  0  0  0
    9.8567   15.5465   21.3768 C   0  0  0  0  0  0  0  0  0  0  0  0
   11.1706   15.0710   20.7530 C   0  0  0  0  0  0  0  0  0  0  0  0
    9.7387   17.0537   21.1596 C   0  0  0  0  0  0  0  0  0  0  0  0
    8.7620   14.9164   20.7176 O   0  0  0  0  0  0  0  0  0  0  0  0
  1  2  1  0
  2  3  1  0
  3  4  2  0
  3  5  1  0
  5  6  2  0
  6  7  1  0
  7  8  1  0
  8  9  1  0
  9 10  1  0
  7 11  2  0
 11 12  1  0
 12 13  2  0
 13 14  1  0
 14 15  1  0
 14 16  1  0
 16 17  1  0
 17 18  1  0
 18 19  1  0
 18 20  1  0
 18 21  1  0
 13  5  1  0
 10  8  1  0
M  END
>  <energy_score>  (1308) 
-44.207061

>  <inchikey>  (1308) 
WPQRLASIRMEZFL-UHFFFAOYSA-N

>  <smiles>  (1308) 
COC(=O)c1cc(C2CC2)ncc1N(N)CCC(C)(C)O

>  <ref_pdb>  (1308) 
A0528a

>  <alias>  (1308) 
WPQRLASIRMEZFL-UHFFFAOYSA-N-P308-P15-P308-601501

>  <HIPPO Pose ID>  (1308) 
501893

>  <name>  (1308) 
WPQRLASIRMEZFL-UHFFFAOYSA-N-P308-P15-P308-601501

>  <HIPPO Compound ID>  (1308) 
292660

>  <ref_mols>  (1308) 
A4331a,A0514a

>  <distance_score>  (1308) 
1.447414

>  <inspiration_score>  (1308) 
None

$$$$
HGLSBOSZPNYHKF-UHFFFAOYSA-N-P308-P15-P308-601501
     RDKit          3D

 21 22  0  0  0  0  0  0  0  0999 V2000
    9.3822    8.6038   23.0865 C   0  0  0  0  0  0  0  0  0  0  0  0
    8.5373    9.4975   23.8050 O   0  0  0  0  0  0  0  0  0  0  0  0
    9.2088   10.4615   24.4758 C   0  0  0  0  0  0  0  0  0  0  0  0
   10.4213   10.5809   24.5538 O   0  0  0  0  0  0  0  0  0  0  0  0
    8.2084   11.3823   25.0649 C   0  0  0  0  0  0  0  0  0  0  0  0
    7.0492   10.8342   25.6386 C   0  0  0  0  0  0  0  0  0  0  0  0
    6.1380   11.6761   26.2645 C   0  0  0  0  0  0  0  0  0  0  0  0
    4.9991   11.1709   27.1077 C   0  0  0  0  0  0  0  0  0  0  0  0
    3.8075   12.0626   27.3938 C   0  0  0  0  0  0  0  0  0  0  0  0
    4.8140   11.8179   28.4707 C   0  0  0  0  0  0  0  0  0  0  0  0
    6.3141   13.0142   26.2537 N   0  0  0  0  0  0  0  0  0  0  0  0
    7.4148   13.5179   25.6802 C   0  0  0  0  0  0  0  0  0  0  0  0
    8.4164   12.7650   25.0907 C   0  0  0  0  0  0  0  0  0  0  0  0
    9.5080   13.4739   24.5632 N   0  0  0  0  0  0  0  0  0  0  0  0
   10.7697   13.1801   25.1514 N   0  0  0  0  0  0  0  0  0  0  0  0
    9.4453   13.6078   23.0919 C   0  0  0  0  0  0  0  0  0  0  0  0
    9.5968   15.0844   22.6540 C   0  0  0  0  0  0  0  0  0  0  0  0
    8.3489   15.8986   23.0442 C   0  0  0  0  0  0  0  0  0  0  0  0
    9.7027   15.1137   21.1206 C   0  0  0  0  0  0  0  0  0  0  0  0
   10.8435   15.7546   23.2614 C   0  0  0  0  0  0  0  0  0  0  0  0
   12.0230   14.9680   23.0950 O   0  0  0  0  0  0  0  0  0  0  0  0
  1  2  1  0
  2  3  1  0
  3  4  2  0
  3  5  1  0
  5  6  2  0
  6  7  1  0
  7  8  1  0
  8  9  1  0
  9 10  1  0
  7 11  2  0
 11 12  1  0
 12 13  2  0
 13 14  1  0
 14 15  1  0
 14 16  1  0
 16 17  1  0
 17 18  1  0
 17 19  1  0
 17 20  1  0
 20 21  1  0
 13  5  1  0
 10  8  1  0
M  END
>  <energy_score>  (1309) 
-38.792198

>  <inchikey>  (1309) 
HGLSBOSZPNYHKF-UHFFFAOYSA-N

>  <smiles>  (1309) 
COC(=O)c1cc(C2CC2)ncc1N(N)CC(C)(C)CO

>  <ref_pdb>  (1309) 
A0528a

>  <alias>  (1309) 
HGLSBOSZPNYHKF-UHFFFAOYSA-N-P308-P15-P308-601501

>  <HIPPO Pose ID>  (1309) 
501895

>  <name>  (1309) 
HGLSBOSZPNYHKF-UHFFFAOYSA-N-P308-P15-P308-601501

>  <HIPPO Compound ID>  (1309) 
292661

>  <ref_mols>  (1309) 
A4331a,A0514a

>  <distance_score>  (1309) 
1.603987

>  <inspiration_score>  (1309) 
None

$$$$
VVAWZXJBJGSAKM-UHFFFAOYSA-N-P308-P15-P308-601501
     RDKit          3D

 21 22  0  0  0  0  0  0  0  0999 V2000
    9.3989    8.5812   23.0538 C   0  0  0  0  0  0  0  0  0  0  0  0
    8.5690    9.4979   23.7549 O   0  0  0  0  0  0  0  0  0  0  0  0
    9.2549   10.3900   24.5056 C   0  0  0  0  0  0  0  0  0  0  0  0
   10.4604   10.4097   24.6978 O   0  0  0  0  0  0  0  0  0  0  0  0
    8.2756   11.3563   25.0421 C   0  0  0  0  0  0  0  0  0  0  0  0
    7.1044   10.8513   25.6288 C   0  0  0  0  0  0  0  0  0  0  0  0
    6.1967   11.7357   26.1942 C   0  0  0  0  0  0  0  0  0  0  0  0
    5.0484   11.2870   27.0565 C   0  0  0  0  0  0  0  0  0  0  0  0
    3.8643   12.2011   27.2909 C   0  0  0  0  0  0  0  0  0  0  0  0
    4.8651   12.0040   28.3838 C   0  0  0  0  0  0  0  0  0  0  0  0
    6.3864   13.0681   26.0953 N   0  0  0  0  0  0  0  0  0  0  0  0
    7.4943   13.5299   25.4973 C   0  0  0  0  0  0  0  0  0  0  0  0
    8.5051   12.7326   24.9865 C   0  0  0  0  0  0  0  0  0  0  0  0
    9.6263   13.3802   24.4557 N   0  0  0  0  0  0  0  0  0  0  0  0
   10.8970   13.0818   24.9822 N   0  0  0  0  0  0  0  0  0  0  0  0
    9.5186   13.7080   23.0221 C   0  0  0  0  0  0  0  0  0  0  0  0
    9.4204   15.2215   22.8671 C   0  0  0  0  0  0  0  0  0  0  0  0
    9.5501   15.6688   21.4099 C   0  0  0  0  0  0  0  0  0  0  0  0
   10.8243   15.2912   20.7790 N   0  0  0  0  0  0  0  0  0  0  0  0
   10.8206   15.6884   19.3674 C   0  0  0  0  0  0  0  0  0  0  0  0
   11.9706   15.9110   21.4508 C   0  0  0  0  0  0  0  0  0  0  0  0
  1  2  1  0
  2  3  1  0
  3  4  2  0
  3  5  1  0
  5  6  2  0
  6  7  1  0
  7  8  1  0
  8  9  1  0
  9 10  1  0
  7 11  2  0
 11 12  1  0
 12 13  2  0
 13 14  1  0
 14 15  1  0
 14 16  1  0
 16 17  1  0
 17 18  1  0
 18 19  1  0
 19 20  1  0
 19 21  1  0
 13  5  1  0
 10  8  1  0
M  END
>  <energy_score>  (1310) 
-50.401874

>  <inchikey>  (1310) 
VVAWZXJBJGSAKM-UHFFFAOYSA-N

>  <smiles>  (1310) 
COC(=O)c1cc(C2CC2)ncc1N(N)CCCN(C)C

>  <ref_pdb>  (1310) 
A0528a

>  <alias>  (1310) 
VVAWZXJBJGSAKM-UHFFFAOYSA-N-P308-P15-P308-601501

>  <HIPPO Pose ID>  (1310) 
501899

>  <name>  (1310) 
VVAWZXJBJGSAKM-UHFFFAOYSA-N-P308-P15-P308-601501

>  <HIPPO Compound ID>  (1310) 
292663

>  <ref_mols>  (1310) 
A4331a,A0514a

>  <distance_score>  (1310) 
1.252116

>  <inspiration_score>  (1310) 
None

$$$$
ZZXTUOWPBSTRMM-UHFFFAOYSA-N-P308-P15-P308-601501
     RDKit          3D

 21 23  0  0  0  0  0  0  0  0999 V2000
    9.2147    8.5962   23.1550 C   0  0  0  0  0  0  0  0  0  0  0  0
    8.3615    9.4840   23.8758 O   0  0  0  0  0  0  0  0  0  0  0  0
    9.0386   10.4052   24.5963 C   0  0  0  0  0  0  0  0  0  0  0  0
   10.2466   10.4416   24.7821 O   0  0  0  0  0  0  0  0  0  0  0  0
    8.0719   11.3937   25.1269 C   0  0  0  0  0  0  0  0  0  0  0  0
    6.8727   10.9655   25.7179 C   0  0  0  0  0  0  0  0  0  0  0  0
    6.0343   11.9218   26.2809 C   0  0  0  0  0  0  0  0  0  0  0  0
    4.7115   11.6687   26.9178 C   0  0  0  0  0  0  0  0  0  0  0  0
    4.4428   10.6797   28.0085 C   0  0  0  0  0  0  0  0  0  0  0  0
    4.5668   12.1314   28.3563 C   0  0  0  0  0  0  0  0  0  0  0  0
    6.3630   13.2283   26.2855 N   0  0  0  0  0  0  0  0  0  0  0  0
    7.4761   13.6160   25.6629 C   0  0  0  0  0  0  0  0  0  0  0  0
    8.3644   12.7592   25.0336 C   0  0  0  0  0  0  0  0  0  0  0  0
    9.4553   13.2667   24.3024 N   0  0  0  0  0  0  0  0  0  0  0  0
   10.7002   13.2180   24.9729 N   0  0  0  0  0  0  0  0  0  0  0  0
    9.1222   14.4763   23.5204 C   0  0  0  0  0  0  0  0  0  0  0  0
   10.0409   14.6242   22.3192 C   0  0  2  0  0  0  0  0  0  0  0  0
   11.3289   15.3785   22.6447 C   0  0  0  0  0  0  0  0  0  0  0  0
   12.0188   15.6024   21.3138 C   0  0  0  0  0  0  0  0  0  0  0  0
   10.6894   15.9458   20.1293 S   0  0  0  0  0  0  0  0  0  0  0  0
    9.3555   15.4507   21.2367 C   0  0  0  0  0  0  0  0  0  0  0  0
  1  2  1  0
  2  3  1  0
  3  4  2  0
  3  5  1  0
  5  6  2  0
  6  7  1  0
  7  8  1  0
  8  9  1  0
  9 10  1  0
  7 11  2  0
 11 12  1  0
 12 13  2  0
 13 14  1  0
 14 15  1  0
 14 16  1  0
 17 16  1  1
 17 18  1  0
 18 19  1  0
 19 20  1  0
 20 21  1  0
 13  5  1  0
 21 17  1  0
 10  8  1  0
M  END
>  <energy_score>  (1311) 
-56.181301

>  <inchikey>  (1311) 
ZZXTUOWPBSTRMM-UHFFFAOYSA-N

>  <smiles>  (1311) 
COC(=O)c1cc(C2CC2)ncc1N(N)CC1CCSC1

>  <ref_pdb>  (1311) 
A0528a

>  <alias>  (1311) 
ZZXTUOWPBSTRMM-UHFFFAOYSA-N-P308-P15-P308-601501

>  <HIPPO Pose ID>  (1311) 
501901

>  <name>  (1311) 
ZZXTUOWPBSTRMM-UHFFFAOYSA-N-P308-P15-P308-601501

>  <HIPPO Compound ID>  (1311) 
292664

>  <ref_mols>  (1311) 
A4331a,A0514a

>  <distance_score>  (1311) 
1.473453

>  <inspiration_score>  (1311) 
None

$$$$
GUWJEUWNTPLYKC-UHFFFAOYSA-N-P308-P15-P308-601501
     RDKit          3D

 21 22  0  0  0  0  0  0  0  0999 V2000
   10.7418   15.9142   20.1460 C   0  0  0  0  0  0  0  0  0  0  0  0
    9.5847   15.7266   21.1166 C   0  0  0  0  0  0  0  0  0  0  0  0
   10.0155   14.8622   22.3074 C   0  0  0  0  0  0  0  0  0  0  0  0
   10.7246   15.7046   23.3815 C   0  0  0  0  0  0  0  0  0  0  0  0
   11.7026   14.8921   24.2080 C   0  0  0  0  0  0  0  0  0  0  0  0
    8.7870   14.1356   22.8806 C   0  0  0  0  0  0  0  0  0  0  0  0
    9.2088   12.9557   23.6831 N   0  0  0  0  0  0  0  0  0  0  0  0
    9.7956   11.9260   22.9063 N   0  0  0  0  0  0  0  0  0  0  0  0
    8.2609   12.5405   24.6577 C   0  0  0  0  0  0  0  0  0  0  0  0
    7.5329   13.4773   25.3753 C   0  0  0  0  0  0  0  0  0  0  0  0
    6.4713   13.2083   26.1494 N   0  0  0  0  0  0  0  0  0  0  0  0
    6.0472   11.9348   26.2498 C   0  0  0  0  0  0  0  0  0  0  0  0
    4.7349   11.7971   26.9454 C   0  0  0  0  0  0  0  0  0  0  0  0
    4.4493   10.8744   28.0889 C   0  0  0  0  0  0  0  0  0  0  0  0
    4.6630   12.3333   28.3612 C   0  0  0  0  0  0  0  0  0  0  0  0
    6.7965   10.8947   25.7256 C   0  0  0  0  0  0  0  0  0  0  0  0
    7.9491   11.2110   24.9931 C   0  0  0  0  0  0  0  0  0  0  0  0
    8.8672   10.1184   24.6280 C   0  0  0  0  0  0  0  0  0  0  0  0
   10.0692   10.1383   24.8585 O   0  0  0  0  0  0  0  0  0  0  0  0
    8.1927    9.1756   23.9373 O   0  0  0  0  0  0  0  0  0  0  0  0
    9.0679    8.3667   23.1570 C   0  0  0  0  0  0  0  0  0  0  0  0
  1  2  1  0
  2  3  1  0
  3  4  1  0
  4  5  1  0
  3  6  1  0
  6  7  1  0
  7  8  1  0
  7  9  1  0
  9 10  2  0
 10 11  1  0
 11 12  2  0
 12 13  1  0
 13 14  1  0
 14 15  1  0
 12 16  1  0
 16 17  2  0
 17 18  1  0
 18 19  2  0
 18 20  1  0
 20 21  1  0
 17  9  1  0
 15 13  1  0
M  END
>  <energy_score>  (1312) 
-34.610281

>  <inchikey>  (1312) 
GUWJEUWNTPLYKC-UHFFFAOYSA-N

>  <smiles>  (1312) 
CCC(CC)CN(N)c1cnc(C2CC2)cc1C(=O)OC

>  <ref_pdb>  (1312) 
A0528a

>  <alias>  (1312) 
GUWJEUWNTPLYKC-UHFFFAOYSA-N-P308-P15-P308-601501

>  <HIPPO Pose ID>  (1312) 
501905

>  <name>  (1312) 
GUWJEUWNTPLYKC-UHFFFAOYSA-N-P308-P15-P308-601501

>  <HIPPO Compound ID>  (1312) 
292666

>  <ref_mols>  (1312) 
A4331a,A0514a

>  <distance_score>  (1312) 
1.573119

>  <inspiration_score>  (1312) 
None

$$$$
MJUXATAEFLRMTG-UHFFFAOYSA-N-P308-P15-P308-601501
     RDKit          3D

 21 22  0  0  0  0  0  0  0  0999 V2000
    9.4493    8.6269   23.0655 C   0  0  0  0  0  0  0  0  0  0  0  0
    8.6442    9.5617   23.7741 O   0  0  0  0  0  0  0  0  0  0  0  0
    9.3521   10.4471   24.5179 C   0  0  0  0  0  0  0  0  0  0  0  0
   10.5608   10.4525   24.6788 O   0  0  0  0  0  0  0  0  0  0  0  0
    8.3816   11.4206   25.0711 C   0  0  0  0  0  0  0  0  0  0  0  0
    7.1537   10.9441   25.5590 C   0  0  0  0  0  0  0  0  0  0  0  0
    6.2784   11.8357   26.1620 C   0  0  0  0  0  0  0  0  0  0  0  0
    5.0665   11.3916   26.9354 C   0  0  0  0  0  0  0  0  0  0  0  0
    3.9043   12.3400   27.1409 C   0  0  0  0  0  0  0  0  0  0  0  0
    4.8258   12.0519   28.2825 C   0  0  0  0  0  0  0  0  0  0  0  0
    6.5553   13.1574   26.1916 N   0  0  0  0  0  0  0  0  0  0  0  0
    7.7336   13.5910   25.7156 C   0  0  0  0  0  0  0  0  0  0  0  0
    8.7149   12.7749   25.1814 C   0  0  0  0  0  0  0  0  0  0  0  0
    9.9624   13.2944   24.8070 N   0  0  0  0  0  0  0  0  0  0  0  0
   10.6501   14.0656   25.7738 N   0  0  0  0  0  0  0  0  0  0  0  0
   10.0697   13.6366   23.3757 C   0  0  0  0  0  0  0  0  0  0  0  0
    9.8562   15.1359   23.1056 C   0  0  0  0  0  0  0  0  0  0  0  0
    9.7452   15.4944   21.6078 C   0  0  0  0  0  0  0  0  0  0  0  0
   10.9595   14.9897   20.8160 C   0  0  0  0  0  0  0  0  0  0  0  0
    8.4386   14.9306   21.0640 C   0  0  0  0  0  0  0  0  0  0  0  0
    9.6974   17.0129   21.4115 C   0  0  0  0  0  0  0  0  0  0  0  0
  1  2  1  0
  2  3  1  0
  3  4  2  0
  3  5  1  0
  5  6  2  0
  6  7  1  0
  7  8  1  0
  8  9  1  0
  9 10  1  0
  7 11  2  0
 11 12  1  0
 12 13  2  0
 13 14  1  0
 14 15  1  0
 14 16  1  0
 16 17  1  0
 17 18  1  0
 18 19  1  0
 18 20  1  0
 18 21  1  0
 13  5  1  0
 10  8  1  0
M  END
>  <energy_score>  (1313) 
-45.325783

>  <inchikey>  (1313) 
MJUXATAEFLRMTG-UHFFFAOYSA-N

>  <smiles>  (1313) 
COC(=O)c1cc(C2CC2)ncc1N(N)CCC(C)(C)C

>  <ref_pdb>  (1313) 
A0528a

>  <alias>  (1313) 
MJUXATAEFLRMTG-UHFFFAOYSA-N-P308-P15-P308-601501

>  <HIPPO Pose ID>  (1313) 
501911

>  <name>  (1313) 
MJUXATAEFLRMTG-UHFFFAOYSA-N-P308-P15-P308-601501

>  <HIPPO Compound ID>  (1313) 
292669

>  <ref_mols>  (1313) 
A4331a,A0514a

>  <distance_score>  (1313) 
1.302806

>  <inspiration_score>  (1313) 
None

$$$$
GQFPIWGIFDREIJ-UHFFFAOYSA-N-P308-P15-P308-601501
     RDKit          3D

 21 22  0  0  0  0  0  0  0  0999 V2000
    9.4496    8.6753   23.1158 C   0  0  0  0  0  0  0  0  0  0  0  0
    8.5396    9.5379   23.7897 O   0  0  0  0  0  0  0  0  0  0  0  0
    9.1361   10.5071   24.5207 C   0  0  0  0  0  0  0  0  0  0  0  0
   10.3320   10.6462   24.7236 O   0  0  0  0  0  0  0  0  0  0  0  0
    8.0678   11.3757   25.0587 C   0  0  0  0  0  0  0  0  0  0  0  0
    6.9713   10.7720   25.6898 C   0  0  0  0  0  0  0  0  0  0  0  0
    6.0262   11.5780   26.3072 C   0  0  0  0  0  0  0  0  0  0  0  0
    4.9566   11.0436   27.2185 C   0  0  0  0  0  0  0  0  0  0  0  0
    3.7411   11.8867   27.5471 C   0  0  0  0  0  0  0  0  0  0  0  0
    4.8132   11.7178   28.5737 C   0  0  0  0  0  0  0  0  0  0  0  0
    6.1136   12.9211   26.2287 N   0  0  0  0  0  0  0  0  0  0  0  0
    7.1410   13.4764   25.5747 C   0  0  0  0  0  0  0  0  0  0  0  0
    8.1697   12.7685   24.9747 C   0  0  0  0  0  0  0  0  0  0  0  0
    9.2421   13.4239   24.3456 N   0  0  0  0  0  0  0  0  0  0  0  0
   10.4189   13.4859   25.1309 N   0  0  0  0  0  0  0  0  0  0  0  0
    8.8910   14.6021   23.4807 C   0  0  2  0  0  0  0  0  0  0  0  0
    8.1048   14.1083   22.2641 C   0  0  0  0  0  0  0  0  0  0  0  0
   10.1067   15.4032   22.9856 C   0  0  0  0  0  0  0  0  0  0  0  0
   10.5626   16.2418   23.9515 F   0  0  0  0  0  0  0  0  0  0  0  0
    9.7670   16.1705   21.9212 F   0  0  0  0  0  0  0  0  0  0  0  0
   11.1397   14.6297   22.6051 F   0  0  0  0  0  0  0  0  0  0  0  0
  1  2  1  0
  2  3  1  0
  3  4  2  0
  3  5  1  0
  5  6  2  0
  6  7  1  0
  7  8  1  0
  8  9  1  0
  9 10  1  0
  7 11  2  0
 11 12  1  0
 12 13  2  0
 13 14  1  0
 14 15  1  0
 14 16  1  0
 16 17  1  6
 16 18  1  0
 18 19  1  0
 18 20  1  0
 18 21  1  0
 13  5  1  0
 10  8  1  0
M  END
>  <energy_score>  (1314) 
-32.023843

>  <inchikey>  (1314) 
GQFPIWGIFDREIJ-UHFFFAOYSA-N

>  <smiles>  (1314) 
COC(=O)c1cc(C2CC2)ncc1N(N)C(C)C(F)(F)F

>  <ref_pdb>  (1314) 
A0528a

>  <alias>  (1314) 
GQFPIWGIFDREIJ-UHFFFAOYSA-N-P308-P15-P308-601501

>  <HIPPO Pose ID>  (1314) 
501915

>  <name>  (1314) 
GQFPIWGIFDREIJ-UHFFFAOYSA-N-P308-P15-P308-601501

>  <HIPPO Compound ID>  (1314) 
292671

>  <ref_mols>  (1314) 
A4331a,A0514a

>  <distance_score>  (1314) 
1.55266

>  <inspiration_score>  (1314) 
None

$$$$
AETFGALWHHEGJO-UHFFFAOYSA-N-P308-P15-P308-601501
     RDKit          3D

 21 23  0  0  0  0  0  0  0  0999 V2000
    9.4184    8.5409   23.0013 C   0  0  0  0  0  0  0  0  0  0  0  0
    8.6360    9.4894   23.7101 O   0  0  0  0  0  0  0  0  0  0  0  0
    9.3674   10.3323   24.4745 C   0  0  0  0  0  0  0  0  0  0  0  0
   10.5698   10.2878   24.6758 O   0  0  0  0  0  0  0  0  0  0  0  0
    8.4340   11.3371   25.0174 C   0  0  0  0  0  0  0  0  0  0  0  0
    7.2091   10.9062   25.5471 C   0  0  0  0  0  0  0  0  0  0  0  0
    6.3828   11.8340   26.1621 C   0  0  0  0  0  0  0  0  0  0  0  0
    5.1097   11.4479   26.8609 C   0  0  0  0  0  0  0  0  0  0  0  0
    4.8297   12.0039   28.2405 C   0  0  0  0  0  0  0  0  0  0  0  0
    4.0397   12.5022   27.0712 C   0  0  0  0  0  0  0  0  0  0  0  0
    6.7400   13.1356   26.2261 N   0  0  0  0  0  0  0  0  0  0  0  0
    7.9072   13.5286   25.6847 C   0  0  0  0  0  0  0  0  0  0  0  0
    8.8091   12.6814   25.0666 C   0  0  0  0  0  0  0  0  0  0  0  0
   10.0067   13.1621   24.5002 N   0  0  0  0  0  0  0  0  0  0  0  0
   10.7961   13.9947   25.3246 N   0  0  0  0  0  0  0  0  0  0  0  0
    9.8530   13.4700   23.0502 C   0  0  0  0  0  0  0  0  0  0  0  0
   10.0277   14.9401   22.6262 C   0  0  0  0  0  0  0  0  0  0  0  0
    9.1248   15.8909   23.3885 C   0  0  0  0  0  0  0  0  0  0  0  0
    9.8388   15.1159   21.0884 C   0  0  0  0  0  0  0  0  0  0  0  0
   11.3653   15.0839   20.9271 C   0  0  0  0  0  0  0  0  0  0  0  0
   11.4816   15.4753   22.4064 C   0  0  0  0  0  0  0  0  0  0  0  0
  1  2  1  0
  2  3  1  0
  3  4  2  0
  3  5  1  0
  5  6  2  0
  6  7  1  0
  7  8  1  0
  8  9  1  0
  9 10  1  0
  7 11  2  0
 11 12  1  0
 12 13  2  0
 13 14  1  0
 14 15  1  0
 14 16  1  0
 16 17  1  0
 17 18  1  0
 17 19  1  0
 19 20  1  0
 20 21  1  0
 13  5  1  0
 21 17  1  0
 10  8  1  0
M  END
>  <energy_score>  (1315) 
-32.890302

>  <inchikey>  (1315) 
AETFGALWHHEGJO-UHFFFAOYSA-N

>  <smiles>  (1315) 
COC(=O)c1cc(C2CC2)ncc1N(N)CC1(C)CCC1

>  <ref_pdb>  (1315) 
A0528a

>  <alias>  (1315) 
AETFGALWHHEGJO-UHFFFAOYSA-N-P308-P15-P308-601501

>  <HIPPO Pose ID>  (1315) 
501917

>  <name>  (1315) 
AETFGALWHHEGJO-UHFFFAOYSA-N-P308-P15-P308-601501

>  <HIPPO Compound ID>  (1315) 
292672

>  <ref_mols>  (1315) 
A4331a,A0514a

>  <distance_score>  (1315) 
1.495936

>  <inspiration_score>  (1315) 
None

$$$$
KQERYPVOULVVEB-UHFFFAOYSA-N-P308-P15-P308-601501
     RDKit          3D

 21 23  0  0  0  0  0  0  0  0999 V2000
    9.4729    8.7428   23.1548 C   0  0  0  0  0  0  0  0  0  0  0  0
    8.5767    9.6084   23.8455 O   0  0  0  0  0  0  0  0  0  0  0  0
    9.1836   10.5959   24.5479 C   0  0  0  0  0  0  0  0  0  0  0  0
   10.3850   10.7649   24.6709 O   0  0  0  0  0  0  0  0  0  0  0  0
    8.1198   11.4381   25.1415 C   0  0  0  0  0  0  0  0  0  0  0  0
    6.9843   10.8177   25.6875 C   0  0  0  0  0  0  0  0  0  0  0  0
    6.0372   11.5961   26.3430 C   0  0  0  0  0  0  0  0  0  0  0  0
    4.9354   11.0185   27.1877 C   0  0  0  0  0  0  0  0  0  0  0  0
    3.7238   11.8594   27.5402 C   0  0  0  0  0  0  0  0  0  0  0  0
    4.7655   11.6060   28.5799 C   0  0  0  0  0  0  0  0  0  0  0  0
    6.1489   12.9398   26.3737 N   0  0  0  0  0  0  0  0  0  0  0  0
    7.2264   13.5154   25.8316 C   0  0  0  0  0  0  0  0  0  0  0  0
    8.2690   12.8240   25.2293 C   0  0  0  0  0  0  0  0  0  0  0  0
    9.3785   13.5414   24.6976 N   0  0  0  0  0  0  0  0  0  0  0  0
    9.8451   14.5632   25.6023 N   0  0  0  0  0  0  0  0  0  0  0  0
    8.9595   13.9989   23.3359 C   0  0  0  0  0  0  0  0  0  0  0  0
   10.0085   14.6702   22.5086 C   0  0  0  0  0  0  0  0  0  0  0  0
   11.3652   14.8143   22.7173 C   0  0  0  0  0  0  0  0  0  0  0  0
   11.9936   15.5258   21.6600 C   0  0  0  0  0  0  0  0  0  0  0  0
   11.1143   15.8221   20.6444 C   0  0  0  0  0  0  0  0  0  0  0  0
    9.5189   15.3838   21.0330 S   0  0  0  0  0  0  0  0  0  0  0  0
  1  2  1  0
  2  3  1  0
  3  4  2  0
  3  5  1  0
  5  6  2  0
  6  7  1  0
  7  8  1  0
  8  9  1  0
  9 10  1  0
  7 11  2  0
 11 12  1  0
 12 13  2  0
 13 14  1  0
 14 15  1  0
 14 16  1  0
 16 17  1  0
 17 18  2  0
 18 19  1  0
 19 20  2  0
 20 21  1  0
 13  5  1  0
 21 17  1  0
 10  8  1  0
M  END
>  <energy_score>  (1316) 
-43.487728

>  <inchikey>  (1316) 
KQERYPVOULVVEB-UHFFFAOYSA-N

>  <smiles>  (1316) 
COC(=O)c1cc(C2CC2)ncc1N(N)Cc1cccs1

>  <ref_pdb>  (1316) 
A0528a

>  <alias>  (1316) 
KQERYPVOULVVEB-UHFFFAOYSA-N-P308-P15-P308-601501

>  <HIPPO Pose ID>  (1316) 
501919

>  <name>  (1316) 
KQERYPVOULVVEB-UHFFFAOYSA-N-P308-P15-P308-601501

>  <HIPPO Compound ID>  (1316) 
292673

>  <ref_mols>  (1316) 
A4331a,A0514a

>  <distance_score>  (1316) 
1.382719

>  <inspiration_score>  (1316) 
None

$$$$
HEHLXZLMNHXABI-UHFFFAOYSA-N-P308-P15-P308-601501
     RDKit          3D

 21 23  0  0  0  0  0  0  0  0999 V2000
    9.5232    8.6949   23.1806 C   0  0  0  0  0  0  0  0  0  0  0  0
    8.6726    9.6717   23.7707 O   0  0  0  0  0  0  0  0  0  0  0  0
    9.3266   10.6636   24.4236 C   0  0  0  0  0  0  0  0  0  0  0  0
   10.5251   10.7309   24.6369 O   0  0  0  0  0  0  0  0  0  0  0  0
    8.2946   11.6553   24.7979 C   0  0  0  0  0  0  0  0  0  0  0  0
    7.1601   11.2070   25.4715 C   0  0  0  0  0  0  0  0  0  0  0  0
    6.2183   12.1299   25.9036 C   0  0  0  0  0  0  0  0  0  0  0  0
    5.1284   11.7278   26.8612 C   0  0  0  0  0  0  0  0  0  0  0  0
    3.9375   12.6227   27.1038 C   0  0  0  0  0  0  0  0  0  0  0  0
    5.0095   12.5263   28.1452 C   0  0  0  0  0  0  0  0  0  0  0  0
    6.3211   13.4335   25.5694 N   0  0  0  0  0  0  0  0  0  0  0  0
    7.4100   13.8372   24.8951 C   0  0  0  0  0  0  0  0  0  0  0  0
    8.4668   13.0160   24.5424 C   0  0  0  0  0  0  0  0  0  0  0  0
    9.7247   13.5684   24.2387 N   0  0  0  0  0  0  0  0  0  0  0  0
   10.5360   13.5556   25.3912 N   0  0  0  0  0  0  0  0  0  0  0  0
   10.1148   14.3816   23.1530 C   0  0  0  0  0  0  0  0  0  0  0  0
    9.3545   14.5967   22.0184 C   0  0  0  0  0  0  0  0  0  0  0  0
    9.7657   15.2987   20.9386 N   0  0  0  0  0  0  0  0  0  0  0  0
   10.9971   15.8254   21.0143 C   0  0  0  0  0  0  0  0  0  0  0  0
   11.8273   15.7183   22.0551 N   0  0  0  0  0  0  0  0  0  0  0  0
   11.3599   14.9955   23.0872 C   0  0  0  0  0  0  0  0  0  0  0  0
  1  2  1  0
  2  3  1  0
  3  4  2  0
  3  5  1  0
  5  6  2  0
  6  7  1  0
  7  8  1  0
  8  9  1  0
  9 10  1  0
  7 11  2  0
 11 12  1  0
 12 13  2  0
 13 14  1  0
 14 15  1  0
 14 16  1  0
 16 17  2  0
 17 18  1  0
 18 19  2  0
 19 20  1  0
 20 21  2  0
 13  5  1  0
 21 16  1  0
 10  8  1  0
M  END
>  <energy_score>  (1317) 
-52.545364

>  <inchikey>  (1317) 
HEHLXZLMNHXABI-UHFFFAOYSA-N

>  <smiles>  (1317) 
COC(=O)c1cc(C2CC2)ncc1N(N)c1cncnc1

>  <ref_pdb>  (1317) 
A0528a

>  <alias>  (1317) 
HEHLXZLMNHXABI-UHFFFAOYSA-N-P308-P15-P308-601501

>  <HIPPO Pose ID>  (1317) 
501927

>  <name>  (1317) 
HEHLXZLMNHXABI-UHFFFAOYSA-N-P308-P15-P308-601501

>  <HIPPO Compound ID>  (1317) 
292677

>  <ref_mols>  (1317) 
A4331a,A0514a

>  <distance_score>  (1317) 
1.864421

>  <inspiration_score>  (1317) 
None

$$$$
YAZRHMQCCRPOBD-UHFFFAOYSA-N-P308-P15-P308-601501
     RDKit          3D

 21 23  0  0  0  0  0  0  0  0999 V2000
    9.2352    8.7995   23.2947 C   0  0  0  0  0  0  0  0  0  0  0  0
    8.4026    9.8507   23.7877 O   0  0  0  0  0  0  0  0  0  0  0  0
    9.0903   10.8578   24.3777 C   0  0  0  0  0  0  0  0  0  0  0  0
   10.2929   10.8765   24.5790 O   0  0  0  0  0  0  0  0  0  0  0  0
    8.1291   11.9296   24.7533 C   0  0  0  0  0  0  0  0  0  0  0  0
    6.9539   11.5186   25.4047 C   0  0  0  0  0  0  0  0  0  0  0  0
    6.0294   12.4675   25.8114 C   0  0  0  0  0  0  0  0  0  0  0  0
    4.7712   12.1748   26.5651 C   0  0  0  0  0  0  0  0  0  0  0  0
    4.6162   11.1601   27.6568 C   0  0  0  0  0  0  0  0  0  0  0  0
    4.7710   12.6046   28.0204 C   0  0  0  0  0  0  0  0  0  0  0  0
    6.2181   13.7677   25.5459 N   0  0  0  0  0  0  0  0  0  0  0  0
    7.3291   14.1302   24.8871 C   0  0  0  0  0  0  0  0  0  0  0  0
    8.3715   13.2963   24.5031 C   0  0  0  0  0  0  0  0  0  0  0  0
    9.5965   13.8101   24.0153 N   0  0  0  0  0  0  0  0  0  0  0  0
   10.6903   13.4280   24.8390 N   0  0  0  0  0  0  0  0  0  0  0  0
    9.6616   15.2220   23.4902 C   0  0  0  0  0  0  0  0  0  0  0  0
    9.0807   15.3186   22.0744 C   0  0  0  0  0  0  0  0  0  0  0  0
   10.0760   14.8351   21.0309 C   0  0  0  0  0  0  0  0  0  0  0  0
   11.3207   15.5126   21.1473 O   0  0  0  0  0  0  0  0  0  0  0  0
   11.9417   15.2344   22.3936 C   0  0  0  0  0  0  0  0  0  0  0  0
   11.0861   15.7984   23.5045 C   0  0  0  0  0  0  0  0  0  0  0  0
  1  2  1  0
  2  3  1  0
  3  4  2  0
  3  5  1  0
  5  6  2  0
  6  7  1  0
  7  8  1  0
  8  9  1  0
  9 10  1  0
  7 11  2  0
 11 12  1  0
 12 13  2  0
 13 14  1  0
 14 15  1  0
 14 16  1  0
 16 17  1  0
 17 18  1  0
 18 19  1  0
 19 20  1  0
 20 21  1  0
 13  5  1  0
 21 16  1  0
 10  8  1  0
M  END
>  <energy_score>  (1318) 
-42.411235

>  <inchikey>  (1318) 
YAZRHMQCCRPOBD-UHFFFAOYSA-N

>  <smiles>  (1318) 
COC(=O)c1cc(C2CC2)ncc1N(N)C1CCOCC1

>  <ref_pdb>  (1318) 
A0528a

>  <alias>  (1318) 
YAZRHMQCCRPOBD-UHFFFAOYSA-N-P308-P15-P308-601501

>  <HIPPO Pose ID>  (1318) 
501935

>  <name>  (1318) 
YAZRHMQCCRPOBD-UHFFFAOYSA-N-P308-P15-P308-601501

>  <HIPPO Compound ID>  (1318) 
292681

>  <ref_mols>  (1318) 
A4331a,A0514a

>  <distance_score>  (1318) 
1.58727

>  <inspiration_score>  (1318) 
None

$$$$
HAJQORSFGXGTLO-UHFFFAOYSA-N-P308-P15-P308-601501
     RDKit          3D

 21 22  0  0  0  0  0  0  0  0999 V2000
   12.1733   16.2360   21.4813 C   0  0  0  0  0  0  0  0  0  0  0  0
   11.5390   15.0968   20.7101 C   0  0  0  0  0  0  0  0  0  0  0  0
   10.4032   14.6017   21.4298 O   0  0  0  0  0  0  0  0  0  0  0  0
   10.6922   13.8761   22.5500 C   0  0  0  0  0  0  0  0  0  0  0  0
   11.8173   13.5980   22.9541 O   0  0  0  0  0  0  0  0  0  0  0  0
    9.3885   13.5646   23.2651 C   0  0  0  0  0  0  0  0  0  0  0  0
    9.5652   12.6708   24.4480 N   0  0  0  0  0  0  0  0  0  0  0  0
   10.5716   13.0096   25.4086 N   0  0  0  0  0  0  0  0  0  0  0  0
    8.3143   12.3670   25.0321 C   0  0  0  0  0  0  0  0  0  0  0  0
    7.5812   13.3610   25.6692 C   0  0  0  0  0  0  0  0  0  0  0  0
    6.4329   13.1676   26.3353 N   0  0  0  0  0  0  0  0  0  0  0  0
    5.9311   11.9173   26.4129 C   0  0  0  0  0  0  0  0  0  0  0  0
    4.7255   11.7089   27.2817 C   0  0  0  0  0  0  0  0  0  0  0  0
    3.5549   12.6536   27.1714 C   0  0  0  0  0  0  0  0  0  0  0  0
    4.4401   12.7145   28.3790 C   0  0  0  0  0  0  0  0  0  0  0  0
    6.5540   10.8671   25.7645 C   0  0  0  0  0  0  0  0  0  0  0  0
    7.7523   11.0872   25.0707 C   0  0  0  0  0  0  0  0  0  0  0  0
    8.3203    9.8735   24.4553 C   0  0  0  0  0  0  0  0  0  0  0  0
    7.9540    8.7593   24.8014 O   0  0  0  0  0  0  0  0  0  0  0  0
    9.1737   10.1460   23.4503 O   0  0  0  0  0  0  0  0  0  0  0  0
    9.6917    8.9696   22.8384 C   0  0  0  0  0  0  0  0  0  0  0  0
  1  2  1  0
  2  3  1  0
  3  4  1  0
  4  5  2  0
  4  6  1  0
  6  7  1  0
  7  8  1  0
  7  9  1  0
  9 10  2  0
 10 11  1  0
 11 12  2  0
 12 13  1  0
 13 14  1  0
 14 15  1  0
 12 16  1  0
 16 17  2  0
 17 18  1  0
 18 19  2  0
 18 20  1  0
 20 21  1  0
 17  9  1  0
 15 13  1  0
M  END
>  <energy_score>  (1319) 
-28.523667

>  <inchikey>  (1319) 
HAJQORSFGXGTLO-UHFFFAOYSA-N

>  <smiles>  (1319) 
CCOC(=O)CN(N)c1cnc(C2CC2)cc1C(=O)OC

>  <ref_pdb>  (1319) 
A0528a

>  <alias>  (1319) 
HAJQORSFGXGTLO-UHFFFAOYSA-N-P308-P15-P308-601501

>  <HIPPO Pose ID>  (1319) 
501939

>  <name>  (1319) 
HAJQORSFGXGTLO-UHFFFAOYSA-N-P308-P15-P308-601501

>  <HIPPO Compound ID>  (1319) 
292683

>  <ref_mols>  (1319) 
A4331a,A0514a

>  <distance_score>  (1319) 
1.418024

>  <inspiration_score>  (1319) 
None

$$$$
GDCOTBQWPQJSED-UHFFFAOYSA-N-P308-P15-P308-601501
     RDKit          3D

 21 23  0  0  0  0  0  0  0  0999 V2000
    9.4911    8.6224   23.1075 C   0  0  0  0  0  0  0  0  0  0  0  0
    8.6122    9.4736   23.8321 O   0  0  0  0  0  0  0  0  0  0  0  0
    9.2375   10.4711   24.4987 C   0  0  0  0  0  0  0  0  0  0  0  0
   10.4405   10.6252   24.6344 O   0  0  0  0  0  0  0  0  0  0  0  0
    8.1906   11.3643   25.0299 C   0  0  0  0  0  0  0  0  0  0  0  0
    7.0477   10.8134   25.6282 C   0  0  0  0  0  0  0  0  0  0  0  0
    6.1235   11.6636   26.2237 C   0  0  0  0  0  0  0  0  0  0  0  0
    5.0125   11.1726   27.1119 C   0  0  0  0  0  0  0  0  0  0  0  0
    3.8156   12.0559   27.3988 C   0  0  0  0  0  0  0  0  0  0  0  0
    4.8535   11.8642   28.4565 C   0  0  0  0  0  0  0  0  0  0  0  0
    6.2639   13.0037   26.1401 N   0  0  0  0  0  0  0  0  0  0  0  0
    7.3396   13.5068   25.5187 C   0  0  0  0  0  0  0  0  0  0  0  0
    8.3681   12.7442   24.9871 C   0  0  0  0  0  0  0  0  0  0  0  0
    9.5179   13.3690   24.4426 N   0  0  0  0  0  0  0  0  0  0  0  0
   10.2060   14.1385   25.4209 N   0  0  0  0  0  0  0  0  0  0  0  0
    9.3481   14.0025   23.2281 C   0  0  0  0  0  0  0  0  0  0  0  0
    8.2955   13.9224   22.4301 N   0  0  0  0  0  0  0  0  0  0  0  0
    8.5895   14.7906   21.4208 C   0  0  0  0  0  0  0  0  0  0  0  0
    9.7721   15.3840   21.5014 N   0  0  0  0  0  0  0  0  0  0  0  0
   10.2720   14.8193   22.6120 N   0  0  0  0  0  0  0  0  0  0  0  0
   11.6160   15.1416   22.9946 C   0  0  0  0  0  0  0  0  0  0  0  0
  1  2  1  0
  2  3  1  0
  3  4  2  0
  3  5  1  0
  5  6  2  0
  6  7  1  0
  7  8  1  0
  8  9  1  0
  9 10  1  0
  7 11  2  0
 11 12  1  0
 12 13  2  0
 13 14  1  0
 14 15  1  0
 14 16  1  0
 16 17  2  0
 17 18  1  0
 18 19  2  0
 19 20  1  0
 20 21  1  0
 13  5  1  0
 20 16  1  0
 10  8  1  0
M  END
>  <energy_score>  (1320) 
-25.618146

>  <inchikey>  (1320) 
GDCOTBQWPQJSED-UHFFFAOYSA-N

>  <smiles>  (1320) 
COC(=O)c1cc(C2CC2)ncc1N(N)c1ncnn1C

>  <ref_pdb>  (1320) 
A0528a

>  <alias>  (1320) 
GDCOTBQWPQJSED-UHFFFAOYSA-N-P308-P15-P308-601501

>  <HIPPO Pose ID>  (1320) 
501943

>  <name>  (1320) 
GDCOTBQWPQJSED-UHFFFAOYSA-N-P308-P15-P308-601501

>  <HIPPO Compound ID>  (1320) 
292685

>  <ref_mols>  (1320) 
A4331a,A0514a

>  <distance_score>  (1320) 
1.6889

>  <inspiration_score>  (1320) 
None

$$$$
YNZIKHTYFZQIOA-UHFFFAOYSA-N-P308-P15-P308-601501
     RDKit          3D

 21 23  0  0  0  0  0  0  0  0999 V2000
    9.6815    8.7934   23.2038 C   0  0  0  0  0  0  0  0  0  0  0  0
    8.8093    9.8137   23.6765 O   0  0  0  0  0  0  0  0  0  0  0  0
    9.3989   10.8207   24.3642 C   0  0  0  0  0  0  0  0  0  0  0  0
   10.5700   10.9202   24.6880 O   0  0  0  0  0  0  0  0  0  0  0  0
    8.3082   11.7452   24.7213 C   0  0  0  0  0  0  0  0  0  0  0  0
    7.2191   11.2152   25.4207 C   0  0  0  0  0  0  0  0  0  0  0  0
    6.2337   12.0659   25.9016 C   0  0  0  0  0  0  0  0  0  0  0  0
    5.1923   11.5880   26.8792 C   0  0  0  0  0  0  0  0  0  0  0  0
    3.9718   12.4259   27.1832 C   0  0  0  0  0  0  0  0  0  0  0  0
    5.0781   12.3490   28.1878 C   0  0  0  0  0  0  0  0  0  0  0  0
    6.2497   13.3776   25.5994 N   0  0  0  0  0  0  0  0  0  0  0  0
    7.2868   13.8522   24.8928 C   0  0  0  0  0  0  0  0  0  0  0  0
    8.3939   13.1142   24.4930 C   0  0  0  0  0  0  0  0  0  0  0  0
    9.6164   13.7540   24.1952 N   0  0  0  0  0  0  0  0  0  0  0  0
   10.0829   14.4819   25.3829 C   0  0  0  0  0  0  0  0  0  0  0  0
    9.8852   14.2154   22.8703 N   0  0  0  0  0  0  0  0  0  0  0  0
    9.1491   15.4472   22.5061 C   0  0  0  0  0  0  0  0  0  0  0  0
    9.6129   16.0141   21.1547 C   0  0  0  0  0  0  0  0  0  0  0  0
   11.0149   16.2846   21.1700 O   0  0  0  0  0  0  0  0  0  0  0  0
   11.7273   15.0682   21.3823 C   0  0  0  0  0  0  0  0  0  0  0  0
   11.3436   14.4650   22.7316 C   0  0  0  0  0  0  0  0  0  0  0  0
  1  2  1  0
  2  3  1  0
  3  4  2  0
  3  5  1  0
  5  6  2  0
  6  7  1  0
  7  8  1  0
  8  9  1  0
  9 10  1  0
  7 11  2  0
 11 12  1  0
 12 13  2  0
 13 14  1  0
 14 15  1  0
 14 16  1  0
 16 17  1  0
 17 18  1  0
 18 19  1  0
 19 20  1  0
 20 21  1  0
 13  5  1  0
 21 16  1  0
 10  8  1  0
M  END
>  <energy_score>  (1321) 
-36.20467

>  <inchikey>  (1321) 
YNZIKHTYFZQIOA-UHFFFAOYSA-N

>  <smiles>  (1321) 
COC(=O)c1cc(C2CC2)ncc1N(C)N1CCOCC1

>  <ref_pdb>  (1321) 
A0528a

>  <alias>  (1321) 
YNZIKHTYFZQIOA-UHFFFAOYSA-N-P308-P15-P308-601501

>  <HIPPO Pose ID>  (1321) 
501947

>  <name>  (1321) 
YNZIKHTYFZQIOA-UHFFFAOYSA-N-P308-P15-P308-601501

>  <HIPPO Compound ID>  (1321) 
292687

>  <ref_mols>  (1321) 
A4331a,A0514a

>  <distance_score>  (1321) 
1.971111

>  <inspiration_score>  (1321) 
None

$$$$
KQAFYFLLOUMQMZ-UHFFFAOYSA-N-P15-P15-P308-601501
     RDKit          3D

 21 23  0  0  0  0  0  0  0  0999 V2000
    9.3443    8.7884   22.9547 C   0  0  0  0  0  0  0  0  0  0  0  0
    8.4754    9.7406   23.5742 O   0  0  0  0  0  0  0  0  0  0  0  0
    9.0646   10.9418   23.7974 C   0  0  0  0  0  0  0  0  0  0  0  0
   10.2103   11.2147   23.4993 O   0  0  0  0  0  0  0  0  0  0  0  0
    8.1412   11.8283   24.5484 C   0  0  0  0  0  0  0  0  0  0  0  0
    7.3298   11.1876   25.5046 C   0  0  0  0  0  0  0  0  0  0  0  0
    6.5715   11.9210   26.4101 C   0  0  0  0  0  0  0  0  0  0  0  0
    5.6376   11.2662   27.3924 C   0  0  0  0  0  0  0  0  0  0  0  0
    4.2989   11.9088   27.6819 C   0  0  0  0  0  0  0  0  0  0  0  0
    5.3818   11.9580   28.7153 C   0  0  0  0  0  0  0  0  0  0  0  0
    6.6825   13.2560   26.4668 N   0  0  0  0  0  0  0  0  0  0  0  0
    7.3923   13.8482   25.5018 C   0  0  0  0  0  0  0  0  0  0  0  0
    8.0849   13.2193   24.4584 C   0  0  0  0  0  0  0  0  0  0  0  0
    8.4697   14.0916   23.3956 N   0  0  0  0  0  0  0  0  0  0  0  0
    7.2202   14.5257   22.7350 C   0  0  0  0  0  0  0  0  0  0  0  0
    9.6241   13.8539   22.5788 N   0  0  0  0  0  0  0  0  0  0  0  0
    9.6643   14.8229   21.4457 C   0  0  0  0  0  0  0  0  0  0  0  0
   10.9702   14.9399   20.6705 C   0  0  0  0  0  0  0  0  0  0  0  0
   12.1734   15.0513   21.5787 C   0  0  0  0  0  0  0  0  0  0  0  0
   12.1194   13.9621   22.6310 C   0  0  0  0  0  0  0  0  0  0  0  0
   10.8250   14.0052   23.4173 C   0  0  0  0  0  0  0  0  0  0  0  0
  1  2  1  0
  2  3  1  0
  3  4  2  0
  3  5  1  0
  5  6  2  0
  6  7  1  0
  7  8  1  0
  8  9  1  0
  9 10  1  0
  7 11  2  0
 11 12  1  0
 12 13  2  0
 13 14  1  0
 14 15  1  0
 14 16  1  0
 16 17  1  0
 17 18  1  0
 18 19  1  0
 19 20  1  0
 20 21  1  0
 13  5  1  0
 21 16  1  0
 10  8  1  0
M  END
>  <energy_score>  (1322) 
-43.189611

>  <inchikey>  (1322) 
KQAFYFLLOUMQMZ-UHFFFAOYSA-N

>  <smiles>  (1322) 
COC(=O)c1cc(C2CC2)ncc1N(C)N1CCCCC1

>  <ref_pdb>  (1322) 
A0528a

>  <alias>  (1322) 
KQAFYFLLOUMQMZ-UHFFFAOYSA-N-P15-P15-P308-601501

>  <HIPPO Pose ID>  (1322) 
501948

>  <name>  (1322) 
KQAFYFLLOUMQMZ-UHFFFAOYSA-N-P15-P15-P308-601501

>  <HIPPO Compound ID>  (1322) 
292688

>  <ref_mols>  (1322) 
A4331a,A0514a

>  <distance_score>  (1322) 
1.60292

>  <inspiration_score>  (1322) 
None

$$$$
INCJOAKAPGBJCZ-UHFFFAOYSA-N-P308-P15-P308-601501
     RDKit          3D

 21 23  0  0  0  0  0  0  0  0999 V2000
    9.1122    8.6391   24.0364 C   0  0  0  0  0  0  0  0  0  0  0  0
    8.3798    9.7276   24.5957 O   0  0  0  0  0  0  0  0  0  0  0  0
    8.6345   10.8920   23.9563 C   0  0  0  0  0  0  0  0  0  0  0  0
    9.3769   11.0241   22.9996 O   0  0  0  0  0  0  0  0  0  0  0  0
    7.9091   12.0071   24.5990 C   0  0  0  0  0  0  0  0  0  0  0  0
    6.7051   11.7567   25.2563 C   0  0  0  0  0  0  0  0  0  0  0  0
    5.9919   12.8175   25.7940 C   0  0  0  0  0  0  0  0  0  0  0  0
    4.6750   12.6262   26.4787 C   0  0  0  0  0  0  0  0  0  0  0  0
    4.5169   11.7960   27.7223 C   0  0  0  0  0  0  0  0  0  0  0  0
    4.4889   13.2898   27.8271 C   0  0  0  0  0  0  0  0  0  0  0  0
    6.4400   14.0846   25.6935 N   0  0  0  0  0  0  0  0  0  0  0  0
    7.5994   14.2987   25.0506 C   0  0  0  0  0  0  0  0  0  0  0  0
    8.4010   13.3136   24.5040 C   0  0  0  0  0  0  0  0  0  0  0  0
    9.7082   13.6448   24.0886 N   0  0  0  0  0  0  0  0  0  0  0  0
   10.7327   12.9397   24.7473 N   0  0  0  0  0  0  0  0  0  0  0  0
   10.1187   14.5158   23.0433 C   0  0  0  0  0  0  0  0  0  0  0  0
   11.4381   14.9745   22.9707 C   0  0  0  0  0  0  0  0  0  0  0  0
   11.8357   15.7368   21.8927 C   0  0  0  0  0  0  0  0  0  0  0  0
   10.9927   16.0813   20.9064 N   0  0  0  0  0  0  0  0  0  0  0  0
    9.7007   15.6698   20.9641 N   0  0  0  0  0  0  0  0  0  0  0  0
    9.2854   14.9161   22.0085 C   0  0  0  0  0  0  0  0  0  0  0  0
  1  2  1  0
  2  3  1  0
  3  4  2  0
  3  5  1  0
  5  6  2  0
  6  7  1  0
  7  8  1  0
  8  9  1  0
  9 10  1  0
  7 11  2  0
 11 12  1  0
 12 13  2  0
 13 14  1  0
 14 15  1  0
 14 16  1  0
 16 17  2  0
 17 18  1  0
 18 19  2  0
 19 20  1  0
 20 21  2  0
 13  5  1  0
 21 16  1  0
 10  8  1  0
M  END
>  <energy_score>  (1323) 
-51.111967

>  <inchikey>  (1323) 
INCJOAKAPGBJCZ-UHFFFAOYSA-N

>  <smiles>  (1323) 
COC(=O)c1cc(C2CC2)ncc1N(N)c1ccnnc1

>  <ref_pdb>  (1323) 
A0528a

>  <alias>  (1323) 
INCJOAKAPGBJCZ-UHFFFAOYSA-N-P308-P15-P308-601501

>  <HIPPO Pose ID>  (1323) 
501953

>  <name>  (1323) 
INCJOAKAPGBJCZ-UHFFFAOYSA-N-P308-P15-P308-601501

>  <HIPPO Compound ID>  (1323) 
292690

>  <ref_mols>  (1323) 
A4331a,A0514a

>  <distance_score>  (1323) 
1.986713

>  <inspiration_score>  (1323) 
None

$$$$
BNBDXEBAHCKXCT-UHFFFAOYSA-N-P308-P15-P308-601501
     RDKit          3D

 21 22  0  0  0  0  0  0  0  0999 V2000
    9.2844    8.6013   23.1160 C   0  0  0  0  0  0  0  0  0  0  0  0
    8.5018    9.5730   23.8033 O   0  0  0  0  0  0  0  0  0  0  0  0
    9.2425   10.4362   24.5375 C   0  0  0  0  0  0  0  0  0  0  0  0
   10.4480   10.3798   24.7187 O   0  0  0  0  0  0  0  0  0  0  0  0
    8.3401   11.4899   25.0582 C   0  0  0  0  0  0  0  0  0  0  0  0
    7.0658   11.1439   25.5397 C   0  0  0  0  0  0  0  0  0  0  0  0
    6.2671   12.1438   26.0786 C   0  0  0  0  0  0  0  0  0  0  0  0
    4.8716   11.9518   26.5766 C   0  0  0  0  0  0  0  0  0  0  0  0
    4.4969   11.1097   27.7619 C   0  0  0  0  0  0  0  0  0  0  0  0
    4.5358   12.5979   27.9107 C   0  0  0  0  0  0  0  0  0  0  0  0
    6.7072   13.4177   26.1591 N   0  0  0  0  0  0  0  0  0  0  0  0
    7.9151   13.7274   25.6731 C   0  0  0  0  0  0  0  0  0  0  0  0
    8.7845   12.8189   25.0987 C   0  0  0  0  0  0  0  0  0  0  0  0
   10.0045   13.2388   24.5373 N   0  0  0  0  0  0  0  0  0  0  0  0
   10.8833   13.9995   25.3404 N   0  0  0  0  0  0  0  0  0  0  0  0
    9.8969   13.5819   23.0984 C   0  0  0  0  0  0  0  0  0  0  0  0
    9.5572   15.0459   22.8664 C   0  0  0  0  0  0  0  0  0  0  0  0
    9.4203   15.2953   21.3909 C   0  0  0  0  0  0  0  0  0  0  0  0
   10.5598   15.0114   20.7315 F   0  0  0  0  0  0  0  0  0  0  0  0
    8.4296   14.5312   20.8778 F   0  0  0  0  0  0  0  0  0  0  0  0
    9.1151   16.5857   21.1511 F   0  0  0  0  0  0  0  0  0  0  0  0
  1  2  1  0
  2  3  1  0
  3  4  2  0
  3  5  1  0
  5  6  2  0
  6  7  1  0
  7  8  1  0
  8  9  1  0
  9 10  1  0
  7 11  2  0
 11 12  1  0
 12 13  2  0
 13 14  1  0
 14 15  1  0
 14 16  1  0
 16 17  1  0
 17 18  1  0
 18 19  1  0
 18 20  1  0
 18 21  1  0
 13  5  1  0
 10  8  1  0
M  END
>  <energy_score>  (1324) 
-29.111889

>  <inchikey>  (1324) 
BNBDXEBAHCKXCT-UHFFFAOYSA-N

>  <smiles>  (1324) 
COC(=O)c1cc(C2CC2)ncc1N(N)CCC(F)(F)F

>  <ref_pdb>  (1324) 
A0528a

>  <alias>  (1324) 
BNBDXEBAHCKXCT-UHFFFAOYSA-N-P308-P15-P308-601501

>  <HIPPO Pose ID>  (1324) 
501961

>  <name>  (1324) 
BNBDXEBAHCKXCT-UHFFFAOYSA-N-P308-P15-P308-601501

>  <HIPPO Compound ID>  (1324) 
292694

>  <ref_mols>  (1324) 
A4331a,A0514a

>  <distance_score>  (1324) 
1.489547

>  <inspiration_score>  (1324) 
None

$$$$
KQEFTEXTEAQHDR-UHFFFAOYSA-N-P308-P15-P308-601501
     RDKit          3D

 21 23  0  0  0  0  0  0  0  0999 V2000
    9.5380    8.6598   23.2426 C   0  0  0  0  0  0  0  0  0  0  0  0
    8.6745    9.6284   23.8265 O   0  0  0  0  0  0  0  0  0  0  0  0
    9.3234   10.6445   24.4403 C   0  0  0  0  0  0  0  0  0  0  0  0
   10.5260   10.7513   24.6216 O   0  0  0  0  0  0  0  0  0  0  0  0
    8.3039   11.6523   24.8000 C   0  0  0  0  0  0  0  0  0  0  0  0
    7.1573   11.2350   25.4693 C   0  0  0  0  0  0  0  0  0  0  0  0
    6.2276   12.1825   25.8724 C   0  0  0  0  0  0  0  0  0  0  0  0
    5.0895   11.8013   26.7772 C   0  0  0  0  0  0  0  0  0  0  0  0
    5.0530   12.3696   28.1777 C   0  0  0  0  0  0  0  0  0  0  0  0
    4.0520   12.8313   27.1651 C   0  0  0  0  0  0  0  0  0  0  0  0
    6.3630   13.4804   25.5261 N   0  0  0  0  0  0  0  0  0  0  0  0
    7.4615   13.8508   24.8471 C   0  0  0  0  0  0  0  0  0  0  0  0
    8.5043   13.0049   24.5186 C   0  0  0  0  0  0  0  0  0  0  0  0
    9.7615   13.5220   24.1720 N   0  0  0  0  0  0  0  0  0  0  0  0
   10.6854   13.4230   25.2632 N   0  0  0  0  0  0  0  0  0  0  0  0
   10.1068   14.4053   23.1138 C   0  0  0  0  0  0  0  0  0  0  0  0
   11.3288   14.9991   23.1944 N   0  0  0  0  0  0  0  0  0  0  0  0
   11.7966   15.7303   22.1656 N   0  0  0  0  0  0  0  0  0  0  0  0
   11.0123   15.8443   21.0873 C   0  0  0  0  0  0  0  0  0  0  0  0
    9.7860   15.3045   20.9882 N   0  0  0  0  0  0  0  0  0  0  0  0
    9.3170   14.5737   22.0343 N   0  0  0  0  0  0  0  0  0  0  0  0
  1  2  1  0
  2  3  1  0
  3  4  2  0
  3  5  1  0
  5  6  2  0
  6  7  1  0
  7  8  1  0
  8  9  1  0
  9 10  1  0
  7 11  2  0
 11 12  1  0
 12 13  2  0
 13 14  1  0
 14 15  1  0
 14 16  1  0
 16 17  2  0
 17 18  1  0
 18 19  2  0
 19 20  1  0
 20 21  2  0
 13  5  1  0
 21 16  1  0
 10  8  1  0
M  END
>  <energy_score>  (1325) 
-51.343942

>  <inchikey>  (1325) 
KQEFTEXTEAQHDR-UHFFFAOYSA-N

>  <smiles>  (1325) 
COC(=O)c1cc(C2CC2)ncc1N(N)c1nncnn1

>  <ref_pdb>  (1325) 
A0528a

>  <alias>  (1325) 
KQEFTEXTEAQHDR-UHFFFAOYSA-N-P308-P15-P308-601501

>  <HIPPO Pose ID>  (1325) 
501963

>  <name>  (1325) 
KQEFTEXTEAQHDR-UHFFFAOYSA-N-P308-P15-P308-601501

>  <HIPPO Compound ID>  (1325) 
292695

>  <ref_mols>  (1325) 
A4331a,A0514a

>  <distance_score>  (1325) 
1.984575

>  <inspiration_score>  (1325) 
None

$$$$
LXUMTLYATGDROJ-UHFFFAOYSA-N-P308-P15-P308-601501
     RDKit          3D

 21 23  0  0  0  0  0  0  0  0999 V2000
    9.6125    8.4596   23.4871 C   0  0  0  0  0  0  0  0  0  0  0  0
    8.8335    9.3076   24.3227 O   0  0  0  0  0  0  0  0  0  0  0  0
    8.8345   10.5868   23.8827 C   0  0  0  0  0  0  0  0  0  0  0  0
    9.3847   10.9844   22.8685 O   0  0  0  0  0  0  0  0  0  0  0  0
    8.0746   11.4523   24.8056 C   0  0  0  0  0  0  0  0  0  0  0  0
    6.9692   10.9209   25.4850 C   0  0  0  0  0  0  0  0  0  0  0  0
    6.1806   11.7689   26.2481 C   0  0  0  0  0  0  0  0  0  0  0  0
    5.0100   11.2870   27.0576 C   0  0  0  0  0  0  0  0  0  0  0  0
    4.8065   11.8308   28.4555 C   0  0  0  0  0  0  0  0  0  0  0  0
    3.8853   12.2609   27.3585 C   0  0  0  0  0  0  0  0  0  0  0  0
    6.4556   13.0906   26.3185 N   0  0  0  0  0  0  0  0  0  0  0  0
    7.5091   13.5790   25.6459 C   0  0  0  0  0  0  0  0  0  0  0  0
    8.3872   12.8151   24.8990 C   0  0  0  0  0  0  0  0  0  0  0  0
    9.5134   13.4350   24.3087 N   0  0  0  0  0  0  0  0  0  0  0  0
   10.7526   12.7736   24.4764 N   0  0  0  0  0  0  0  0  0  0  0  0
    9.4384   14.6885   23.5901 C   0  0  0  0  0  0  0  0  0  0  0  0
    8.5316   14.6160   22.3392 C   0  0  0  0  0  0  0  0  0  0  0  0
    9.5832   15.4947   21.6208 C   0  0  0  0  0  0  0  0  0  0  0  0
    9.3562   16.8251   21.6761 F   0  0  0  0  0  0  0  0  0  0  0  0
    9.8563   15.1943   20.3348 F   0  0  0  0  0  0  0  0  0  0  0  0
   10.6136   14.9656   22.6306 C   0  0  0  0  0  0  0  0  0  0  0  0
  1  2  1  0
  2  3  1  0
  3  4  2  0
  3  5  1  0
  5  6  2  0
  6  7  1  0
  7  8  1  0
  8  9  1  0
  9 10  1  0
  7 11  2  0
 11 12  1  0
 12 13  2  0
 13 14  1  0
 14 15  1  0
 14 16  1  0
 16 17  1  0
 17 18  1  0
 18 19  1  0
 18 20  1  0
 18 21  1  0
 13  5  1  0
 21 16  1  0
 10  8  1  0
M  END
>  <energy_score>  (1326) 
-33.186146

>  <inchikey>  (1326) 
LXUMTLYATGDROJ-UHFFFAOYSA-N

>  <smiles>  (1326) 
COC(=O)c1cc(C2CC2)ncc1N(N)C1CC(F)(F)C1

>  <ref_pdb>  (1326) 
A0528a

>  <alias>  (1326) 
LXUMTLYATGDROJ-UHFFFAOYSA-N-P308-P15-P308-601501

>  <HIPPO Pose ID>  (1326) 
501967

>  <name>  (1326) 
LXUMTLYATGDROJ-UHFFFAOYSA-N-P308-P15-P308-601501

>  <HIPPO Compound ID>  (1326) 
292697

>  <ref_mols>  (1326) 
A4331a,A0514a

>  <distance_score>  (1326) 
1.52777

>  <inspiration_score>  (1326) 
None

$$$$
QIQZGZNOCGQESG-UHFFFAOYSA-N-P15-P15-P308-601501
     RDKit          3D

 21 22  0  0  0  0  0  0  0  0999 V2000
    9.2977    8.4557   22.9402 C   0  0  0  0  0  0  0  0  0  0  0  0
    8.4736    9.2512   23.7891 O   0  0  0  0  0  0  0  0  0  0  0  0
    8.9491   10.5065   23.9501 C   0  0  0  0  0  0  0  0  0  0  0  0
    9.9784   10.9254   23.4505 O   0  0  0  0  0  0  0  0  0  0  0  0
    8.0605   11.2975   24.8409 C   0  0  0  0  0  0  0  0  0  0  0  0
    6.9866   10.6883   25.5074 C   0  0  0  0  0  0  0  0  0  0  0  0
    6.2442   11.4308   26.4182 C   0  0  0  0  0  0  0  0  0  0  0  0
    5.1380   10.8466   27.2477 C   0  0  0  0  0  0  0  0  0  0  0  0
    5.0500   11.2161   28.7116 C   0  0  0  0  0  0  0  0  0  0  0  0
    4.0464   11.7755   27.7526 C   0  0  0  0  0  0  0  0  0  0  0  0
    6.5320   12.7279   26.6562 N   0  0  0  0  0  0  0  0  0  0  0  0
    7.5354   13.3041   25.9864 C   0  0  0  0  0  0  0  0  0  0  0  0
    8.3553   12.6470   25.0813 C   0  0  0  0  0  0  0  0  0  0  0  0
    9.4183   13.3381   24.4530 N   0  0  0  0  0  0  0  0  0  0  0  0
   10.1918   14.2008   25.2823 N   0  0  0  0  0  0  0  0  0  0  0  0
    9.0197   13.8218   23.0863 C   0  0  1  0  0  0  0  0  0  0  0  0
    7.8031   14.7574   23.1747 C   0  0  0  0  0  0  0  0  0  0  0  0
   10.2701   14.3354   22.3469 C   0  0  0  0  0  0  0  0  0  0  0  0
    9.9553   14.8326   20.9813 C   0  0  0  0  0  0  0  0  0  0  0  0
    8.8421   14.8680   20.4897 O   0  0  0  0  0  0  0  0  0  0  0  0
   11.0434   15.2281   20.3019 O   0  0  0  0  0  0  0  0  0  0  0  0
  1  2  1  0
  2  3  1  0
  3  4  2  0
  3  5  1  0
  5  6  2  0
  6  7  1  0
  7  8  1  0
  8  9  1  0
  9 10  1  0
  7 11  2  0
 11 12  1  0
 12 13  2  0
 13 14  1  0
 14 15  1  0
 14 16  1  0
 16 17  1  1
 16 18  1  0
 18 19  1  0
 19 20  2  0
 19 21  1  0
 13  5  1  0
 10  8  1  0
M  END
>  <energy_score>  (1327) 
-45.992379

>  <inchikey>  (1327) 
QIQZGZNOCGQESG-UHFFFAOYSA-N

>  <smiles>  (1327) 
COC(=O)c1cc(C2CC2)ncc1N(N)C(C)CC(=O)O

>  <ref_pdb>  (1327) 
A0528a

>  <alias>  (1327) 
QIQZGZNOCGQESG-UHFFFAOYSA-N-P15-P15-P308-601501

>  <HIPPO Pose ID>  (1327) 
501970

>  <name>  (1327) 
QIQZGZNOCGQESG-UHFFFAOYSA-N-P15-P15-P308-601501

>  <HIPPO Compound ID>  (1327) 
292699

>  <ref_mols>  (1327) 
A4331a,A0514a

>  <distance_score>  (1327) 
1.610956

>  <inspiration_score>  (1327) 
None

$$$$
HZRFJHDUCCNJLK-UHFFFAOYSA-N-P308-P15-P308-601501
     RDKit          3D

 21 23  0  0  0  0  0  0  0  0999 V2000
    9.1909    8.4323   23.8503 C   0  0  0  0  0  0  0  0  0  0  0  0
    8.4398    9.4273   24.5331 O   0  0  0  0  0  0  0  0  0  0  0  0
    8.5816   10.6360   23.9542 C   0  0  0  0  0  0  0  0  0  0  0  0
    9.2310   10.8734   22.9512 O   0  0  0  0  0  0  0  0  0  0  0  0
    7.9023   11.6554   24.7665 C   0  0  0  0  0  0  0  0  0  0  0  0
    6.6864   11.3325   25.3842 C   0  0  0  0  0  0  0  0  0  0  0  0
    5.9944   12.3327   26.0467 C   0  0  0  0  0  0  0  0  0  0  0  0
    4.6647   12.1405   26.6982 C   0  0  0  0  0  0  0  0  0  0  0  0
    4.4212   11.1899   27.8342 C   0  0  0  0  0  0  0  0  0  0  0  0
    4.5247   12.6570   28.1172 C   0  0  0  0  0  0  0  0  0  0  0  0
    6.4787   13.5914   26.1082 N   0  0  0  0  0  0  0  0  0  0  0  0
    7.6469   13.8721   25.5098 C   0  0  0  0  0  0  0  0  0  0  0  0
    8.4338   12.9464   24.8469 C   0  0  0  0  0  0  0  0  0  0  0  0
    9.7224   13.3613   24.4447 N   0  0  0  0  0  0  0  0  0  0  0  0
   10.8035   12.4485   24.5476 N   0  0  0  0  0  0  0  0  0  0  0  0
    9.9616   14.2218   23.4026 C   0  0  0  0  0  0  0  0  0  0  0  0
   11.0977   14.9984   23.2471 C   0  0  0  0  0  0  0  0  0  0  0  0
   11.2420   15.6702   22.0630 N   0  0  0  0  0  0  0  0  0  0  0  0
   10.2347   15.3822   21.2737 C   0  0  0  0  0  0  0  0  0  0  0  0
   10.1917   15.8109   19.8485 C   0  0  0  0  0  0  0  0  0  0  0  0
    8.9621   14.4784   22.0175 S   0  0  0  0  0  0  0  0  0  0  0  0
  1  2  1  0
  2  3  1  0
  3  4  2  0
  3  5  1  0
  5  6  2  0
  6  7  1  0
  7  8  1  0
  8  9  1  0
  9 10  1  0
  7 11  2  0
 11 12  1  0
 12 13  2  0
 13 14  1  0
 14 15  1  0
 14 16  1  0
 16 17  2  0
 17 18  1  0
 18 19  2  0
 19 20  1  0
 19 21  1  0
 13  5  1  0
 21 16  1  0
 10  8  1  0
M  END
>  <energy_score>  (1328) 
-111.930991

>  <inchikey>  (1328) 
HZRFJHDUCCNJLK-UHFFFAOYSA-N

>  <smiles>  (1328) 
COC(=O)c1cc(C2CC2)ncc1N(N)c1cnc(C)s1

>  <ref_pdb>  (1328) 
A0528a

>  <alias>  (1328) 
HZRFJHDUCCNJLK-UHFFFAOYSA-N-P308-P15-P308-601501

>  <HIPPO Pose ID>  (1328) 
501973

>  <name>  (1328) 
HZRFJHDUCCNJLK-UHFFFAOYSA-N-P308-P15-P308-601501

>  <HIPPO Compound ID>  (1328) 
292700

>  <ref_mols>  (1328) 
A4331a,A0514a

>  <distance_score>  (1328) 
1.641319

>  <inspiration_score>  (1328) 
None

$$$$
OGTYORLFLSQHDR-UHFFFAOYSA-N-P308-P15-P308-601501
     RDKit          3D

 21 22  0  0  0  0  0  0  0  0999 V2000
    9.4743    8.6288   23.0923 C   0  0  0  0  0  0  0  0  0  0  0  0
    8.6451    9.5545   23.7854 O   0  0  0  0  0  0  0  0  0  0  0  0
    9.3296   10.4892   24.4852 C   0  0  0  0  0  0  0  0  0  0  0  0
   10.5392   10.5690   24.6194 O   0  0  0  0  0  0  0  0  0  0  0  0
    8.3356   11.4422   25.0257 C   0  0  0  0  0  0  0  0  0  0  0  0
    7.1412   10.9415   25.5663 C   0  0  0  0  0  0  0  0  0  0  0  0
    6.2604   11.8227   26.1766 C   0  0  0  0  0  0  0  0  0  0  0  0
    5.0757   11.3627   26.9826 C   0  0  0  0  0  0  0  0  0  0  0  0
    3.8978   12.2886   27.2020 C   0  0  0  0  0  0  0  0  0  0  0  0
    4.8500   12.0348   28.3264 C   0  0  0  0  0  0  0  0  0  0  0  0
    6.5068   13.1518   26.1794 N   0  0  0  0  0  0  0  0  0  0  0  0
    7.6492   13.6101   25.6407 C   0  0  0  0  0  0  0  0  0  0  0  0
    8.6268   12.8097   25.0758 C   0  0  0  0  0  0  0  0  0  0  0  0
    9.8381   13.3576   24.6138 N   0  0  0  0  0  0  0  0  0  0  0  0
   10.4459   14.3322   25.4491 N   0  0  0  0  0  0  0  0  0  0  0  0
    9.8468   13.5929   23.1531 C   0  0  0  0  0  0  0  0  0  0  0  0
    9.3329   14.9826   22.7758 C   0  0  0  0  0  0  0  0  0  0  0  0
    9.5040   15.3112   21.2945 C   0  0  0  0  0  0  0  0  0  0  0  0
   10.9406   15.2336   20.8066 C   0  0  0  0  0  0  0  0  0  0  0  0
   11.0240   15.7761   19.5711 F   0  0  0  0  0  0  0  0  0  0  0  0
   11.7383   15.9659   21.6254 F   0  0  0  0  0  0  0  0  0  0  0  0
  1  2  1  0
  2  3  1  0
  3  4  2  0
  3  5  1  0
  5  6  2  0
  6  7  1  0
  7  8  1  0
  8  9  1  0
  9 10  1  0
  7 11  2  0
 11 12  1  0
 12 13  2  0
 13 14  1  0
 14 15  1  0
 14 16  1  0
 16 17  1  0
 17 18  1  0
 18 19  1  0
 19 20  1  0
 19 21  1  0
 13  5  1  0
 10  8  1  0
M  END
>  <energy_score>  (1329) 
-38.355832

>  <inchikey>  (1329) 
OGTYORLFLSQHDR-UHFFFAOYSA-N

>  <smiles>  (1329) 
COC(=O)c1cc(C2CC2)ncc1N(N)CCCC(F)F

>  <ref_pdb>  (1329) 
A0528a

>  <alias>  (1329) 
OGTYORLFLSQHDR-UHFFFAOYSA-N-P308-P15-P308-601501

>  <HIPPO Pose ID>  (1329) 
501977

>  <name>  (1329) 
OGTYORLFLSQHDR-UHFFFAOYSA-N-P308-P15-P308-601501

>  <HIPPO Compound ID>  (1329) 
292702

>  <ref_mols>  (1329) 
A4331a,A0514a

>  <distance_score>  (1329) 
1.36327

>  <inspiration_score>  (1329) 
None

$$$$
RATLKYKTFXNPCC-UHFFFAOYSA-N-P15-P15-P308-601501
     RDKit          3D

 21 22  0  0  0  0  0  0  0  0999 V2000
    9.2328    8.8182   23.1370 C   0  0  0  0  0  0  0  0  0  0  0  0
    8.4055    9.6562   23.9573 O   0  0  0  0  0  0  0  0  0  0  0  0
    8.8492   10.9294   24.0745 C   0  0  0  0  0  0  0  0  0  0  0  0
    9.8592   11.3654   23.5474 O   0  0  0  0  0  0  0  0  0  0  0  0
    7.9815   11.7332   24.9864 C   0  0  0  0  0  0  0  0  0  0  0  0
    7.0812   11.0544   25.8262 C   0  0  0  0  0  0  0  0  0  0  0  0
    6.3737   11.7718   26.7845 C   0  0  0  0  0  0  0  0  0  0  0  0
    5.5913   11.1579   27.8972 C   0  0  0  0  0  0  0  0  0  0  0  0
    4.5917   10.0676   27.7270 C   0  0  0  0  0  0  0  0  0  0  0  0
    4.1185   11.4820   27.9293 C   0  0  0  0  0  0  0  0  0  0  0  0
    6.4667   13.1106   26.8692 N   0  0  0  0  0  0  0  0  0  0  0  0
    7.2764   13.7525   26.0212 C   0  0  0  0  0  0  0  0  0  0  0  0
    8.0862   13.1401   25.0744 C   0  0  0  0  0  0  0  0  0  0  0  0
    8.9182   13.9943   24.3091 N   0  0  0  0  0  0  0  0  0  0  0  0
   10.3125   13.7466   24.4075 N   0  0  0  0  0  0  0  0  0  0  0  0
    8.2449   14.6493   23.0885 C   0  0  0  0  0  0  0  0  0  0  0  0
    7.2850   15.7731   23.5255 C   0  0  0  0  0  0  0  0  0  0  0  0
    7.3621   13.6516   22.3945 C   0  0  0  0  0  0  0  0  0  0  0  0
    9.2252   15.0634   21.9398 C   0  0  0  0  0  0  0  0  0  0  0  0
    8.8634   15.4508   20.8379 O   0  0  0  0  0  0  0  0  0  0  0  0
   10.5376   14.9168   22.2103 O   0  0  0  0  0  0  0  0  0  0  0  0
  1  2  1  0
  2  3  1  0
  3  4  2  0
  3  5  1  0
  5  6  2  0
  6  7  1  0
  7  8  1  0
  8  9  1  0
  9 10  1  0
  7 11  2  0
 11 12  1  0
 12 13  2  0
 13 14  1  0
 14 15  1  0
 14 16  1  0
 16 17  1  0
 16 18  1  0
 16 19  1  0
 19 20  2  0
 19 21  1  0
 13  5  1  0
 10  8  1  0
M  END
>  <energy_score>  (1330) 
-43.103847

>  <inchikey>  (1330) 
RATLKYKTFXNPCC-UHFFFAOYSA-N

>  <smiles>  (1330) 
COC(=O)c1cc(C2CC2)ncc1N(N)C(C)(C)C(=O)O

>  <ref_pdb>  (1330) 
A0528a

>  <alias>  (1330) 
RATLKYKTFXNPCC-UHFFFAOYSA-N-P15-P15-P308-601501

>  <HIPPO Pose ID>  (1330) 
501978

>  <name>  (1330) 
RATLKYKTFXNPCC-UHFFFAOYSA-N-P15-P15-P308-601501

>  <HIPPO Compound ID>  (1330) 
292703

>  <ref_mols>  (1330) 
A4331a,A0514a

>  <distance_score>  (1330) 
1.662001

>  <inspiration_score>  (1330) 
None

$$$$
RPYJVMKPRRIJEF-UHFFFAOYSA-N-P308-P15-P308-601501
     RDKit          3D

 21 22  0  0  0  0  0  0  0  0999 V2000
    9.1836    8.6874   23.2727 C   0  0  0  0  0  0  0  0  0  0  0  0
    8.3028    9.5640   23.9777 O   0  0  0  0  0  0  0  0  0  0  0  0
    8.9513   10.5530   24.6312 C   0  0  0  0  0  0  0  0  0  0  0  0
   10.1610   10.6790   24.7550 O   0  0  0  0  0  0  0  0  0  0  0  0
    7.9507   11.4923   25.1880 C   0  0  0  0  0  0  0  0  0  0  0  0
    6.8838   11.0073   25.9507 C   0  0  0  0  0  0  0  0  0  0  0  0
    6.0993   11.9228   26.6497 C   0  0  0  0  0  0  0  0  0  0  0  0
    5.1817   11.5866   27.7800 C   0  0  0  0  0  0  0  0  0  0  0  0
    4.2231   10.4486   27.7867 C   0  0  0  0  0  0  0  0  0  0  0  0
    3.7177   11.8562   27.5835 C   0  0  0  0  0  0  0  0  0  0  0  0
    6.2561   13.2509   26.4940 N   0  0  0  0  0  0  0  0  0  0  0  0
    7.2363   13.6880   25.7004 C   0  0  0  0  0  0  0  0  0  0  0  0
    8.1389   12.8688   25.0389 C   0  0  0  0  0  0  0  0  0  0  0  0
    9.2054   13.4140   24.3037 N   0  0  0  0  0  0  0  0  0  0  0  0
   10.4026   13.4689   25.0723 N   0  0  0  0  0  0  0  0  0  0  0  0
    8.8617   14.5590   23.4018 C   0  0  2  0  0  0  0  0  0  0  0  0
    7.6589   14.1743   22.5066 C   0  0  0  0  0  0  0  0  0  0  0  0
   10.0943   15.0422   22.5506 C   0  0  0  0  0  0  0  0  0  0  0  0
   11.0364   15.9075   23.4048 C   0  0  0  0  0  0  0  0  0  0  0  0
   10.9124   13.8778   21.9817 C   0  0  0  0  0  0  0  0  0  0  0  0
    9.6345   15.9174   21.3636 C   0  0  0  0  0  0  0  0  0  0  0  0
  1  2  1  0
  2  3  1  0
  3  4  2  0
  3  5  1  0
  5  6  2  0
  6  7  1  0
  7  8  1  0
  8  9  1  0
  9 10  1  0
  7 11  2  0
 11 12  1  0
 12 13  2  0
 13 14  1  0
 14 15  1  0
 14 16  1  0
 16 17  1  6
 16 18  1  0
 18 19  1  0
 18 20  1  0
 18 21  1  0
 13  5  1  0
 10  8  1  0
M  END
>  <energy_score>  (1331) 
-45.219512

>  <inchikey>  (1331) 
RPYJVMKPRRIJEF-UHFFFAOYSA-N

>  <smiles>  (1331) 
COC(=O)c1cc(C2CC2)ncc1N(N)C(C)C(C)(C)C

>  <ref_pdb>  (1331) 
A0528a

>  <alias>  (1331) 
RPYJVMKPRRIJEF-UHFFFAOYSA-N-P308-P15-P308-601501

>  <HIPPO Pose ID>  (1331) 
501985

>  <name>  (1331) 
RPYJVMKPRRIJEF-UHFFFAOYSA-N-P308-P15-P308-601501

>  <HIPPO Compound ID>  (1331) 
292706

>  <ref_mols>  (1331) 
A4331a,A0514a

>  <distance_score>  (1331) 
1.583796

>  <inspiration_score>  (1331) 
None

$$$$
ZLZFDSUGPROCDK-UHFFFAOYSA-N-P15-P15-P308-601501
     RDKit          3D

 21 23  0  0  0  0  0  0  0  0999 V2000
    9.3844    8.4516   23.3976 C   0  0  0  0  0  0  0  0  0  0  0  0
    8.5772    9.2164   24.2981 O   0  0  0  0  0  0  0  0  0  0  0  0
    8.5727   10.5208   23.9472 C   0  0  0  0  0  0  0  0  0  0  0  0
    9.1021   10.9674   22.9448 O   0  0  0  0  0  0  0  0  0  0  0  0
    7.8680   11.3613   24.9337 C   0  0  0  0  0  0  0  0  0  0  0  0
    6.7704   10.8907   25.6599 C   0  0  0  0  0  0  0  0  0  0  0  0
    6.1159   11.7814   26.5077 C   0  0  0  0  0  0  0  0  0  0  0  0
    4.8914   11.4672   27.2960 C   0  0  0  0  0  0  0  0  0  0  0  0
    4.8526   10.4238   28.3676 C   0  0  0  0  0  0  0  0  0  0  0  0
    4.8944   11.8702   28.7574 C   0  0  0  0  0  0  0  0  0  0  0  0
    6.5371   13.0532   26.6723 N   0  0  0  0  0  0  0  0  0  0  0  0
    7.5827   13.4776   25.9623 C   0  0  0  0  0  0  0  0  0  0  0  0
    8.2869   12.6894   25.0692 C   0  0  0  0  0  0  0  0  0  0  0  0
    9.3628   13.2164   24.3320 N   0  0  0  0  0  0  0  0  0  0  0  0
   10.5614   13.2720   25.0871 N   0  0  0  0  0  0  0  0  0  0  0  0
    8.9900   14.3820   23.4972 C   0  0  2  0  0  0  0  0  0  0  0  0
    7.6868   14.1753   22.7006 C   0  0  0  0  0  0  0  0  0  0  0  0
   10.0790   14.7970   22.4913 C   0  0  0  0  0  0  0  0  0  0  0  0
   11.6457   14.8916   22.6673 C   0  0  0  0  0  0  0  0  0  0  0  0
   11.7082   14.5372   21.1712 C   0  0  0  0  0  0  0  0  0  0  0  0
   10.4166   13.7612   21.4464 C   0  0  0  0  0  0  0  0  0  0  0  0
  1  2  1  0
  2  3  1  0
  3  4  2  0
  3  5  1  0
  5  6  2  0
  6  7  1  0
  7  8  1  0
  8  9  1  0
  9 10  1  0
  7 11  2  0
 11 12  1  0
 12 13  2  0
 13 14  1  0
 14 15  1  0
 14 16  1  0
 16 17  1  6
 16 18  1  0
 18 19  1  0
 19 20  1  0
 20 21  1  0
 13  5  1  0
 21 18  1  0
 10  8  1  0
M  END
>  <energy_score>  (1332) 
-55.379644

>  <inchikey>  (1332) 
ZLZFDSUGPROCDK-UHFFFAOYSA-N

>  <smiles>  (1332) 
COC(=O)c1cc(C2CC2)ncc1N(N)C(C)C1CCC1

>  <ref_pdb>  (1332) 
A0528a

>  <alias>  (1332) 
ZLZFDSUGPROCDK-UHFFFAOYSA-N-P15-P15-P308-601501

>  <HIPPO Pose ID>  (1332) 
501990

>  <name>  (1332) 
ZLZFDSUGPROCDK-UHFFFAOYSA-N-P15-P15-P308-601501

>  <HIPPO Compound ID>  (1332) 
292709

>  <ref_mols>  (1332) 
A4331a,A0514a

>  <distance_score>  (1332) 
1.535998

>  <inspiration_score>  (1332) 
None

$$$$
QPPYNFSHWBHVED-UHFFFAOYSA-N-P308-P15-P308-601501
     RDKit          3D

 21 23  0  0  0  0  0  0  0  0999 V2000
    9.5025    8.7086   23.0964 C   0  0  0  0  0  0  0  0  0  0  0  0
    8.6797    9.6567   23.7660 O   0  0  0  0  0  0  0  0  0  0  0  0
    9.3575   10.5583   24.5147 C   0  0  0  0  0  0  0  0  0  0  0  0
   10.5617   10.5925   24.7154 O   0  0  0  0  0  0  0  0  0  0  0  0
    8.3648   11.4987   25.0748 C   0  0  0  0  0  0  0  0  0  0  0  0
    7.1954   10.9726   25.6429 C   0  0  0  0  0  0  0  0  0  0  0  0
    6.2833   11.8400   26.2249 C   0  0  0  0  0  0  0  0  0  0  0  0
    5.0698   11.3616   26.9706 C   0  0  0  0  0  0  0  0  0  0  0  0
    4.8291   11.8749   28.3740 C   0  0  0  0  0  0  0  0  0  0  0  0
    3.9488   12.3431   27.2591 C   0  0  0  0  0  0  0  0  0  0  0  0
    6.4988   13.1737   26.2121 N   0  0  0  0  0  0  0  0  0  0  0  0
    7.5999   13.6581   25.6161 C   0  0  0  0  0  0  0  0  0  0  0  0
    8.5849   12.8792   25.0364 C   0  0  0  0  0  0  0  0  0  0  0  0
    9.6749   13.4873   24.4190 N   0  0  0  0  0  0  0  0  0  0  0  0
   10.9157   13.4174   25.0825 N   0  0  0  0  0  0  0  0  0  0  0  0
    9.5098   14.2337   23.1391 C   0  0  0  0  0  0  0  0  0  0  0  0
    8.1801   13.8748   22.4334 C   0  0  0  0  0  0  0  0  0  0  0  0
   10.7188   13.9924   22.2119 C   0  0  0  0  0  0  0  0  0  0  0  0
   10.6975   15.1335   21.2054 C   0  0  0  0  0  0  0  0  0  0  0  0
    9.9619   16.2674   21.9149 C   0  0  0  0  0  0  0  0  0  0  0  0
    9.6130   15.7490   23.3152 C   0  0  0  0  0  0  0  0  0  0  0  0
  1  2  1  0
  2  3  1  0
  3  4  2  0
  3  5  1  0
  5  6  2  0
  6  7  1  0
  7  8  1  0
  8  9  1  0
  9 10  1  0
  7 11  2  0
 11 12  1  0
 12 13  2  0
 13 14  1  0
 14 15  1  0
 14 16  1  0
 16 17  1  0
 16 18  1  0
 18 19  1  0
 19 20  1  0
 20 21  1  0
 13  5  1  0
 21 16  1  0
 10  8  1  0
M  END
>  <energy_score>  (1333) 
-34.430078

>  <inchikey>  (1333) 
QPPYNFSHWBHVED-UHFFFAOYSA-N

>  <smiles>  (1333) 
COC(=O)c1cc(C2CC2)ncc1N(N)C1(C)CCCC1

>  <ref_pdb>  (1333) 
A0528a

>  <alias>  (1333) 
QPPYNFSHWBHVED-UHFFFAOYSA-N-P308-P15-P308-601501

>  <HIPPO Pose ID>  (1333) 
501993

>  <name>  (1333) 
QPPYNFSHWBHVED-UHFFFAOYSA-N-P308-P15-P308-601501

>  <HIPPO Compound ID>  (1333) 
292710

>  <ref_mols>  (1333) 
A4331a,A0514a

>  <distance_score>  (1333) 
1.60139

>  <inspiration_score>  (1333) 
None

$$$$
MRLCEMFEWNZJJS-UHFFFAOYSA-N-P308-P15-P308-601501
     RDKit          3D

 21 23  0  0  0  0  0  0  0  0999 V2000
    9.3619    8.6006   23.0695 C   0  0  0  0  0  0  0  0  0  0  0  0
    8.5382    9.5085   23.7938 O   0  0  0  0  0  0  0  0  0  0  0  0
    9.2362   10.4894   24.4088 C   0  0  0  0  0  0  0  0  0  0  0  0
   10.4489   10.6101   24.4393 O   0  0  0  0  0  0  0  0  0  0  0  0
    8.2793   11.4355   25.0197 C   0  0  0  0  0  0  0  0  0  0  0  0
    7.1210   10.9190   25.6211 C   0  0  0  0  0  0  0  0  0  0  0  0
    6.2416   11.7865   26.2533 C   0  0  0  0  0  0  0  0  0  0  0  0
    5.0358   11.3110   27.0131 C   0  0  0  0  0  0  0  0  0  0  0  0
    4.8039   11.8316   28.4155 C   0  0  0  0  0  0  0  0  0  0  0  0
    3.9170   12.2948   27.3039 C   0  0  0  0  0  0  0  0  0  0  0  0
    6.4810   13.1166   26.2751 N   0  0  0  0  0  0  0  0  0  0  0  0
    7.5749   13.5930   25.6625 C   0  0  0  0  0  0  0  0  0  0  0  0
    8.5176   12.8143   25.0121 C   0  0  0  0  0  0  0  0  0  0  0  0
    9.5771   13.4681   24.3596 N   0  0  0  0  0  0  0  0  0  0  0  0
   10.9063   13.2162   24.7768 N   0  0  0  0  0  0  0  0  0  0  0  0
    9.4757   14.0520   23.1198 C   0  0  0  0  0  0  0  0  0  0  0  0
   10.4948   14.3446   22.3316 N   0  0  0  0  0  0  0  0  0  0  0  0
   10.0293   14.9308   21.1565 C   0  0  0  0  0  0  0  0  0  0  0  0
   10.9607   15.3442   20.0760 C   0  0  0  0  0  0  0  0  0  0  0  0
    8.7183   15.1200   21.0130 N   0  0  0  0  0  0  0  0  0  0  0  0
    7.9915   14.5522   22.3854 S   0  0  0  0  0  0  0  0  0  0  0  0
  1  2  1  0
  2  3  1  0
  3  4  2  0
  3  5  1  0
  5  6  2  0
  6  7  1  0
  7  8  1  0
  8  9  1  0
  9 10  1  0
  7 11  2  0
 11 12  1  0
 12 13  2  0
 13 14  1  0
 14 15  1  0
 14 16  1  0
 16 17  2  0
 17 18  1  0
 18 19  1  0
 18 20  2  0
 20 21  1  0
 13  5  1  0
 21 16  1  0
 10  8  1  0
M  END
>  <energy_score>  (1334) 
-72.087408

>  <inchikey>  (1334) 
MRLCEMFEWNZJJS-UHFFFAOYSA-N

>  <smiles>  (1334) 
COC(=O)c1cc(C2CC2)ncc1N(N)c1nc(C)ns1

>  <ref_pdb>  (1334) 
A0528a

>  <alias>  (1334) 
MRLCEMFEWNZJJS-UHFFFAOYSA-N-P308-P15-P308-601501

>  <HIPPO Pose ID>  (1334) 
501997

>  <name>  (1334) 
MRLCEMFEWNZJJS-UHFFFAOYSA-N-P308-P15-P308-601501

>  <HIPPO Compound ID>  (1334) 
292712

>  <ref_mols>  (1334) 
A4331a,A0514a

>  <distance_score>  (1334) 
1.664565

>  <inspiration_score>  (1334) 
None

$$$$
CPLNXSMPWOHQST-UHFFFAOYSA-N-P15-P15-P308-601501
     RDKit          3D

 21 23  0  0  0  0  0  0  0  0999 V2000
    9.0947    8.2389   22.7326 C   0  0  0  0  0  0  0  0  0  0  0  0
    8.3116    9.1339   23.5074 O   0  0  0  0  0  0  0  0  0  0  0  0
    9.0967   10.1029   24.0168 C   0  0  0  0  0  0  0  0  0  0  0  0
   10.3066   10.1363   23.9030 O   0  0  0  0  0  0  0  0  0  0  0  0
    8.2729   11.1267   24.6883 C   0  0  0  0  0  0  0  0  0  0  0  0
    7.1619   10.6664   25.4104 C   0  0  0  0  0  0  0  0  0  0  0  0
    6.4591   11.5630   26.1973 C   0  0  0  0  0  0  0  0  0  0  0  0
    5.3838   11.0773   27.1335 C   0  0  0  0  0  0  0  0  0  0  0  0
    4.3234   11.9229   27.2361 F   0  0  0  0  0  0  0  0  0  0  0  0
    4.8677    9.8697   26.7702 F   0  0  0  0  0  0  0  0  0  0  0  0
    5.8485   10.8961   28.4050 F   0  0  0  0  0  0  0  0  0  0  0  0
    6.8029   12.8689   26.2614 N   0  0  0  0  0  0  0  0  0  0  0  0
    7.8536   13.2879   25.5221 C   0  0  0  0  0  0  0  0  0  0  0  0
    8.6564   12.4801   24.7168 C   0  0  0  0  0  0  0  0  0  0  0  0
    9.7942   13.0063   24.0753 N   0  0  0  0  0  0  0  0  0  0  0  0
   10.0692   12.6900   22.6829 C   0  0  0  0  0  0  0  0  0  0  0  0
    9.0841   13.6207   21.9931 C   0  0  0  0  0  0  0  0  0  0  0  0
    9.1917   14.8295   22.8466 C   0  0  0  0  0  0  0  0  0  0  0  0
   10.0286   14.4177   24.0280 N   0  0  0  0  0  0  0  0  0  0  0  0
   11.4350   14.4314   23.5195 C   0  0  0  0  0  0  0  0  0  0  0  0
   11.4701   13.2705   22.5486 C   0  0  0  0  0  0  0  0  0  0  0  0
  1  2  1  0
  2  3  1  0
  3  4  2  0
  3  5  1  0
  5  6  2  0
  6  7  1  0
  7  8  1  0
  8  9  1  0
  8 10  1  0
  8 11  1  0
  7 12  2  0
 12 13  1  0
 13 14  2  0
 14 15  1  0
 15 16  1  0
 16 17  1  0
 17 18  1  0
 18 19  1  0
 19 20  1  0
 20 21  1  0
 14  5  1  0
 19 15  1  0
 21 16  1  0
M  END
>  <energy_score>  (1335) 
-41.108292

>  <inchikey>  (1335) 
CPLNXSMPWOHQST-UHFFFAOYSA-N

>  <smiles>  (1335) 
COC(=O)c1cc(C(F)(F)F)ncc1N1C2CCN1CC2

>  <ref_pdb>  (1335) 
A0528a

>  <alias>  (1335) 
CPLNXSMPWOHQST-UHFFFAOYSA-N-P15-P15-P308-601501

>  <HIPPO Pose ID>  (1335) 
502004

>  <name>  (1335) 
CPLNXSMPWOHQST-UHFFFAOYSA-N-P15-P15-P308-601501

>  <HIPPO Compound ID>  (1335) 
292716

>  <ref_mols>  (1335) 
A4331a,A0514a

>  <distance_score>  (1335) 
1.746328

>  <inspiration_score>  (1335) 
None

$$$$
FOIFAPNFGAGEIO-UHFFFAOYSA-N-P308-P15-P308-601501
     RDKit          3D

 22 23  0  0  0  0  0  0  0  0999 V2000
    9.4968    8.6683   23.0830 C   0  0  0  0  0  0  0  0  0  0  0  0
    8.6897    9.6080   23.7844 O   0  0  0  0  0  0  0  0  0  0  0  0
    9.3914   10.5059   24.5165 C   0  0  0  0  0  0  0  0  0  0  0  0
   10.6009   10.5483   24.6625 O   0  0  0  0  0  0  0  0  0  0  0  0
    8.4126   11.4598   25.0899 C   0  0  0  0  0  0  0  0  0  0  0  0
    7.1849   10.9653   25.5589 C   0  0  0  0  0  0  0  0  0  0  0  0
    6.2992   11.8372   26.1744 C   0  0  0  0  0  0  0  0  0  0  0  0
    5.0553   11.3721   26.8759 C   0  0  0  0  0  0  0  0  0  0  0  0
    4.7917   11.8563   28.2866 C   0  0  0  0  0  0  0  0  0  0  0  0
    3.9523   12.3749   27.1625 C   0  0  0  0  0  0  0  0  0  0  0  0
    6.5733   13.1580   26.2520 N   0  0  0  0  0  0  0  0  0  0  0  0
    7.7450   13.6112   25.7818 C   0  0  0  0  0  0  0  0  0  0  0  0
    8.7353   12.8150   25.2334 C   0  0  0  0  0  0  0  0  0  0  0  0
    9.9802   13.3550   24.8648 N   0  0  0  0  0  0  0  0  0  0  0  0
   10.6545   14.1913   25.7882 N   0  0  0  0  0  0  0  0  0  0  0  0
   10.0667   13.6872   23.4283 C   0  0  0  0  0  0  0  0  0  0  0  0
    9.7348   15.1642   23.1686 C   0  0  0  0  0  0  0  0  0  0  0  0
    9.4658   15.4493   21.6871 C   0  0  0  0  0  0  0  0  0  0  0  0
    8.0828   14.8867   21.3412 C   0  0  0  0  0  0  0  0  0  0  0  0
    9.4574   16.9496   21.3858 C   0  0  0  0  0  0  0  0  0  0  0  0
   10.4157   14.7664   20.8675 O   0  0  0  0  0  0  0  0  0  0  0  0
   11.7402   15.2865   20.8581 C   0  0  0  0  0  0  0  0  0  0  0  0
  1  2  1  0
  2  3  1  0
  3  4  2  0
  3  5  1  0
  5  6  2  0
  6  7  1  0
  7  8  1  0
  8  9  1  0
  9 10  1  0
  7 11  2  0
 11 12  1  0
 12 13  2  0
 13 14  1  0
 14 15  1  0
 14 16  1  0
 16 17  1  0
 17 18  1  0
 18 19  1  0
 18 20  1  0
 18 21  1  0
 21 22  1  0
 13  5  1  0
 10  8  1  0
M  END
>  <energy_score>  (1336) 
-39.347427

>  <inchikey>  (1336) 
FOIFAPNFGAGEIO-UHFFFAOYSA-N

>  <smiles>  (1336) 
COC(=O)c1cc(C2CC2)ncc1N(N)CCC(C)(C)OC

>  <ref_pdb>  (1336) 
A0528a

>  <alias>  (1336) 
FOIFAPNFGAGEIO-UHFFFAOYSA-N-P308-P15-P308-601501

>  <HIPPO Pose ID>  (1336) 
502007

>  <name>  (1336) 
FOIFAPNFGAGEIO-UHFFFAOYSA-N-P308-P15-P308-601501

>  <HIPPO Compound ID>  (1336) 
292717

>  <ref_mols>  (1336) 
A4331a,A0514a

>  <distance_score>  (1336) 
1.453707

>  <inspiration_score>  (1336) 
None

$$$$
NISWKXNPNPVKQM-UHFFFAOYSA-N-P308-P15-P308-601501
     RDKit          3D

 22 24  0  0  0  0  0  0  0  0999 V2000
    9.3071    8.6075   23.1214 C   0  0  0  0  0  0  0  0  0  0  0  0
    8.5265    9.6123   23.7617 O   0  0  0  0  0  0  0  0  0  0  0  0
    9.2534   10.4906   24.4830 C   0  0  0  0  0  0  0  0  0  0  0  0
   10.4544   10.4478   24.7030 O   0  0  0  0  0  0  0  0  0  0  0  0
    8.3608   11.5649   24.9574 C   0  0  0  0  0  0  0  0  0  0  0  0
    7.1320   11.1806   25.5374 C   0  0  0  0  0  0  0  0  0  0  0  0
    6.2801   12.1617   26.0251 C   0  0  0  0  0  0  0  0  0  0  0  0
    4.9170   11.9291   26.5921 C   0  0  0  0  0  0  0  0  0  0  0  0
    4.5787   11.0181   27.7332 C   0  0  0  0  0  0  0  0  0  0  0  0
    4.6765   12.4903   27.9835 C   0  0  0  0  0  0  0  0  0  0  0  0
    6.6295   13.4625   25.9774 N   0  0  0  0  0  0  0  0  0  0  0  0
    7.7689   13.8065   25.3581 C   0  0  0  0  0  0  0  0  0  0  0  0
    8.6940   12.9199   24.8193 C   0  0  0  0  0  0  0  0  0  0  0  0
    9.8077   13.5061   24.1526 N   0  0  0  0  0  0  0  0  0  0  0  0
   11.0640   12.8667   24.1626 N   0  0  0  0  0  0  0  0  0  0  0  0
    9.5695   14.1358   22.9487 C   0  0  0  0  0  0  0  0  0  0  0  0
    8.4416   14.1584   22.2657 N   0  0  0  0  0  0  0  0  0  0  0  0
    8.6695   14.7665   21.0619 N   0  0  0  0  0  0  0  0  0  0  0  0
    9.9309   15.1378   21.0194 C   0  0  0  0  0  0  0  0  0  0  0  0
   10.6214   15.7586   19.8655 C   0  0  0  0  0  0  0  0  0  0  0  0
   10.5025   14.8686   22.2373 N   0  0  0  0  0  0  0  0  0  0  0  0
   11.7896   15.3185   22.6916 C   0  0  0  0  0  0  0  0  0  0  0  0
  1  2  1  0
  2  3  1  0
  3  4  2  0
  3  5  1  0
  5  6  2  0
  6  7  1  0
  7  8  1  0
  8  9  1  0
  9 10  1  0
  7 11  2  0
 11 12  1  0
 12 13  2  0
 13 14  1  0
 14 15  1  0
 14 16  1  0
 16 17  2  0
 17 18  1  0
 18 19  2  0
 19 20  1  0
 19 21  1  0
 21 22  1  0
 13  5  1  0
 21 16  1  0
 10  8  1  0
M  END
>  <energy_score>  (1337) 
-61.985917

>  <inchikey>  (1337) 
NISWKXNPNPVKQM-UHFFFAOYSA-N

>  <smiles>  (1337) 
COC(=O)c1cc(C2CC2)ncc1N(N)c1nnc(C)n1C

>  <ref_pdb>  (1337) 
A0528a

>  <alias>  (1337) 
NISWKXNPNPVKQM-UHFFFAOYSA-N-P308-P15-P308-601501

>  <HIPPO Pose ID>  (1337) 
502009

>  <name>  (1337) 
NISWKXNPNPVKQM-UHFFFAOYSA-N-P308-P15-P308-601501

>  <HIPPO Compound ID>  (1337) 
292718

>  <ref_mols>  (1337) 
A4331a,A0514a

>  <distance_score>  (1337) 
1.466317

>  <inspiration_score>  (1337) 
None

$$$$
PVTZJXFKQLKOBW-UHFFFAOYSA-N-P308-P15-P308-601501
     RDKit          3D

 22 24  0  0  0  0  0  0  0  0999 V2000
    9.4568    8.6988   23.1531 C   0  0  0  0  0  0  0  0  0  0  0  0
    8.5614    9.5624   23.8488 O   0  0  0  0  0  0  0  0  0  0  0  0
    9.1766   10.5496   24.5423 C   0  0  0  0  0  0  0  0  0  0  0  0
   10.3773   10.7215   24.6659 O   0  0  0  0  0  0  0  0  0  0  0  0
    8.1175   11.4074   25.1209 C   0  0  0  0  0  0  0  0  0  0  0  0
    6.9878   10.8104   25.6965 C   0  0  0  0  0  0  0  0  0  0  0  0
    6.0511   11.6174   26.3303 C   0  0  0  0  0  0  0  0  0  0  0  0
    4.9497   11.0706   27.1959 C   0  0  0  0  0  0  0  0  0  0  0  0
    3.7379   11.9216   27.5187 C   0  0  0  0  0  0  0  0  0  0  0  0
    4.7799   11.7046   28.5672 C   0  0  0  0  0  0  0  0  0  0  0  0
    6.1677   12.9633   26.3108 N   0  0  0  0  0  0  0  0  0  0  0  0
    7.2329   13.5146   25.7194 C   0  0  0  0  0  0  0  0  0  0  0  0
    8.2679   12.7960   25.1445 C   0  0  0  0  0  0  0  0  0  0  0  0
    9.3670   13.4593   24.5555 N   0  0  0  0  0  0  0  0  0  0  0  0
   10.0765   14.3544   25.3995 N   0  0  0  0  0  0  0  0  0  0  0  0
    8.9591   13.9665   23.2301 C   0  0  0  0  0  0  0  0  0  0  0  0
   10.1671   14.3870   22.4264 C   0  0  0  0  0  0  0  0  0  0  0  0
   10.7035   15.8299   22.6210 C   0  0  0  0  0  0  0  0  0  0  0  0
   10.9871   15.8163   21.0995 C   0  0  0  0  0  0  0  0  0  0  0  0
   10.7833   16.9465   20.4059 F   0  0  0  0  0  0  0  0  0  0  0  0
   12.2151   15.3625   20.7795 F   0  0  0  0  0  0  0  0  0  0  0  0
    9.8334   14.8145   20.9884 C   0  0  0  0  0  0  0  0  0  0  0  0
  1  2  1  0
  2  3  1  0
  3  4  2  0
  3  5  1  0
  5  6  2  0
  6  7  1  0
  7  8  1  0
  8  9  1  0
  9 10  1  0
  7 11  2  0
 11 12  1  0
 12 13  2  0
 13 14  1  0
 14 15  1  0
 14 16  1  0
 16 17  1  0
 17 18  1  0
 18 19  1  0
 19 20  1  0
 19 21  1  0
 19 22  1  0
 13  5  1  0
 22 17  1  0
 10  8  1  0
M  END
>  <energy_score>  (1338) 
-39.587386

>  <inchikey>  (1338) 
PVTZJXFKQLKOBW-UHFFFAOYSA-N

>  <smiles>  (1338) 
COC(=O)c1cc(C2CC2)ncc1N(N)CC1CC(F)(F)C1

>  <ref_pdb>  (1338) 
A0528a

>  <alias>  (1338) 
PVTZJXFKQLKOBW-UHFFFAOYSA-N-P308-P15-P308-601501

>  <HIPPO Pose ID>  (1338) 
502011

>  <name>  (1338) 
PVTZJXFKQLKOBW-UHFFFAOYSA-N-P308-P15-P308-601501

>  <HIPPO Compound ID>  (1338) 
292719

>  <ref_mols>  (1338) 
A4331a,A0514a

>  <distance_score>  (1338) 
1.670945

>  <inspiration_score>  (1338) 
None

$$$$
JXCUJLBEVMXACZ-UHFFFAOYSA-N-P15-P15-P308-601501
     RDKit          3D

 22 23  0  0  0  0  0  0  0  0999 V2000
    9.4488    8.8315   22.9643 C   0  0  0  0  0  0  0  0  0  0  0  0
    8.4873    9.6775   23.5986 O   0  0  0  0  0  0  0  0  0  0  0  0
    8.9690   10.8928   23.9492 C   0  0  0  0  0  0  0  0  0  0  0  0
   10.0976   11.2892   23.7346 O   0  0  0  0  0  0  0  0  0  0  0  0
    7.9567   11.6432   24.7306 C   0  0  0  0  0  0  0  0  0  0  0  0
    7.1237   10.8310   25.5354 C   0  0  0  0  0  0  0  0  0  0  0  0
    6.3013   11.4151   26.4829 C   0  0  0  0  0  0  0  0  0  0  0  0
    5.3342   10.6126   27.2980 C   0  0  0  0  0  0  0  0  0  0  0  0
    4.2324   11.3350   27.6528 F   0  0  0  0  0  0  0  0  0  0  0  0
    4.8591    9.5240   26.6370 F   0  0  0  0  0  0  0  0  0  0  0  0
    5.8707   10.1493   28.4622 F   0  0  0  0  0  0  0  0  0  0  0  0
    6.3722   12.7270   26.7546 N   0  0  0  0  0  0  0  0  0  0  0  0
    7.1017   13.4817   25.9160 C   0  0  0  0  0  0  0  0  0  0  0  0
    7.8533   13.0433   24.8086 C   0  0  0  0  0  0  0  0  0  0  0  0
    8.2742   14.0661   23.9245 N   0  0  0  0  0  0  0  0  0  0  0  0
    7.2797   15.1036   23.8365 N   0  0  0  0  0  0  0  0  0  0  0  0
    9.1613   13.8430   22.7560 C   0  0  2  0  0  0  0  0  0  0  0  0
   10.6249   14.1273   23.0882 C   0  0  0  0  0  0  0  0  0  0  0  0
   11.2522   14.6615   21.8116 C   0  0  0  0  0  0  0  0  0  0  0  0
   10.1495   15.4282   21.1111 C   0  0  1  0  0  0  0  0  0  0  0  0
   10.3982   15.6365   19.6241 C   0  0  0  0  0  0  0  0  0  0  0  0
    8.8585   14.7010   21.5041 C   0  0  0  0  0  0  0  0  0  0  0  0
  1  2  1  0
  2  3  1  0
  3  4  2  0
  3  5  1  0
  5  6  2  0
  6  7  1  0
  7  8  1  0
  8  9  1  0
  8 10  1  0
  8 11  1  0
  7 12  2  0
 12 13  1  0
 13 14  2  0
 14 15  1  0
 15 16  1  0
 17 15  1  1
 17 18  1  0
 18 19  1  0
 19 20  1  0
 20 21  1  6
 20 22  1  0
 14  5  1  0
 22 17  1  0
M  END
>  <energy_score>  (1339) 
-35.365274

>  <inchikey>  (1339) 
JXCUJLBEVMXACZ-UHFFFAOYSA-N

>  <smiles>  (1339) 
COC(=O)c1cc(C(F)(F)F)ncc1N(N)C1CCC(C)C1

>  <ref_pdb>  (1339) 
A0528a

>  <alias>  (1339) 
JXCUJLBEVMXACZ-UHFFFAOYSA-N-P15-P15-P308-601501

>  <HIPPO Pose ID>  (1339) 
502016

>  <name>  (1339) 
JXCUJLBEVMXACZ-UHFFFAOYSA-N-P15-P15-P308-601501

>  <HIPPO Compound ID>  (1339) 
292722

>  <ref_mols>  (1339) 
A4331a,A0514a

>  <distance_score>  (1339) 
1.218152

>  <inspiration_score>  (1339) 
None

$$$$
UGEUOGXDGJMDRJ-UHFFFAOYSA-N-P308-P15-P308-601501
     RDKit          3D

 22 23  0  0  0  0  0  0  0  0999 V2000
    9.5051    8.5738   23.6588 C   0  0  0  0  0  0  0  0  0  0  0  0
    8.7620    9.4828   24.4663 O   0  0  0  0  0  0  0  0  0  0  0  0
    8.7501   10.7355   23.9624 C   0  0  0  0  0  0  0  0  0  0  0  0
    9.2506   11.0881   22.9077 O   0  0  0  0  0  0  0  0  0  0  0  0
    8.0398   11.6449   24.8811 C   0  0  0  0  0  0  0  0  0  0  0  0
    6.9028   11.1633   25.5465 C   0  0  0  0  0  0  0  0  0  0  0  0
    6.1594   12.0501   26.3171 C   0  0  0  0  0  0  0  0  0  0  0  0
    4.9679   11.6041   27.1176 C   0  0  0  0  0  0  0  0  0  0  0  0
    4.7705   10.2652   27.0615 F   0  0  0  0  0  0  0  0  0  0  0  0
    5.0901   11.8832   28.4486 F   0  0  0  0  0  0  0  0  0  0  0  0
    3.7920   12.1666   26.7229 F   0  0  0  0  0  0  0  0  0  0  0  0
    6.4940   13.3567   26.4278 N   0  0  0  0  0  0  0  0  0  0  0  0
    7.5860   13.7866   25.7770 C   0  0  0  0  0  0  0  0  0  0  0  0
    8.4190   12.9900   24.9988 C   0  0  0  0  0  0  0  0  0  0  0  0
    9.5560   13.6102   24.4094 N   0  0  0  0  0  0  0  0  0  0  0  0
   10.7325   12.8292   24.3572 N   0  0  0  0  0  0  0  0  0  0  0  0
    9.3378   14.6856   23.4453 C   0  0  0  0  0  0  0  0  0  0  0  0
    9.0895   14.1832   22.0083 C   0  0  0  0  0  0  0  0  0  0  0  0
    9.8252   15.6787   21.4149 S   0  0  0  0  0  0  0  0  0  0  0  0
    8.8740   16.7652   21.4237 O   0  0  0  0  0  0  0  0  0  0  0  0
   10.7561   15.4352   20.3377 O   0  0  0  0  0  0  0  0  0  0  0  0
   10.5902   15.4733   23.0000 C   0  0  0  0  0  0  0  0  0  0  0  0
  1  2  1  0
  2  3  1  0
  3  4  2  0
  3  5  1  0
  5  6  2  0
  6  7  1  0
  7  8  1  0
  8  9  1  0
  8 10  1  0
  8 11  1  0
  7 12  2  0
 12 13  1  0
 13 14  2  0
 14 15  1  0
 15 16  1  0
 15 17  1  0
 17 18  1  0
 18 19  1  0
 19 20  2  0
 19 21  2  0
 19 22  1  0
 14  5  1  0
 22 17  1  0
M  END
>  <energy_score>  (1340) 
-46.127669

>  <inchikey>  (1340) 
UGEUOGXDGJMDRJ-UHFFFAOYSA-N

>  <smiles>  (1340) 
COC(=O)c1cc(C(F)(F)F)ncc1N(N)C1CS(=O)(=O)C1

>  <ref_pdb>  (1340) 
A0528a

>  <alias>  (1340) 
UGEUOGXDGJMDRJ-UHFFFAOYSA-N-P308-P15-P308-601501

>  <HIPPO Pose ID>  (1340) 
502021

>  <name>  (1340) 
UGEUOGXDGJMDRJ-UHFFFAOYSA-N-P308-P15-P308-601501

>  <HIPPO Compound ID>  (1340) 
292724

>  <ref_mols>  (1340) 
A4331a,A0514a

>  <distance_score>  (1340) 
1.23876

>  <inspiration_score>  (1340) 
None

$$$$
KLGXAOIKPXCJEB-UHFFFAOYSA-N-P15-P15-P308-601501
     RDKit          3D

 22 23  0  0  0  0  0  0  0  0999 V2000
    9.7392    8.3981   23.3839 C   0  0  0  0  0  0  0  0  0  0  0  0
    8.7590    9.0883   24.1515 O   0  0  0  0  0  0  0  0  0  0  0  0
    8.7590   10.4014   23.8291 C   0  0  0  0  0  0  0  0  0  0  0  0
    9.3981   10.8885   22.9128 O   0  0  0  0  0  0  0  0  0  0  0  0
    7.9147   11.1715   24.7689 C   0  0  0  0  0  0  0  0  0  0  0  0
    6.9046   10.5578   25.5054 C   0  0  0  0  0  0  0  0  0  0  0  0
    6.1858   11.3398   26.4007 C   0  0  0  0  0  0  0  0  0  0  0  0
    5.2017   10.7182   27.3487 C   0  0  0  0  0  0  0  0  0  0  0  0
    4.1547   11.5414   27.6368 F   0  0  0  0  0  0  0  0  0  0  0  0
    5.7697   10.3998   28.5504 F   0  0  0  0  0  0  0  0  0  0  0  0
    4.6506    9.5606   26.8937 F   0  0  0  0  0  0  0  0  0  0  0  0
    6.4059   12.6722   26.5549 N   0  0  0  0  0  0  0  0  0  0  0  0
    7.3616   13.2383   25.8043 C   0  0  0  0  0  0  0  0  0  0  0  0
    8.1721   12.5386   24.9255 C   0  0  0  0  0  0  0  0  0  0  0  0
    9.2637   13.1427   24.3127 N   0  0  0  0  0  0  0  0  0  0  0  0
   10.4090   13.2161   25.1423 N   0  0  0  0  0  0  0  0  0  0  0  0
    9.0447   14.1926   23.2992 C   0  0  2  0  0  0  0  0  0  0  0  0
    7.7171   14.1333   22.5539 C   0  0  0  0  0  0  0  0  0  0  0  0
   10.1827   14.1370   22.2723 C   0  0  0  0  0  0  0  0  0  0  0  0
   10.3473   15.2536   21.2079 C   0  0  0  0  0  0  0  0  0  0  0  0
   11.8722   15.0901   21.3643 C   0  0  0  0  0  0  0  0  0  0  0  0
   11.6234   14.4686   22.7333 C   0  0  0  0  0  0  0  0  0  0  0  0
  1  2  1  0
  2  3  1  0
  3  4  2  0
  3  5  1  0
  5  6  2  0
  6  7  1  0
  7  8  1  0
  8  9  1  0
  8 10  1  0
  8 11  1  0
  7 12  2  0
 12 13  1  0
 13 14  2  0
 14 15  1  0
 15 16  1  0
 15 17  1  0
 17 18  1  6
 17 19  1  0
 19 20  1  0
 20 21  1  0
 21 22  1  0
 14  5  1  0
 22 19  1  0
M  END
>  <energy_score>  (1341) 
-25.526796

>  <inchikey>  (1341) 
KLGXAOIKPXCJEB-UHFFFAOYSA-N

>  <smiles>  (1341) 
COC(=O)c1cc(C(F)(F)F)ncc1N(N)C(C)C1CCC1

>  <ref_pdb>  (1341) 
A0528a

>  <alias>  (1341) 
KLGXAOIKPXCJEB-UHFFFAOYSA-N-P15-P15-P308-601501

>  <HIPPO Pose ID>  (1341) 
502022

>  <name>  (1341) 
KLGXAOIKPXCJEB-UHFFFAOYSA-N-P15-P15-P308-601501

>  <HIPPO Compound ID>  (1341) 
292725

>  <ref_mols>  (1341) 
A4331a,A0514a

>  <distance_score>  (1341) 
1.033108

>  <inspiration_score>  (1341) 
None

$$$$
VPZGVJLEEAOKKI-UHFFFAOYSA-N-P308-P15-P308-601501
     RDKit          3D

 22 23  0  0  0  0  0  0  0  0999 V2000
    9.5985    8.7817   23.1520 C   0  0  0  0  0  0  0  0  0  0  0  0
    8.7778    9.7696   23.7685 O   0  0  0  0  0  0  0  0  0  0  0  0
    9.4422   10.7052   24.4855 C   0  0  0  0  0  0  0  0  0  0  0  0
   10.6458   10.7915   24.6662 O   0  0  0  0  0  0  0  0  0  0  0  0
    8.4254   11.6240   25.0430 C   0  0  0  0  0  0  0  0  0  0  0  0
    7.2413   11.0882   25.5634 C   0  0  0  0  0  0  0  0  0  0  0  0
    6.3291   11.9569   26.1469 C   0  0  0  0  0  0  0  0  0  0  0  0
    5.0894   11.4505   26.8260 C   0  0  0  0  0  0  0  0  0  0  0  0
    5.1078   11.7012   28.1658 F   0  0  0  0  0  0  0  0  0  0  0  0
    4.9173   10.1032   26.7152 F   0  0  0  0  0  0  0  0  0  0  0  0
    3.9395   12.0226   26.3737 F   0  0  0  0  0  0  0  0  0  0  0  0
    6.5534   13.2937   26.2278 N   0  0  0  0  0  0  0  0  0  0  0  0
    7.6858   13.7796   25.6904 C   0  0  0  0  0  0  0  0  0  0  0  0
    8.6572   13.0051   25.0720 C   0  0  0  0  0  0  0  0  0  0  0  0
    9.7680   13.6017   24.4518 N   0  0  0  0  0  0  0  0  0  0  0  0
   10.6824   14.1813   25.3794 N   0  0  0  0  0  0  0  0  0  0  0  0
    9.5061   14.2907   23.1383 C   0  0  0  0  0  0  0  0  0  0  0  0
    8.2207   13.7771   22.4459 C   0  0  0  0  0  0  0  0  0  0  0  0
    9.4590   15.8204   23.2179 C   0  0  0  0  0  0  0  0  0  0  0  0
    9.7576   16.2774   21.7873 C   0  0  0  0  0  0  0  0  0  0  0  0
   10.6633   15.2081   21.1820 C   0  0  0  0  0  0  0  0  0  0  0  0
   10.7389   14.1008   22.2266 C   0  0  0  0  0  0  0  0  0  0  0  0
  1  2  1  0
  2  3  1  0
  3  4  2  0
  3  5  1  0
  5  6  2  0
  6  7  1  0
  7  8  1  0
  8  9  1  0
  8 10  1  0
  8 11  1  0
  7 12  2  0
 12 13  1  0
 13 14  2  0
 14 15  1  0
 15 16  1  0
 15 17  1  0
 17 18  1  0
 17 19  1  0
 19 20  1  0
 20 21  1  0
 21 22  1  0
 14  5  1  0
 22 17  1  0
M  END
>  <energy_score>  (1342) 
-35.726182

>  <inchikey>  (1342) 
VPZGVJLEEAOKKI-UHFFFAOYSA-N

>  <smiles>  (1342) 
COC(=O)c1cc(C(F)(F)F)ncc1N(N)C1(C)CCCC1

>  <ref_pdb>  (1342) 
A0528a

>  <alias>  (1342) 
VPZGVJLEEAOKKI-UHFFFAOYSA-N-P308-P15-P308-601501

>  <HIPPO Pose ID>  (1342) 
502025

>  <name>  (1342) 
VPZGVJLEEAOKKI-UHFFFAOYSA-N-P308-P15-P308-601501

>  <HIPPO Compound ID>  (1342) 
292726

>  <ref_mols>  (1342) 
A4331a,A0514a

>  <distance_score>  (1342) 
1.389355

>  <inspiration_score>  (1342) 
None

$$$$
STGBUQJKXFHGLE-UHFFFAOYSA-N-P308-P15-P308-601501
     RDKit          3D

 22 23  0  0  0  0  0  0  0  0999 V2000
    9.3548    8.5786   23.1011 C   0  0  0  0  0  0  0  0  0  0  0  0
    8.5533    9.5780   23.7223 O   0  0  0  0  0  0  0  0  0  0  0  0
    9.2686   10.5062   24.3914 C   0  0  0  0  0  0  0  0  0  0  0  0
   10.4723   10.5122   24.5934 O   0  0  0  0  0  0  0  0  0  0  0  0
    8.3305   11.5691   24.8145 C   0  0  0  0  0  0  0  0  0  0  0  0
    7.1620   11.1817   25.4663 C   0  0  0  0  0  0  0  0  0  0  0  0
    6.2886   12.1626   25.9136 C   0  0  0  0  0  0  0  0  0  0  0  0
    5.0875   11.7766   26.7421 C   0  0  0  0  0  0  0  0  0  0  0  0
    5.1942   12.2147   28.0285 F   0  0  0  0  0  0  0  0  0  0  0  0
    4.9130   10.4257   26.8462 F   0  0  0  0  0  0  0  0  0  0  0  0
    3.9040   12.2691   26.2837 F   0  0  0  0  0  0  0  0  0  0  0  0
    6.5239   13.4800   25.7068 N   0  0  0  0  0  0  0  0  0  0  0  0
    7.6438   13.8154   25.0368 C   0  0  0  0  0  0  0  0  0  0  0  0
    8.6073   12.9244   24.5852 C   0  0  0  0  0  0  0  0  0  0  0  0
    9.8222   13.3541   24.0116 N   0  0  0  0  0  0  0  0  0  0  0  0
   10.9373   13.1014   24.8798 N   0  0  0  0  0  0  0  0  0  0  0  0
   10.0269   14.4277   23.0959 C   0  0  0  0  0  0  0  0  0  0  0  0
   11.2881   14.6284   22.6375 N   0  0  0  0  0  0  0  0  0  0  0  0
   11.5665   15.6593   21.8074 N   0  0  0  0  0  0  0  0  0  0  0  0
   10.5637   16.4775   21.4962 C   0  0  0  0  0  0  0  0  0  0  0  0
    9.3082   16.3019   21.9259 N   0  0  0  0  0  0  0  0  0  0  0  0
    9.0308   15.2434   22.7258 N   0  0  0  0  0  0  0  0  0  0  0  0
  1  2  1  0
  2  3  1  0
  3  4  2  0
  3  5  1  0
  5  6  2  0
  6  7  1  0
  7  8  1  0
  8  9  1  0
  8 10  1  0
  8 11  1  0
  7 12  2  0
 12 13  1  0
 13 14  2  0
 14 15  1  0
 15 16  1  0
 15 17  1  0
 17 18  2  0
 18 19  1  0
 19 20  2  0
 20 21  1  0
 21 22  2  0
 14  5  1  0
 22 17  1  0
M  END
>  <energy_score>  (1343) 
-47.103667

>  <inchikey>  (1343) 
STGBUQJKXFHGLE-UHFFFAOYSA-N

>  <smiles>  (1343) 
COC(=O)c1cc(C(F)(F)F)ncc1N(N)c1nncnn1

>  <ref_pdb>  (1343) 
A0528a

>  <alias>  (1343) 
STGBUQJKXFHGLE-UHFFFAOYSA-N-P308-P15-P308-601501

>  <HIPPO Pose ID>  (1343) 
502029

>  <name>  (1343) 
STGBUQJKXFHGLE-UHFFFAOYSA-N-P308-P15-P308-601501

>  <HIPPO Compound ID>  (1343) 
292728

>  <ref_mols>  (1343) 
A4331a,A0514a

>  <distance_score>  (1343) 
1.754636

>  <inspiration_score>  (1343) 
None

$$$$
QQSRYFCOLIMNJN-UHFFFAOYSA-N-P308-P15-P308-601501
     RDKit          3D

 22 23  0  0  0  0  0  0  0  0999 V2000
    9.3818    8.4868   23.6513 C   0  0  0  0  0  0  0  0  0  0  0  0
    8.6486    9.4308   24.4239 O   0  0  0  0  0  0  0  0  0  0  0  0
    8.7775   10.6856   23.9371 C   0  0  0  0  0  0  0  0  0  0  0  0
    9.4221   10.9897   22.9499 O   0  0  0  0  0  0  0  0  0  0  0  0
    8.0302   11.6385   24.7802 C   0  0  0  0  0  0  0  0  0  0  0  0
    6.8893   11.2026   25.4674 C   0  0  0  0  0  0  0  0  0  0  0  0
    6.1777   12.1253   26.2275 C   0  0  0  0  0  0  0  0  0  0  0  0
    4.9890   11.7182   27.0546 C   0  0  0  0  0  0  0  0  0  0  0  0
    4.8003   10.3741   27.0669 F   0  0  0  0  0  0  0  0  0  0  0  0
    5.1098   12.0631   28.3693 F   0  0  0  0  0  0  0  0  0  0  0  0
    3.8082   12.2465   26.6301 F   0  0  0  0  0  0  0  0  0  0  0  0
    6.5448   13.4262   26.3038 N   0  0  0  0  0  0  0  0  0  0  0  0
    7.6426   13.8136   25.6339 C   0  0  0  0  0  0  0  0  0  0  0  0
    8.4397   12.9734   24.8693 C   0  0  0  0  0  0  0  0  0  0  0  0
    9.6177   13.5282   24.3143 N   0  0  0  0  0  0  0  0  0  0  0  0
   10.8102   12.8993   24.7874 N   0  0  0  0  0  0  0  0  0  0  0  0
    9.6818   13.9578   22.9272 C   0  0  0  0  0  0  0  0  0  0  0  0
   10.3635   15.3386   22.8094 C   0  0  0  0  0  0  0  0  0  0  0  0
    9.4195   15.5866   21.6160 C   0  0  0  0  0  0  0  0  0  0  0  0
    9.9111   15.1703   20.4272 F   0  0  0  0  0  0  0  0  0  0  0  0
    8.9927   16.8536   21.4503 F   0  0  0  0  0  0  0  0  0  0  0  0
    8.4287   14.6183   22.3228 C   0  0  0  0  0  0  0  0  0  0  0  0
  1  2  1  0
  2  3  1  0
  3  4  2  0
  3  5  1  0
  5  6  2  0
  6  7  1  0
  7  8  1  0
  8  9  1  0
  8 10  1  0
  8 11  1  0
  7 12  2  0
 12 13  1  0
 13 14  2  0
 14 15  1  0
 15 16  1  0
 15 17  1  0
 17 18  1  0
 18 19  1  0
 19 20  1  0
 19 21  1  0
 19 22  1  0
 14  5  1  0
 22 17  1  0
M  END
>  <energy_score>  (1344) 
-38.863985

>  <inchikey>  (1344) 
QQSRYFCOLIMNJN-UHFFFAOYSA-N

>  <smiles>  (1344) 
COC(=O)c1cc(C(F)(F)F)ncc1N(N)C1CC(F)(F)C1

>  <ref_pdb>  (1344) 
A0528a

>  <alias>  (1344) 
QQSRYFCOLIMNJN-UHFFFAOYSA-N-P308-P15-P308-601501

>  <HIPPO Pose ID>  (1344) 
502031

>  <name>  (1344) 
QQSRYFCOLIMNJN-UHFFFAOYSA-N-P308-P15-P308-601501

>  <HIPPO Compound ID>  (1344) 
292729

>  <ref_mols>  (1344) 
A4331a,A0514a

>  <distance_score>  (1344) 
1.267735

>  <inspiration_score>  (1344) 
None

$$$$
VFNVGNLRFWXGTO-UHFFFAOYSA-N-P308-P15-P308-601501
     RDKit          3D

 22 22  0  0  0  0  0  0  0  0999 V2000
    9.2916    8.5714   23.1060 C   0  0  0  0  0  0  0  0  0  0  0  0
    8.4433    9.5203   23.7466 O   0  0  0  0  0  0  0  0  0  0  0  0
    9.1159   10.4368   24.4754 C   0  0  0  0  0  0  0  0  0  0  0  0
   10.3141   10.4532   24.7114 O   0  0  0  0  0  0  0  0  0  0  0  0
    8.1554   11.4586   24.9317 C   0  0  0  0  0  0  0  0  0  0  0  0
    7.0566   10.9846   25.6717 C   0  0  0  0  0  0  0  0  0  0  0  0
    6.2004   11.9032   26.2639 C   0  0  0  0  0  0  0  0  0  0  0  0
    5.0428   11.4920   27.1284 C   0  0  0  0  0  0  0  0  0  0  0  0
    4.8015   10.1597   27.0735 F   0  0  0  0  0  0  0  0  0  0  0  0
    5.2443   11.7611   28.4506 F   0  0  0  0  0  0  0  0  0  0  0  0
    3.8613   12.0860   26.8005 F   0  0  0  0  0  0  0  0  0  0  0  0
    6.4271   13.2257   26.1752 N   0  0  0  0  0  0  0  0  0  0  0  0
    7.4551   13.6410   25.4139 C   0  0  0  0  0  0  0  0  0  0  0  0
    8.3371   12.8305   24.6937 C   0  0  0  0  0  0  0  0  0  0  0  0
    9.2740   13.4247   23.8201 N   0  0  0  0  0  0  0  0  0  0  0  0
   10.3205   12.6992   23.2474 N   0  0  0  0  0  0  0  0  0  0  0  0
    8.8960   14.7084   23.1510 C   0  0  2  0  0  0  0  0  0  0  0  0
    7.8203   14.4456   22.0951 C   0  0  0  0  0  0  0  0  0  0  0  0
   10.1049   15.4048   22.5099 C   0  0  0  0  0  0  0  0  0  0  0  0
   11.1578   15.6368   23.5587 C   0  0  0  0  0  0  0  0  0  0  0  0
   10.9374   16.0869   24.6757 O   0  0  0  0  0  0  0  0  0  0  0  0
   12.4062   15.3195   23.1521 O   0  0  0  0  0  0  0  0  0  0  0  0
  1  2  1  0
  2  3  1  0
  3  4  2  0
  3  5  1  0
  5  6  2  0
  6  7  1  0
  7  8  1  0
  8  9  1  0
  8 10  1  0
  8 11  1  0
  7 12  2  0
 12 13  1  0
 13 14  2  0
 14 15  1  0
 15 16  1  0
 15 17  1  0
 17 18  1  6
 17 19  1  0
 19 20  1  0
 20 21  2  0
 20 22  1  0
 14  5  1  0
M  END
>  <energy_score>  (1345) 
-40.594157

>  <inchikey>  (1345) 
VFNVGNLRFWXGTO-UHFFFAOYSA-N

>  <smiles>  (1345) 
COC(=O)c1cc(C(F)(F)F)ncc1N(N)C(C)CC(=O)O

>  <ref_pdb>  (1345) 
A0528a

>  <alias>  (1345) 
VFNVGNLRFWXGTO-UHFFFAOYSA-N-P308-P15-P308-601501

>  <HIPPO Pose ID>  (1345) 
502035

>  <name>  (1345) 
VFNVGNLRFWXGTO-UHFFFAOYSA-N-P308-P15-P308-601501

>  <HIPPO Compound ID>  (1345) 
292731

>  <ref_mols>  (1345) 
A4331a,A0514a

>  <distance_score>  (1345) 
1.16391

>  <inspiration_score>  (1345) 
None

$$$$
RARCCGOPDBSZJJ-UHFFFAOYSA-N-P308-P15-P308-601501
     RDKit          3D

 22 23  0  0  0  0  0  0  0  0999 V2000
    9.5160    8.6353   23.6232 C   0  0  0  0  0  0  0  0  0  0  0  0
    8.7453    9.5054   24.4501 O   0  0  0  0  0  0  0  0  0  0  0  0
    8.7385   10.7828   24.0006 C   0  0  0  0  0  0  0  0  0  0  0  0
    9.2827   11.1839   22.9885 O   0  0  0  0  0  0  0  0  0  0  0  0
    7.9487   11.6293   24.9175 C   0  0  0  0  0  0  0  0  0  0  0  0
    6.8318   11.1013   25.5747 C   0  0  0  0  0  0  0  0  0  0  0  0
    6.0827   11.9470   26.3905 C   0  0  0  0  0  0  0  0  0  0  0  0
    4.9122   11.4504   27.1879 C   0  0  0  0  0  0  0  0  0  0  0  0
    4.7006   10.1230   27.0281 F   0  0  0  0  0  0  0  0  0  0  0  0
    3.7303   12.0497   26.8698 F   0  0  0  0  0  0  0  0  0  0  0  0
    5.0696   11.6234   28.5327 F   0  0  0  0  0  0  0  0  0  0  0  0
    6.3927   13.2534   26.5603 N   0  0  0  0  0  0  0  0  0  0  0  0
    7.4727   13.7253   25.9238 C   0  0  0  0  0  0  0  0  0  0  0  0
    8.3012   12.9699   25.1007 C   0  0  0  0  0  0  0  0  0  0  0  0
    9.4354   13.5638   24.4844 N   0  0  0  0  0  0  0  0  0  0  0  0
   10.3264   14.1408   25.4269 N   0  0  0  0  0  0  0  0  0  0  0  0
    8.9436   14.3730   23.3307 C   0  0  0  0  0  0  0  0  0  0  0  0
    9.9906   14.9978   22.3977 C   0  0  0  0  0  0  0  0  0  0  0  0
    9.2920   15.5092   21.1315 C   0  0  0  0  0  0  0  0  0  0  0  0
   10.8799   16.1149   22.9855 C   0  0  0  0  0  0  0  0  0  0  0  0
   12.1284   15.2814   22.7143 C   0  0  0  0  0  0  0  0  0  0  0  0
   11.2720   14.1984   22.0608 C   0  0  0  0  0  0  0  0  0  0  0  0
  1  2  1  0
  2  3  1  0
  3  4  2  0
  3  5  1  0
  5  6  2  0
  6  7  1  0
  7  8  1  0
  8  9  1  0
  8 10  1  0
  8 11  1  0
  7 12  2  0
 12 13  1  0
 13 14  2  0
 14 15  1  0
 15 16  1  0
 15 17  1  0
 17 18  1  0
 18 19  1  0
 18 20  1  0
 20 21  1  0
 21 22  1  0
 14  5  1  0
 22 18  1  0
M  END
>  <energy_score>  (1346) 
-31.649652

>  <inchikey>  (1346) 
RARCCGOPDBSZJJ-UHFFFAOYSA-N

>  <smiles>  (1346) 
COC(=O)c1cc(C(F)(F)F)ncc1N(N)CC1(C)CCC1

>  <ref_pdb>  (1346) 
A0528a

>  <alias>  (1346) 
RARCCGOPDBSZJJ-UHFFFAOYSA-N-P308-P15-P308-601501

>  <HIPPO Pose ID>  (1346) 
502059

>  <name>  (1346) 
RARCCGOPDBSZJJ-UHFFFAOYSA-N-P308-P15-P308-601501

>  <HIPPO Compound ID>  (1346) 
292743

>  <ref_mols>  (1346) 
A4331a,A0514a

>  <distance_score>  (1346) 
1.367115

>  <inspiration_score>  (1346) 
None

$$$$
PMHRNAFZWJLPCK-UHFFFAOYSA-N-P15-P15-P308-601501
     RDKit          3D

 22 23  0  0  0  0  0  0  0  0999 V2000
    9.4178    8.7311   22.9838 C   0  0  0  0  0  0  0  0  0  0  0  0
    8.5480    9.6151   23.6938 O   0  0  0  0  0  0  0  0  0  0  0  0
    9.0470   10.8644   23.8252 C   0  0  0  0  0  0  0  0  0  0  0  0
   10.1387   11.2473   23.4535 O   0  0  0  0  0  0  0  0  0  0  0  0
    8.1218   11.7163   24.5919 C   0  0  0  0  0  0  0  0  0  0  0  0
    7.3105   11.1248   25.5593 C   0  0  0  0  0  0  0  0  0  0  0  0
    6.4964   11.9279   26.3486 C   0  0  0  0  0  0  0  0  0  0  0  0
    5.5196   11.2870   27.3065 C   0  0  0  0  0  0  0  0  0  0  0  0
    4.3810   12.0098   27.4820 F   0  0  0  0  0  0  0  0  0  0  0  0
    5.1091   10.0534   26.8921 F   0  0  0  0  0  0  0  0  0  0  0  0
    6.0458   11.0942   28.5495 F   0  0  0  0  0  0  0  0  0  0  0  0
    6.5463   13.2766   26.2879 N   0  0  0  0  0  0  0  0  0  0  0  0
    7.2717   13.8112   25.2922 C   0  0  0  0  0  0  0  0  0  0  0  0
    8.0466   13.0947   24.3812 C   0  0  0  0  0  0  0  0  0  0  0  0
    8.4292   13.7267   23.1736 N   0  0  0  0  0  0  0  0  0  0  0  0
    7.3356   14.0508   22.3533 N   0  0  0  0  0  0  0  0  0  0  0  0
    9.7130   14.1439   22.7498 C   0  0  0  0  0  0  0  0  0  0  0  0
    9.9638   14.7216   21.5096 C   0  0  0  0  0  0  0  0  0  0  0  0
   11.1700   15.1368   21.0667 N   0  0  0  0  0  0  0  0  0  0  0  0
   12.1836   14.9716   21.9204 C   0  0  0  0  0  0  0  0  0  0  0  0
   12.0869   14.4679   23.1652 N   0  0  0  0  0  0  0  0  0  0  0  0
   10.8529   14.0502   23.5293 C   0  0  0  0  0  0  0  0  0  0  0  0
  1  2  1  0
  2  3  1  0
  3  4  2  0
  3  5  1  0
  5  6  2  0
  6  7  1  0
  7  8  1  0
  8  9  1  0
  8 10  1  0
  8 11  1  0
  7 12  2  0
 12 13  1  0
 13 14  2  0
 14 15  1  0
 15 16  1  0
 15 17  1  0
 17 18  2  0
 18 19  1  0
 19 20  2  0
 20 21  1  0
 21 22  2  0
 14  5  1  0
 22 17  1  0
M  END
>  <energy_score>  (1347) 
-44.857948

>  <inchikey>  (1347) 
PMHRNAFZWJLPCK-UHFFFAOYSA-N

>  <smiles>  (1347) 
COC(=O)c1cc(C(F)(F)F)ncc1N(N)c1cncnc1

>  <ref_pdb>  (1347) 
A0528a

>  <alias>  (1347) 
PMHRNAFZWJLPCK-UHFFFAOYSA-N-P15-P15-P308-601501

>  <HIPPO Pose ID>  (1347) 
502062

>  <name>  (1347) 
PMHRNAFZWJLPCK-UHFFFAOYSA-N-P15-P15-P308-601501

>  <HIPPO Compound ID>  (1347) 
292745

>  <ref_mols>  (1347) 
A4331a,A0514a

>  <distance_score>  (1347) 
1.827013

>  <inspiration_score>  (1347) 
None

$$$$
GQPLEPVZMOTLLH-UHFFFAOYSA-N-P308-P15-P308-601501
     RDKit          3D

 22 22  0  0  0  0  0  0  0  0999 V2000
    9.3174    8.7668   23.2633 C   0  0  0  0  0  0  0  0  0  0  0  0
    8.4294    9.6368   23.9678 O   0  0  0  0  0  0  0  0  0  0  0  0
    9.0591   10.6588   24.5989 C   0  0  0  0  0  0  0  0  0  0  0  0
   10.2641   10.8412   24.6479 O   0  0  0  0  0  0  0  0  0  0  0  0
    8.0203   11.5340   25.2052 C   0  0  0  0  0  0  0  0  0  0  0  0
    6.8714   10.9749   25.7721 C   0  0  0  0  0  0  0  0  0  0  0  0
    5.9741   11.8217   26.4260 C   0  0  0  0  0  0  0  0  0  0  0  0
    4.8393   11.2856   27.2466 C   0  0  0  0  0  0  0  0  0  0  0  0
    4.6200    9.9694   27.0279 F   0  0  0  0  0  0  0  0  0  0  0  0
    3.6432   11.8990   27.0172 F   0  0  0  0  0  0  0  0  0  0  0  0
    5.0579   11.3920   28.5898 F   0  0  0  0  0  0  0  0  0  0  0  0
    6.1389   13.1632   26.4775 N   0  0  0  0  0  0  0  0  0  0  0  0
    7.2341   13.6714   25.9054 C   0  0  0  0  0  0  0  0  0  0  0  0
    8.2175   12.9160   25.2771 C   0  0  0  0  0  0  0  0  0  0  0  0
    9.3407   13.5509   24.7179 N   0  0  0  0  0  0  0  0  0  0  0  0
   10.0568   14.3638   25.6458 N   0  0  0  0  0  0  0  0  0  0  0  0
    8.9652   14.1394   23.4137 C   0  0  0  0  0  0  0  0  0  0  0  0
   10.2323   14.4521   22.6556 C   0  0  0  0  0  0  0  0  0  0  0  0
    9.9434   15.1426   21.3334 C   0  0  0  0  0  0  0  0  0  0  0  0
   11.1794   15.2413   20.5573 N   0  0  0  0  0  0  0  0  0  0  0  0
   12.1984   16.0471   21.2249 C   0  0  0  0  0  0  0  0  0  0  0  0
   10.9047   15.7551   19.2180 C   0  0  0  0  0  0  0  0  0  0  0  0
  1  2  1  0
  2  3  1  0
  3  4  2  0
  3  5  1  0
  5  6  2  0
  6  7  1  0
  7  8  1  0
  8  9  1  0
  8 10  1  0
  8 11  1  0
  7 12  2  0
 12 13  1  0
 13 14  2  0
 14 15  1  0
 15 16  1  0
 15 17  1  0
 17 18  1  0
 18 19  1  0
 19 20  1  0
 20 21  1  0
 20 22  1  0
 14  5  1  0
M  END
>  <energy_score>  (1348) 
-30.720346

>  <inchikey>  (1348) 
GQPLEPVZMOTLLH-UHFFFAOYSA-N

>  <smiles>  (1348) 
COC(=O)c1cc(C(F)(F)F)ncc1N(N)CCCN(C)C

>  <ref_pdb>  (1348) 
A0528a

>  <alias>  (1348) 
GQPLEPVZMOTLLH-UHFFFAOYSA-N-P308-P15-P308-601501

>  <HIPPO Pose ID>  (1348) 
502065

>  <name>  (1348) 
GQPLEPVZMOTLLH-UHFFFAOYSA-N-P308-P15-P308-601501

>  <HIPPO Compound ID>  (1348) 
292746

>  <ref_mols>  (1348) 
A4331a,A0514a

>  <distance_score>  (1348) 
1.209479

>  <inspiration_score>  (1348) 
None

$$$$
QLQOPOQQZXJZSM-UHFFFAOYSA-N-P308-P15-P308-601501
     RDKit          3D

 22 23  0  0  0  0  0  0  0  0999 V2000
    9.7048    8.7318   23.3004 C   0  0  0  0  0  0  0  0  0  0  0  0
    8.8367    9.7441   23.7996 O   0  0  0  0  0  0  0  0  0  0  0  0
    9.4581   10.7879   24.3987 C   0  0  0  0  0  0  0  0  0  0  0  0
   10.6519   10.9219   24.6092 O   0  0  0  0  0  0  0  0  0  0  0  0
    8.3897   11.7468   24.7558 C   0  0  0  0  0  0  0  0  0  0  0  0
    7.2685   11.2590   25.4221 C   0  0  0  0  0  0  0  0  0  0  0  0
    6.3000   12.1576   25.8493 C   0  0  0  0  0  0  0  0  0  0  0  0
    5.2271   11.6777   26.7977 C   0  0  0  0  0  0  0  0  0  0  0  0
    4.0231   12.2860   26.6444 F   0  0  0  0  0  0  0  0  0  0  0  0
    5.5663   11.8743   28.1064 F   0  0  0  0  0  0  0  0  0  0  0  0
    4.9829   10.3370   26.6950 F   0  0  0  0  0  0  0  0  0  0  0  0
    6.3584   13.4772   25.5478 N   0  0  0  0  0  0  0  0  0  0  0  0
    7.4388   13.9073   24.8652 C   0  0  0  0  0  0  0  0  0  0  0  0
    8.5221   13.1153   24.5124 C   0  0  0  0  0  0  0  0  0  0  0  0
    9.7678   13.7070   24.2346 N   0  0  0  0  0  0  0  0  0  0  0  0
   10.5979   13.6611   25.3768 N   0  0  0  0  0  0  0  0  0  0  0  0
   10.1524   14.4672   23.0856 C   0  0  0  0  0  0  0  0  0  0  0  0
   11.4504   14.9716   23.0090 C   0  0  0  0  0  0  0  0  0  0  0  0
   11.8064   15.6613   21.8774 C   0  0  0  0  0  0  0  0  0  0  0  0
   10.9627   15.8694   20.8670 N   0  0  0  0  0  0  0  0  0  0  0  0
    9.7415   15.3393   21.0122 C   0  0  0  0  0  0  0  0  0  0  0  0
    9.2812   14.6556   22.0774 N   0  0  0  0  0  0  0  0  0  0  0  0
  1  2  1  0
  2  3  1  0
  3  4  2  0
  3  5  1  0
  5  6  2  0
  6  7  1  0
  7  8  1  0
  8  9  1  0
  8 10  1  0
  8 11  1  0
  7 12  2  0
 12 13  1  0
 13 14  2  0
 14 15  1  0
 15 16  1  0
 15 17  1  0
 17 18  2  0
 18 19  1  0
 19 20  2  0
 20 21  1  0
 21 22  2  0
 14  5  1  0
 22 17  1  0
M  END
>  <energy_score>  (1349) 
-24.391867

>  <inchikey>  (1349) 
QLQOPOQQZXJZSM-UHFFFAOYSA-N

>  <smiles>  (1349) 
COC(=O)c1cc(C(F)(F)F)ncc1N(N)c1ccncn1

>  <ref_pdb>  (1349) 
A0528a

>  <alias>  (1349) 
QLQOPOQQZXJZSM-UHFFFAOYSA-N-P308-P15-P308-601501

>  <HIPPO Pose ID>  (1349) 
502067

>  <name>  (1349) 
QLQOPOQQZXJZSM-UHFFFAOYSA-N-P308-P15-P308-601501

>  <HIPPO Compound ID>  (1349) 
292747

>  <ref_mols>  (1349) 
A4331a,A0514a

>  <distance_score>  (1349) 
1.88038

>  <inspiration_score>  (1349) 
None

$$$$
HMEBKGKZFNMKAV-UHFFFAOYSA-N-P308-P15-P308-601501
     RDKit          3D

 22 24  0  0  0  0  0  0  0  0999 V2000
    5.0325   15.0402   23.5258 C   0  0  0  0  0  0  0  0  0  0  0  0
    6.4554   15.1529   23.5449 O   0  0  0  0  0  0  0  0  0  0  0  0
    7.0739   14.2239   22.7842 C   0  0  0  0  0  0  0  0  0  0  0  0
    6.5654   13.3274   22.1273 O   0  0  0  0  0  0  0  0  0  0  0  0
    8.5142   14.4770   22.7412 C   0  0  0  0  0  0  0  0  0  0  0  0
    8.9878   14.7471   21.4685 C   0  0  0  0  0  0  0  0  0  0  0  0
   10.3445   14.8668   21.2673 C   0  0  0  0  0  0  0  0  0  0  0  0
   10.8334   14.9300   19.8667 C   0  0  0  0  0  0  0  0  0  0  0  0
   12.1428   15.5556   19.5903 C   0  0  0  0  0  0  0  0  0  0  0  0
   10.8764   16.2161   19.1194 C   0  0  0  0  0  0  0  0  0  0  0  0
   11.2157   14.8573   22.3066 N   0  0  0  0  0  0  0  0  0  0  0  0
   10.7233   14.6247   23.5441 C   0  0  0  0  0  0  0  0  0  0  0  0
    9.3829   14.3713   23.8319 C   0  0  0  0  0  0  0  0  0  0  0  0
    8.9287   13.9700   25.1211 N   0  0  0  0  0  0  0  0  0  0  0  0
    9.7870   14.2686   26.2128 N   0  0  0  0  0  0  0  0  0  0  0  0
    8.1593   12.7675   25.2901 C   0  0  0  0  0  0  0  0  0  0  0  0
    8.5877   11.5520   24.7213 C   0  0  0  0  0  0  0  0  0  0  0  0
    7.8388   10.3843   24.8758 C   0  0  0  0  0  0  0  0  0  0  0  0
    6.6437   10.4184   25.5864 C   0  0  0  0  0  0  0  0  0  0  0  0
    6.1977   11.6139   26.1458 C   0  0  0  0  0  0  0  0  0  0  0  0
    6.9423   12.7957   26.0029 C   0  0  0  0  0  0  0  0  0  0  0  0
    6.4283   14.0497   26.6502 C   0  0  0  0  0  0  0  0  0  0  0  0
  1  2  1  0
  2  3  1  0
  3  4  2  0
  3  5  1  0
  5  6  2  0
  6  7  1  0
  7  8  1  0
  8  9  1  0
  9 10  1  0
  7 11  2  0
 11 12  1  0
 12 13  2  0
 13 14  1  0
 14 15  1  0
 14 16  1  0
 16 17  2  0
 17 18  1  0
 18 19  2  0
 19 20  1  0
 20 21  2  0
 21 22  1  0
 13  5  1  0
 21 16  1  0
 10  8  1  0
M  END
>  <energy_score>  (1350) 
-35.385711

>  <inchikey>  (1350) 
HMEBKGKZFNMKAV-UHFFFAOYSA-N

>  <smiles>  (1350) 
COC(=O)c1cc(C2CC2)ncc1N(N)c1ccccc1C

>  <ref_pdb>  (1350) 
A0528a

>  <alias>  (1350) 
HMEBKGKZFNMKAV-UHFFFAOYSA-N-P308-P15-P308-601501

>  <HIPPO Pose ID>  (1350) 
502087

>  <name>  (1350) 
HMEBKGKZFNMKAV-UHFFFAOYSA-N-P308-P15-P308-601501

>  <HIPPO Compound ID>  (1350) 
292757

>  <ref_mols>  (1350) 
A4331a,A0514a

>  <distance_score>  (1350) 
1.263328

>  <inspiration_score>  (1350) 
None

$$$$
BAFZDZBLPXXVDD-UHFFFAOYSA-N-P308-P15-P308-601501
     RDKit          3D

 22 24  0  0  0  0  0  0  0  0999 V2000
    8.7990    8.9948   23.7631 C   0  0  0  0  0  0  0  0  0  0  0  0
    9.6898    9.5893   24.7051 O   0  0  0  0  0  0  0  0  0  0  0  0
    9.7384   10.9321   24.8282 C   0  0  0  0  0  0  0  0  0  0  0  0
   10.8054   11.5108   25.0321 O   0  0  0  0  0  0  0  0  0  0  0  0
    8.4538   11.6822   24.8208 C   0  0  0  0  0  0  0  0  0  0  0  0
    7.4736   11.3029   25.7317 C   0  0  0  0  0  0  0  0  0  0  0  0
    6.4073   12.1516   25.9969 C   0  0  0  0  0  0  0  0  0  0  0  0
    5.3876   11.8084   27.0501 C   0  0  0  0  0  0  0  0  0  0  0  0
    4.1313   12.6288   27.2161 C   0  0  0  0  0  0  0  0  0  0  0  0
    5.2391   12.7642   28.2157 C   0  0  0  0  0  0  0  0  0  0  0  0
    6.3038   13.3386   25.3708 N   0  0  0  0  0  0  0  0  0  0  0  0
    7.2081   13.6360   24.4187 C   0  0  0  0  0  0  0  0  0  0  0  0
    8.3018   12.8548   24.0758 C   0  0  0  0  0  0  0  0  0  0  0  0
    9.0882   13.1938   22.9535 N   0  0  0  0  0  0  0  0  0  0  0  0
   10.0154   12.2160   22.5714 N   0  0  0  0  0  0  0  0  0  0  0  0
    9.5642   14.5009   22.6441 C   0  0  0  0  0  0  0  0  0  0  0  0
    9.6719   14.7938   21.2953 C   0  0  0  0  0  0  0  0  0  0  0  0
   10.5784   15.7452   20.9209 C   0  0  0  0  0  0  0  0  0  0  0  0
   10.8554   15.9753   19.4700 C   0  0  0  0  0  0  0  0  0  0  0  0
   11.2707   16.4382   21.8362 N   0  0  0  0  0  0  0  0  0  0  0  0
   10.9874   16.1662   23.1205 C   0  0  0  0  0  0  0  0  0  0  0  0
   10.1666   15.2258   23.5903 N   0  0  0  0  0  0  0  0  0  0  0  0
  1  2  1  0
  2  3  1  0
  3  4  2  0
  3  5  1  0
  5  6  2  0
  6  7  1  0
  7  8  1  0
  8  9  1  0
  9 10  1  0
  7 11  2  0
 11 12  1  0
 12 13  2  0
 13 14  1  0
 14 15  1  0
 14 16  1  0
 16 17  2  0
 17 18  1  0
 18 19  1  0
 18 20  2  0
 20 21  1  0
 21 22  2  0
 13  5  1  0
 22 16  1  0
 10  8  1  0
M  END
>  <energy_score>  (1351) 
-27.405472

>  <inchikey>  (1351) 
BAFZDZBLPXXVDD-UHFFFAOYSA-N

>  <smiles>  (1351) 
COC(=O)c1cc(C2CC2)ncc1N(N)c1cc(C)ncn1

>  <ref_pdb>  (1351) 
A0528a

>  <alias>  (1351) 
BAFZDZBLPXXVDD-UHFFFAOYSA-N-P308-P15-P308-601501

>  <HIPPO Pose ID>  (1351) 
502093

>  <name>  (1351) 
BAFZDZBLPXXVDD-UHFFFAOYSA-N-P308-P15-P308-601501

>  <HIPPO Compound ID>  (1351) 
292760

>  <ref_mols>  (1351) 
A4331a,A0514a

>  <distance_score>  (1351) 
1.82568

>  <inspiration_score>  (1351) 
None

$$$$
BKRUOSVOHBPNSR-UHFFFAOYSA-N-P308-P15-P308-601501
     RDKit          3D

 22 24  0  0  0  0  0  0  0  0999 V2000
    9.4853    8.7127   23.1955 C   0  0  0  0  0  0  0  0  0  0  0  0
    8.5777    9.5787   23.8722 O   0  0  0  0  0  0  0  0  0  0  0  0
    9.1794   10.6250   24.4929 C   0  0  0  0  0  0  0  0  0  0  0  0
   10.3766   10.8365   24.5475 O   0  0  0  0  0  0  0  0  0  0  0  0
    8.1115   11.4969   25.0397 C   0  0  0  0  0  0  0  0  0  0  0  0
    6.9876   10.8753   25.6141 C   0  0  0  0  0  0  0  0  0  0  0  0
    6.0295   11.6547   26.2455 C   0  0  0  0  0  0  0  0  0  0  0  0
    4.9281   11.0812   27.0912 C   0  0  0  0  0  0  0  0  0  0  0  0
    4.7941   11.5681   28.5205 C   0  0  0  0  0  0  0  0  0  0  0  0
    3.7752   11.9790   27.5091 C   0  0  0  0  0  0  0  0  0  0  0  0
    6.1111   12.9982   26.2185 N   0  0  0  0  0  0  0  0  0  0  0  0
    7.1781   13.5702   25.6460 C   0  0  0  0  0  0  0  0  0  0  0  0
    8.2510   12.8901   25.0889 C   0  0  0  0  0  0  0  0  0  0  0  0
    9.3950   13.6028   24.7036 N   0  0  0  0  0  0  0  0  0  0  0  0
    9.8032   14.6845   25.5263 N   0  0  0  0  0  0  0  0  0  0  0  0
    9.7334   13.6253   23.2557 C   0  0  0  0  0  0  0  0  0  0  0  0
   11.2480   13.7937   23.1040 C   0  0  0  0  0  0  0  0  0  0  0  0
   11.7758   15.2229   23.1328 C   0  0  0  0  0  0  0  0  0  0  0  0
   11.8156   15.8467   21.7484 C   0  0  0  0  0  0  0  0  0  0  0  0
   10.4467   16.2055   21.1943 C   0  0  0  0  0  0  0  0  0  0  0  0
    9.4436   15.0553   21.1361 C   0  0  0  0  0  0  0  0  0  0  0  0
    8.8763   14.6488   22.4991 C   0  0  0  0  0  0  0  0  0  0  0  0
  1  2  1  0
  2  3  1  0
  3  4  2  0
  3  5  1  0
  5  6  2  0
  6  7  1  0
  7  8  1  0
  8  9  1  0
  9 10  1  0
  7 11  2  0
 11 12  1  0
 12 13  2  0
 13 14  1  0
 14 15  1  0
 14 16  1  0
 16 17  1  0
 17 18  1  0
 18 19  1  0
 19 20  1  0
 20 21  1  0
 21 22  1  0
 13  5  1  0
 22 16  1  0
 10  8  1  0
M  END
>  <energy_score>  (1352) 
-42.659198

>  <inchikey>  (1352) 
BKRUOSVOHBPNSR-UHFFFAOYSA-N

>  <smiles>  (1352) 
COC(=O)c1cc(C2CC2)ncc1N(N)C1CCCCCC1

>  <ref_pdb>  (1352) 
A0528a

>  <alias>  (1352) 
BKRUOSVOHBPNSR-UHFFFAOYSA-N-P308-P15-P308-601501

>  <HIPPO Pose ID>  (1352) 
502097

>  <name>  (1352) 
BKRUOSVOHBPNSR-UHFFFAOYSA-N-P308-P15-P308-601501

>  <HIPPO Compound ID>  (1352) 
292762

>  <ref_mols>  (1352) 
A4331a,A0514a

>  <distance_score>  (1352) 
1.799222

>  <inspiration_score>  (1352) 
None

$$$$
KDQCDMXSYGMHDL-UHFFFAOYSA-N-P308-P15-P308-601501
     RDKit          3D

 22 23  0  0  0  0  0  0  0  0999 V2000
    9.4405    8.6098   23.0863 C   0  0  0  0  0  0  0  0  0  0  0  0
    8.5895    9.5078   23.7910 O   0  0  0  0  0  0  0  0  0  0  0  0
    9.2520   10.4585   24.4860 C   0  0  0  0  0  0  0  0  0  0  0  0
   10.4601   10.5728   24.6177 O   0  0  0  0  0  0  0  0  0  0  0  0
    8.2443   11.3909   25.0324 C   0  0  0  0  0  0  0  0  0  0  0  0
    7.0917   10.8531   25.6266 C   0  0  0  0  0  0  0  0  0  0  0  0
    6.1649   11.7111   26.2030 C   0  0  0  0  0  0  0  0  0  0  0  0
    5.0395   11.2312   27.0785 C   0  0  0  0  0  0  0  0  0  0  0  0
    3.8442   12.1219   27.3473 C   0  0  0  0  0  0  0  0  0  0  0  0
    4.8688   11.9291   28.4181 C   0  0  0  0  0  0  0  0  0  0  0  0
    6.3158   13.0493   26.1068 N   0  0  0  0  0  0  0  0  0  0  0  0
    7.4066   13.5429   25.5072 C   0  0  0  0  0  0  0  0  0  0  0  0
    8.4349   12.7742   24.9862 C   0  0  0  0  0  0  0  0  0  0  0  0
    9.5371   13.4642   24.4637 N   0  0  0  0  0  0  0  0  0  0  0  0
   10.8125   13.2029   25.0106 N   0  0  0  0  0  0  0  0  0  0  0  0
    9.4377   13.7400   23.0110 C   0  0  0  0  0  0  0  0  0  0  0  0
    9.6627   15.2421   22.8028 C   0  0  1  0  0  0  0  0  0  0  0  0
   10.8625   15.6541   23.4983 O   0  0  0  0  0  0  0  0  0  0  0  0
    9.6940   15.5231   21.3062 C   0  0  0  0  0  0  0  0  0  0  0  0
    8.5633   15.0465   20.7258 F   0  0  0  0  0  0  0  0  0  0  0  0
   10.7391   14.9247   20.6990 F   0  0  0  0  0  0  0  0  0  0  0  0
    9.7571   16.8435   21.0354 F   0  0  0  0  0  0  0  0  0  0  0  0
  1  2  1  0
  2  3  1  0
  3  4  2  0
  3  5  1  0
  5  6  2  0
  6  7  1  0
  7  8  1  0
  8  9  1  0
  9 10  1  0
  7 11  2  0
 11 12  1  0
 12 13  2  0
 13 14  1  0
 14 15  1  0
 14 16  1  0
 16 17  1  0
 17 18  1  6
 17 19  1  0
 19 20  1  0
 19 21  1  0
 19 22  1  0
 13  5  1  0
 10  8  1  0
M  END
>  <energy_score>  (1353) 
-47.11646

>  <inchikey>  (1353) 
KDQCDMXSYGMHDL-UHFFFAOYSA-N

>  <smiles>  (1353) 
COC(=O)c1cc(C2CC2)ncc1N(N)CC(O)C(F)(F)F

>  <ref_pdb>  (1353) 
A0528a

>  <alias>  (1353) 
KDQCDMXSYGMHDL-UHFFFAOYSA-N-P308-P15-P308-601501

>  <HIPPO Pose ID>  (1353) 
502115

>  <name>  (1353) 
KDQCDMXSYGMHDL-UHFFFAOYSA-N-P308-P15-P308-601501

>  <HIPPO Compound ID>  (1353) 
292771

>  <ref_mols>  (1353) 
A4331a,A0514a

>  <distance_score>  (1353) 
1.218709

>  <inspiration_score>  (1353) 
None

$$$$
WQLCXXNMJYBBNC-UHFFFAOYSA-N-P308-P15-P308-601501
     RDKit          3D

 22 23  0  0  0  0  0  0  0  0999 V2000
    9.5376    8.7288   23.1087 C   0  0  0  0  0  0  0  0  0  0  0  0
    8.6504    9.6609   23.7183 O   0  0  0  0  0  0  0  0  0  0  0  0
    9.2610   10.6692   24.3777 C   0  0  0  0  0  0  0  0  0  0  0  0
   10.4593   10.8443   24.5379 O   0  0  0  0  0  0  0  0  0  0  0  0
    8.2071   11.5402   24.9312 C   0  0  0  0  0  0  0  0  0  0  0  0
    7.1308   10.9371   25.6043 C   0  0  0  0  0  0  0  0  0  0  0  0
    6.2265   11.7421   26.2792 C   0  0  0  0  0  0  0  0  0  0  0  0
    5.1040   11.2018   27.1233 C   0  0  0  0  0  0  0  0  0  0  0  0
    3.8813   12.0564   27.3924 C   0  0  0  0  0  0  0  0  0  0  0  0
    4.8822   11.8464   28.4815 C   0  0  0  0  0  0  0  0  0  0  0  0
    6.3938   13.0810   26.3044 N   0  0  0  0  0  0  0  0  0  0  0  0
    7.4112   13.6295   25.6200 C   0  0  0  0  0  0  0  0  0  0  0  0
    8.3270   12.9315   24.8547 C   0  0  0  0  0  0  0  0  0  0  0  0
    9.2847   13.5814   24.0547 N   0  0  0  0  0  0  0  0  0  0  0  0
   10.5345   13.7516   24.7262 N   0  0  0  0  0  0  0  0  0  0  0  0
    8.8072   14.6435   23.0706 C   0  0  0  0  0  0  0  0  0  0  0  0
    8.6509   16.0329   23.6988 C   0  0  0  0  0  0  0  0  0  0  0  0
    7.4666   14.2228   22.4297 C   0  0  0  0  0  0  0  0  0  0  0  0
    9.8143   14.8176   21.8988 C   0  0  0  0  0  0  0  0  0  0  0  0
    9.5142   14.7468   20.7113 O   0  0  0  0  0  0  0  0  0  0  0  0
   11.0628   15.1580   22.3469 O   0  0  0  0  0  0  0  0  0  0  0  0
   11.9681   15.5072   21.2968 C   0  0  0  0  0  0  0  0  0  0  0  0
  1  2  1  0
  2  3  1  0
  3  4  2  0
  3  5  1  0
  5  6  2  0
  6  7  1  0
  7  8  1  0
  8  9  1  0
  9 10  1  0
  7 11  2  0
 11 12  1  0
 12 13  2  0
 13 14  1  0
 14 15  1  0
 14 16  1  0
 16 17  1  0
 16 18  1  0
 16 19  1  0
 19 20  2  0
 19 21  1  0
 21 22  1  0
 13  5  1  0
 10  8  1  0
M  END
>  <energy_score>  (1354) 
-47.270992

>  <inchikey>  (1354) 
WQLCXXNMJYBBNC-UHFFFAOYSA-N

>  <smiles>  (1354) 
COC(=O)c1cc(C2CC2)ncc1N(N)C(C)(C)C(=O)OC

>  <ref_pdb>  (1354) 
A0528a

>  <alias>  (1354) 
WQLCXXNMJYBBNC-UHFFFAOYSA-N-P308-P15-P308-601501

>  <HIPPO Pose ID>  (1354) 
502117

>  <name>  (1354) 
WQLCXXNMJYBBNC-UHFFFAOYSA-N-P308-P15-P308-601501

>  <HIPPO Compound ID>  (1354) 
292772

>  <ref_mols>  (1354) 
A4331a,A0514a

>  <distance_score>  (1354) 
1.40013

>  <inspiration_score>  (1354) 
None

$$$$
HDCFJJBRPNIHQW-UHFFFAOYSA-N-P308-P15-P308-601501
     RDKit          3D

 22 24  0  0  0  0  0  0  0  0999 V2000
    9.3133    8.5429   23.1305 C   0  0  0  0  0  0  0  0  0  0  0  0
    8.4305    9.3006   23.9540 O   0  0  0  0  0  0  0  0  0  0  0  0
    8.9931   10.4389   24.4168 C   0  0  0  0  0  0  0  0  0  0  0  0
   10.1619   10.7720   24.2959 O   0  0  0  0  0  0  0  0  0  0  0  0
    7.9618   11.2957   25.0366 C   0  0  0  0  0  0  0  0  0  0  0  0
    6.8793   10.7164   25.7071 C   0  0  0  0  0  0  0  0  0  0  0  0
    5.9910   11.5415   26.3840 C   0  0  0  0  0  0  0  0  0  0  0  0
    4.9135   11.0190   27.2930 C   0  0  0  0  0  0  0  0  0  0  0  0
    3.6993   11.8720   27.5980 C   0  0  0  0  0  0  0  0  0  0  0  0
    4.7560   11.7019   28.6414 C   0  0  0  0  0  0  0  0  0  0  0  0
    6.1332   12.8833   26.3562 N   0  0  0  0  0  0  0  0  0  0  0  0
    7.1452   13.4188   25.6663 C   0  0  0  0  0  0  0  0  0  0  0  0
    8.0938   12.6872   24.9730 C   0  0  0  0  0  0  0  0  0  0  0  0
    9.1031   13.3473   24.2509 N   0  0  0  0  0  0  0  0  0  0  0  0
    8.5459   14.2996   23.2834 C   0  0  0  0  0  0  0  0  0  0  0  0
    9.6340   14.8066   22.4098 C   0  0  0  0  0  0  0  0  0  0  0  0
    9.5843   14.7639   21.1157 N   0  0  0  0  0  0  0  0  0  0  0  0
   10.7734   15.2973   20.6899 N   0  0  0  0  0  0  0  0  0  0  0  0
   11.0540   15.4543   19.2866 C   0  0  0  0  0  0  0  0  0  0  0  0
   11.5978   15.7520   21.7145 C   0  0  0  0  0  0  0  0  0  0  0  0
   12.6775   16.3040   21.6442 O   0  0  0  0  0  0  0  0  0  0  0  0
   10.8695   15.4265   22.9737 C   0  0  0  0  0  0  0  0  0  0  0  0
  1  2  1  0
  2  3  1  0
  3  4  2  0
  3  5  1  0
  5  6  2  0
  6  7  1  0
  7  8  1  0
  8  9  1  0
  9 10  1  0
  7 11  2  0
 11 12  1  0
 12 13  2  0
 13 14  1  0
 14 15  1  0
 15 16  1  0
 16 17  2  0
 17 18  1  0
 18 19  1  0
 18 20  1  0
 20 21  2  0
 20 22  1  0
 13  5  1  0
 22 16  1  0
 10  8  1  0
M  END
>  <energy_score>  (1355) 
-34.038438

>  <inchikey>  (1355) 
HDCFJJBRPNIHQW-UHFFFAOYSA-N

>  <smiles>  (1355) 
COC(=O)c1cc(C2CC2)ncc1NCC1=NN(C)C(=O)C1

>  <ref_pdb>  (1355) 
A0528a

>  <alias>  (1355) 
HDCFJJBRPNIHQW-UHFFFAOYSA-N-P308-P15-P308-601501

>  <HIPPO Pose ID>  (1355) 
502123

>  <name>  (1355) 
HDCFJJBRPNIHQW-UHFFFAOYSA-N-P308-P15-P308-601501

>  <HIPPO Compound ID>  (1355) 
292775

>  <ref_mols>  (1355) 
A4331a,A0514a

>  <distance_score>  (1355) 
1.222416

>  <inspiration_score>  (1355) 
None

$$$$
WHVSEZBPIZYFOR-UHFFFAOYSA-N-P15-P15-P308-601501
     RDKit          3D

 22 23  0  0  0  0  0  0  0  0999 V2000
    9.1887    8.3346   22.8831 C   0  0  0  0  0  0  0  0  0  0  0  0
    8.3611    9.1132   23.7427 O   0  0  0  0  0  0  0  0  0  0  0  0
    8.9263   10.3049   24.0275 C   0  0  0  0  0  0  0  0  0  0  0  0
   10.0261   10.6506   23.6281 O   0  0  0  0  0  0  0  0  0  0  0  0
    8.0199   11.1354   24.8608 C   0  0  0  0  0  0  0  0  0  0  0  0
    6.9592   10.5525   25.5671 C   0  0  0  0  0  0  0  0  0  0  0  0
    6.1682   11.3521   26.3870 C   0  0  0  0  0  0  0  0  0  0  0  0
    5.1540   10.7934   27.3445 C   0  0  0  0  0  0  0  0  0  0  0  0
    3.9820   11.6449   27.7891 C   0  0  0  0  0  0  0  0  0  0  0  0
    5.1124   11.3968   28.7370 C   0  0  0  0  0  0  0  0  0  0  0  0
    6.3540   12.6879   26.4459 N   0  0  0  0  0  0  0  0  0  0  0  0
    7.3540   13.2317   25.7472 C   0  0  0  0  0  0  0  0  0  0  0  0
    8.2493   12.5095   24.9770 C   0  0  0  0  0  0  0  0  0  0  0  0
    9.2778   13.2390   24.3727 N   0  0  0  0  0  0  0  0  0  0  0  0
   10.5998   12.9810   24.8212 N   0  0  0  0  0  0  0  0  0  0  0  0
    9.0786   13.3889   22.9185 C   0  0  0  0  0  0  0  0  0  0  0  0
    9.2948   14.8496   22.6579 C   0  0  0  0  0  0  0  0  0  0  0  0
    9.5055   15.3693   21.3728 O   0  0  0  0  0  0  0  0  0  0  0  0
   10.8280   15.3684   20.8207 C   0  0  0  0  0  0  0  0  0  0  0  0
   12.0096   15.9371   21.5974 C   0  0  0  0  0  0  0  0  0  0  0  0
   11.2689   13.9698   20.7029 C   0  0  0  0  0  0  0  0  0  0  0  0
   10.6280   15.9488   19.4185 C   0  0  0  0  0  0  0  0  0  0  0  0
  1  2  1  0
  2  3  1  0
  3  4  2  0
  3  5  1  0
  5  6  2  0
  6  7  1  0
  7  8  1  0
  8  9  1  0
  9 10  1  0
  7 11  2  0
 11 12  1  0
 12 13  2  0
 13 14  1  0
 14 15  1  0
 14 16  1  0
 16 17  1  0
 17 18  1  0
 18 19  1  0
 19 20  1  0
 19 21  1  0
 19 22  1  0
 13  5  1  0
 10  8  1  0
M  END
>  <energy_score>  (1356) 
-32.590163

>  <inchikey>  (1356) 
WHVSEZBPIZYFOR-UHFFFAOYSA-N

>  <smiles>  (1356) 
COC(=O)c1cc(C2CC2)ncc1N(N)CCOC(C)(C)C

>  <ref_pdb>  (1356) 
A0528a

>  <alias>  (1356) 
WHVSEZBPIZYFOR-UHFFFAOYSA-N-P15-P15-P308-601501

>  <HIPPO Pose ID>  (1356) 
502130

>  <name>  (1356) 
WHVSEZBPIZYFOR-UHFFFAOYSA-N-P15-P15-P308-601501

>  <HIPPO Compound ID>  (1356) 
292779

>  <ref_mols>  (1356) 
A4331a,A0514a

>  <distance_score>  (1356) 
1.192596

>  <inspiration_score>  (1356) 
None

$$$$
IGZPKQIJDKGQGN-UHFFFAOYSA-N-P308-P15-P308-601501
     RDKit          3D

 22 23  0  0  0  0  0  0  0  0999 V2000
    5.5756   15.2907   22.7578 C   0  0  0  0  0  0  0  0  0  0  0  0
    6.9217   15.1586   23.1993 O   0  0  0  0  0  0  0  0  0  0  0  0
    7.6419   14.1780   22.4503 C   0  0  0  0  0  0  0  0  0  0  0  0
    9.0600   13.9620   23.0127 C   0  0  0  0  0  0  0  0  0  0  0  0
    9.6699   15.2836   23.5140 C   0  0  0  0  0  0  0  0  0  0  0  0
   11.0866   15.1843   23.7361 O   0  0  0  0  0  0  0  0  0  0  0  0
   11.8305   15.4156   22.5471 C   0  0  0  0  0  0  0  0  0  0  0  0
    9.1684   12.8731   24.0378 N   0  0  0  0  0  0  0  0  0  0  0  0
   10.4460   12.3683   24.3722 N   0  0  0  0  0  0  0  0  0  0  0  0
    8.1042   12.4534   24.8260 C   0  0  0  0  0  0  0  0  0  0  0  0
    7.3724   13.3854   25.5496 C   0  0  0  0  0  0  0  0  0  0  0  0
    6.3259   13.1158   26.3500 N   0  0  0  0  0  0  0  0  0  0  0  0
    5.9177   11.8393   26.4712 C   0  0  0  0  0  0  0  0  0  0  0  0
    4.7828   11.5629   27.4124 C   0  0  0  0  0  0  0  0  0  0  0  0
    3.5789   12.4731   27.4132 C   0  0  0  0  0  0  0  0  0  0  0  0
    4.5447   12.5257   28.5580 C   0  0  0  0  0  0  0  0  0  0  0  0
    6.5722   10.8292   25.7955 C   0  0  0  0  0  0  0  0  0  0  0  0
    7.6874   11.1243   24.9942 C   0  0  0  0  0  0  0  0  0  0  0  0
    8.2989    9.9181   24.3914 C   0  0  0  0  0  0  0  0  0  0  0  0
    8.0438    8.8014   24.8232 O   0  0  0  0  0  0  0  0  0  0  0  0
    9.0619   10.1672   23.3082 O   0  0  0  0  0  0  0  0  0  0  0  0
    9.6313    8.9793   22.7678 C   0  0  0  0  0  0  0  0  0  0  0  0
  1  2  1  0
  2  3  1  0
  3  4  1  0
  4  5  1  0
  5  6  1  0
  6  7  1  0
  4  8  1  0
  8  9  1  0
  8 10  1  0
 10 11  2  0
 11 12  1  0
 12 13  2  0
 13 14  1  0
 14 15  1  0
 15 16  1  0
 13 17  1  0
 17 18  2  0
 18 19  1  0
 19 20  2  0
 19 21  1  0
 21 22  1  0
 18 10  1  0
 16 14  1  0
M  END
>  <energy_score>  (1357) 
-39.628448

>  <inchikey>  (1357) 
IGZPKQIJDKGQGN-UHFFFAOYSA-N

>  <smiles>  (1357) 
COCC(COC)N(N)c1cnc(C2CC2)cc1C(=O)OC

>  <ref_pdb>  (1357) 
A0528a

>  <alias>  (1357) 
IGZPKQIJDKGQGN-UHFFFAOYSA-N-P308-P15-P308-601501

>  <HIPPO Pose ID>  (1357) 
502157

>  <name>  (1357) 
IGZPKQIJDKGQGN-UHFFFAOYSA-N-P308-P15-P308-601501

>  <HIPPO Compound ID>  (1357) 
292792

>  <ref_mols>  (1357) 
A4331a,A0514a

>  <distance_score>  (1357) 
1.693252

>  <inspiration_score>  (1357) 
None

$$$$
JUJSAQDHTSVQJF-UHFFFAOYSA-N-P15-P15-P308-601501
     RDKit          3D

 22 24  0  0  0  0  0  0  0  0999 V2000
    5.4154   15.2473   23.5415 C   0  0  0  0  0  0  0  0  0  0  0  0
    6.8343   15.2445   23.3996 O   0  0  0  0  0  0  0  0  0  0  0  0
    7.3033   14.2749   22.5871 C   0  0  0  0  0  0  0  0  0  0  0  0
    6.6967   13.3948   22.0037 O   0  0  0  0  0  0  0  0  0  0  0  0
    8.7324   14.4705   22.3859 C   0  0  0  0  0  0  0  0  0  0  0  0
    8.9876   15.4266   21.4138 C   0  0  0  0  0  0  0  0  0  0  0  0
   10.2122   15.4106   20.7942 C   0  0  0  0  0  0  0  0  0  0  0  0
   10.1899   15.6203   19.3058 C   0  0  0  0  0  0  0  0  0  0  0  0
   11.4901   15.4635   18.6046 C   0  0  0  0  0  0  0  0  0  0  0  0
   10.6533   16.7311   18.4613 C   0  0  0  0  0  0  0  0  0  0  0  0
   11.2611   14.7906   21.3912 N   0  0  0  0  0  0  0  0  0  0  0  0
   10.9990   13.8958   22.3724 C   0  0  0  0  0  0  0  0  0  0  0  0
    9.7244   13.5902   22.8359 C   0  0  0  0  0  0  0  0  0  0  0  0
    9.4358   12.3967   23.5739 N   0  0  0  0  0  0  0  0  0  0  0  0
   10.2788   11.2950   23.3801 N   0  0  0  0  0  0  0  0  0  0  0  0
    8.4739   12.2994   24.6192 C   0  0  0  0  0  0  0  0  0  0  0  0
    8.2654   13.4323   25.4095 C   0  0  0  0  0  0  0  0  0  0  0  0
    7.2394   13.4917   26.3303 C   0  0  0  0  0  0  0  0  0  0  0  0
    6.4194   12.3898   26.5220 C   0  0  0  0  0  0  0  0  0  0  0  0
    5.2531   12.5380   27.4321 C   0  0  0  0  0  0  0  0  0  0  0  0
    6.6554   11.2143   25.8055 C   0  0  0  0  0  0  0  0  0  0  0  0
    7.6862   11.1644   24.8634 C   0  0  0  0  0  0  0  0  0  0  0  0
  1  2  1  0
  2  3  1  0
  3  4  2  0
  3  5  1  0
  5  6  2  0
  6  7  1  0
  7  8  1  0
  8  9  1  0
  9 10  1  0
  7 11  2  0
 11 12  1  0
 12 13  2  0
 13 14  1  0
 14 15  1  0
 14 16  1  0
 16 17  2  0
 17 18  1  0
 18 19  2  0
 19 20  1  0
 19 21  1  0
 21 22  2  0
 13  5  1  0
 22 16  1  0
 10  8  1  0
M  END
>  <energy_score>  (1358) 
-20.614882

>  <inchikey>  (1358) 
JUJSAQDHTSVQJF-UHFFFAOYSA-N

>  <smiles>  (1358) 
COC(=O)c1cc(C2CC2)ncc1N(N)c1ccc(C)cc1

>  <ref_pdb>  (1358) 
A0528a

>  <alias>  (1358) 
JUJSAQDHTSVQJF-UHFFFAOYSA-N-P15-P15-P308-601501

>  <HIPPO Pose ID>  (1358) 
502160

>  <name>  (1358) 
JUJSAQDHTSVQJF-UHFFFAOYSA-N-P15-P15-P308-601501

>  <HIPPO Compound ID>  (1358) 
292794

>  <ref_mols>  (1358) 
A4331a,A0514a

>  <distance_score>  (1358) 
1.960304

>  <inspiration_score>  (1358) 
None

$$$$
WAGHIZCSAWOZCF-UHFFFAOYSA-N-P308-P15-P308-601501
     RDKit          3D

 22 24  0  0  0  0  0  0  0  0999 V2000
   10.7705   15.6988   18.7977 C   0  0  0  0  0  0  0  0  0  0  0  0
   10.7165   15.1078   20.0789 O   0  0  0  0  0  0  0  0  0  0  0  0
    9.5790   15.5410   20.8139 C   0  0  0  0  0  0  0  0  0  0  0  0
    9.7729   14.8284   22.0939 C   0  0  0  0  0  0  0  0  0  0  0  0
    8.9213   14.0053   22.6254 N   0  0  0  0  0  0  0  0  0  0  0  0
    9.5404   13.4991   23.7505 N   0  0  0  0  0  0  0  0  0  0  0  0
    8.6479   12.9632   24.6947 C   0  0  0  0  0  0  0  0  0  0  0  0
    7.6799   13.7762   25.2489 C   0  0  0  0  0  0  0  0  0  0  0  0
    6.6376   13.3263   25.9767 N   0  0  0  0  0  0  0  0  0  0  0  0
    6.4606   11.9929   26.1337 C   0  0  0  0  0  0  0  0  0  0  0  0
    5.3025   11.5484   26.9884 C   0  0  0  0  0  0  0  0  0  0  0  0
    4.0768   12.4233   27.1285 C   0  0  0  0  0  0  0  0  0  0  0  0
    5.0413   12.3215   28.2678 C   0  0  0  0  0  0  0  0  0  0  0  0
    7.3704   11.0990   25.5903 C   0  0  0  0  0  0  0  0  0  0  0  0
    8.4797   11.5975   24.8898 C   0  0  0  0  0  0  0  0  0  0  0  0
    9.4679   10.6472   24.3776 C   0  0  0  0  0  0  0  0  0  0  0  0
   10.6705   10.7687   24.5280 O   0  0  0  0  0  0  0  0  0  0  0  0
    8.7929    9.6595   23.7503 O   0  0  0  0  0  0  0  0  0  0  0  0
    9.6248    8.6818   23.1402 C   0  0  0  0  0  0  0  0  0  0  0  0
   10.7564   14.1494   24.0374 C   0  0  0  0  0  0  0  0  0  0  0  0
   11.4936   14.0969   25.0033 O   0  0  0  0  0  0  0  0  0  0  0  0
   11.0202   15.0300   22.8758 C   0  0  0  0  0  0  0  0  0  0  0  0
  1  2  1  0
  2  3  1  0
  3  4  1  0
  4  5  2  0
  5  6  1  0
  6  7  1  0
  7  8  2  0
  8  9  1  0
  9 10  2  0
 10 11  1  0
 11 12  1  0
 12 13  1  0
 10 14  1  0
 14 15  2  0
 15 16  1  0
 16 17  2  0
 16 18  1  0
 18 19  1  0
  6 20  1  0
 20 21  2  0
 20 22  1  0
 22  4  1  0
 15  7  1  0
 13 11  1  0
M  END
>  <energy_score>  (1359) 
-25.244482

>  <inchikey>  (1359) 
WAGHIZCSAWOZCF-UHFFFAOYSA-N

>  <smiles>  (1359) 
COCC1=NN(c2cnc(C3CC3)cc2C(=O)OC)C(=O)C1

>  <ref_pdb>  (1359) 
A0528a

>  <alias>  (1359) 
WAGHIZCSAWOZCF-UHFFFAOYSA-N-P308-P15-P308-601501

>  <HIPPO Pose ID>  (1359) 
502169

>  <name>  (1359) 
WAGHIZCSAWOZCF-UHFFFAOYSA-N-P308-P15-P308-601501

>  <HIPPO Compound ID>  (1359) 
292798

>  <ref_mols>  (1359) 
A4331a,A0514a

>  <distance_score>  (1359) 
1.515468

>  <inspiration_score>  (1359) 
None

$$$$
JVSQHIUCYAGWES-UHFFFAOYSA-N-P15-P15-P308-601501
     RDKit          3D

 22 24  0  0  0  0  0  0  0  0999 V2000
    9.3806    8.4632   22.9765 C   0  0  0  0  0  0  0  0  0  0  0  0
    8.4877    9.2081   23.7995 O   0  0  0  0  0  0  0  0  0  0  0  0
    8.9175   10.4659   24.0233 C   0  0  0  0  0  0  0  0  0  0  0  0
    9.9855   10.9363   23.6673 O   0  0  0  0  0  0  0  0  0  0  0  0
    7.8768   11.2302   24.7408 C   0  0  0  0  0  0  0  0  0  0  0  0
    6.9654   10.6058   25.5910 C   0  0  0  0  0  0  0  0  0  0  0  0
    6.0459   11.3907   26.2781 C   0  0  0  0  0  0  0  0  0  0  0  0
    5.1668   10.8315   27.3579 C   0  0  0  0  0  0  0  0  0  0  0  0
    5.3605   11.3353   28.7700 C   0  0  0  0  0  0  0  0  0  0  0  0
    4.1320   11.7287   28.0126 C   0  0  0  0  0  0  0  0  0  0  0  0
    5.9490   12.7219   26.0552 N   0  0  0  0  0  0  0  0  0  0  0  0
    6.7734   13.2950   25.1663 C   0  0  0  0  0  0  0  0  0  0  0  0
    7.8181   12.6150   24.5602 C   0  0  0  0  0  0  0  0  0  0  0  0
    8.6905   13.2554   23.6135 N   0  0  0  0  0  0  0  0  0  0  0  0
    9.4485   13.6182   24.9778 N   0  0  0  0  0  0  0  0  0  0  0  0
    8.4825   14.4841   22.7556 C   0  0  0  0  0  0  0  0  0  0  0  0
    7.5863   15.2471   22.7229 O   0  0  0  0  0  0  0  0  0  0  0  0
    9.6716   14.6606   21.9082 C   0  0  0  0  0  0  0  0  0  0  0  0
    9.6011   15.1732   20.7021 N   0  0  0  0  0  0  0  0  0  0  0  0
   10.8695   15.2670   20.1708 C   0  0  0  0  0  0  0  0  0  0  0  0
   11.9009   14.8979   21.0078 C   0  0  0  0  0  0  0  0  0  0  0  0
   11.2675   14.3260   22.4789 S   0  0  0  0  0  0  0  0  0  0  0  0
  1  2  1  0
  2  3  1  0
  3  4  2  0
  3  5  1  0
  5  6  2  0
  6  7  1  0
  7  8  1  0
  8  9  1  0
  9 10  1  0
  7 11  2  0
 11 12  1  0
 12 13  2  0
 13 14  1  0
 14 15  1  0
 14 16  1  0
 16 17  2  0
 16 18  1  0
 18 19  2  0
 19 20  1  0
 20 21  2  0
 21 22  1  0
 13  5  1  0
 22 18  1  0
 10  8  1  0
M  END
>  <energy_score>  (1360) 
-13.791432

>  <inchikey>  (1360) 
JVSQHIUCYAGWES-UHFFFAOYSA-N

>  <smiles>  (1360) 
COC(=O)c1cc(C2CC2)ncc1N(N)C(=O)c1nccs1

>  <ref_pdb>  (1360) 
A0528a

>  <alias>  (1360) 
JVSQHIUCYAGWES-UHFFFAOYSA-N-P15-P15-P308-601501

>  <HIPPO Pose ID>  (1360) 
502184

>  <name>  (1360) 
JVSQHIUCYAGWES-UHFFFAOYSA-N-P15-P15-P308-601501

>  <HIPPO Compound ID>  (1360) 
292806

>  <ref_mols>  (1360) 
A4331a,A0514a

>  <distance_score>  (1360) 
1.651755

>  <inspiration_score>  (1360) 
None

$$$$
SILBMQKQOWCQBD-UHFFFAOYSA-N-P308-P15-P308-601501
     RDKit          3D

 22 24  0  0  0  0  0  0  0  0999 V2000
    9.4840    8.6241   23.1887 C   0  0  0  0  0  0  0  0  0  0  0  0
    8.6285    9.6158   23.7440 O   0  0  0  0  0  0  0  0  0  0  0  0
    9.2900   10.6127   24.3754 C   0  0  0  0  0  0  0  0  0  0  0  0
   10.4882   10.6782   24.5925 O   0  0  0  0  0  0  0  0  0  0  0  0
    8.2872   11.6505   24.6971 C   0  0  0  0  0  0  0  0  0  0  0  0
    7.1338   11.2652   25.3725 C   0  0  0  0  0  0  0  0  0  0  0  0
    6.2360   12.2394   25.7793 C   0  0  0  0  0  0  0  0  0  0  0  0
    5.1300   11.8974   26.7425 C   0  0  0  0  0  0  0  0  0  0  0  0
    3.9705   12.8353   26.9644 C   0  0  0  0  0  0  0  0  0  0  0  0
    5.0352   12.7201   28.0123 C   0  0  0  0  0  0  0  0  0  0  0  0
    6.4014   13.5312   25.4148 N   0  0  0  0  0  0  0  0  0  0  0  0
    7.5164   13.8753   24.7436 C   0  0  0  0  0  0  0  0  0  0  0  0
    8.5326   12.9990   24.4160 C   0  0  0  0  0  0  0  0  0  0  0  0
    9.8309   13.4591   24.1531 N   0  0  0  0  0  0  0  0  0  0  0  0
   10.6466   13.3282   25.3282 N   0  0  0  0  0  0  0  0  0  0  0  0
   10.3160   14.3858   23.2326 C   0  0  0  0  0  0  0  0  0  0  0  0
   11.4723   14.9466   23.4982 N   0  0  0  0  0  0  0  0  0  0  0  0
   12.1017   15.7919   22.6004 N   0  0  0  0  0  0  0  0  0  0  0  0
   11.5738   15.9466   21.4341 C   0  0  0  0  0  0  0  0  0  0  0  0
   10.2945   15.2900   21.0508 C   0  0  0  0  0  0  0  0  0  0  0  0
    9.9161   15.3329   19.8936 O   0  0  0  0  0  0  0  0  0  0  0  0
    9.6553   14.6385   22.0651 N   0  0  0  0  0  0  0  0  0  0  0  0
  1  2  1  0
  2  3  1  0
  3  4  2  0
  3  5  1  0
  5  6  2  0
  6  7  1  0
  7  8  1  0
  8  9  1  0
  9 10  1  0
  7 11  2  0
 11 12  1  0
 12 13  2  0
 13 14  1  0
 14 15  1  0
 14 16  1  0
 16 17  2  0
 17 18  1  0
 18 19  2  0
 19 20  1  0
 20 21  2  0
 20 22  1  0
 13  5  1  0
 22 16  1  0
 10  8  1  0
M  END
>  <energy_score>  (1361) 
-25.304241

>  <inchikey>  (1361) 
SILBMQKQOWCQBD-UHFFFAOYSA-N

>  <smiles>  (1361) 
COC(=O)c1cc(C2CC2)ncc1N(N)c1nncc(=O)[nH]1

>  <ref_pdb>  (1361) 
A0528a

>  <alias>  (1361) 
SILBMQKQOWCQBD-UHFFFAOYSA-N-P308-P15-P308-601501

>  <HIPPO Pose ID>  (1361) 
502203

>  <name>  (1361) 
SILBMQKQOWCQBD-UHFFFAOYSA-N-P308-P15-P308-601501

>  <HIPPO Compound ID>  (1361) 
292815

>  <ref_mols>  (1361) 
A4331a,A0514a

>  <distance_score>  (1361) 
1.903122

>  <inspiration_score>  (1361) 
None

$$$$
XVEKHGYVPCSHKN-UHFFFAOYSA-N-P15-P15-P308-601501
     RDKit          3D

 22 24  0  0  0  0  0  0  0  0999 V2000
    9.4160    8.5929   23.0407 C   0  0  0  0  0  0  0  0  0  0  0  0
    8.5111    9.3092   23.8797 O   0  0  0  0  0  0  0  0  0  0  0  0
    8.8826   10.5912   24.0927 C   0  0  0  0  0  0  0  0  0  0  0  0
    9.9247   11.1026   23.7182 O   0  0  0  0  0  0  0  0  0  0  0  0
    7.8104   11.3099   24.8180 C   0  0  0  0  0  0  0  0  0  0  0  0
    6.9311   10.6323   25.6607 C   0  0  0  0  0  0  0  0  0  0  0  0
    5.9576   11.3595   26.3334 C   0  0  0  0  0  0  0  0  0  0  0  0
    5.1908   10.7851   27.4879 C   0  0  0  0  0  0  0  0  0  0  0  0
    4.0000   11.5191   28.0635 C   0  0  0  0  0  0  0  0  0  0  0  0
    5.3008   11.5300   28.8056 C   0  0  0  0  0  0  0  0  0  0  0  0
    5.7353   12.6627   26.0516 N   0  0  0  0  0  0  0  0  0  0  0  0
    6.5345   13.2821   25.1704 C   0  0  0  0  0  0  0  0  0  0  0  0
    7.6701   12.6892   24.6367 C   0  0  0  0  0  0  0  0  0  0  0  0
    8.5482   13.3610   23.7161 N   0  0  0  0  0  0  0  0  0  0  0  0
    9.0383   14.0157   25.0931 N   0  0  0  0  0  0  0  0  0  0  0  0
    8.2626   14.4156   22.6790 C   0  0  0  0  0  0  0  0  0  0  0  0
    7.2683   14.9921   22.4349 O   0  0  0  0  0  0  0  0  0  0  0  0
    9.5079   14.6441   21.9229 C   0  0  0  0  0  0  0  0  0  0  0  0
   10.7802   14.2426   22.3053 C   0  0  0  0  0  0  0  0  0  0  0  0
   11.9509   14.8282   21.2129 S   0  0  0  0  0  0  0  0  0  0  0  0
   10.6866   15.4287   20.2273 C   0  0  0  0  0  0  0  0  0  0  0  0
    9.4741   15.3200   20.7186 N   0  0  0  0  0  0  0  0  0  0  0  0
  1  2  1  0
  2  3  1  0
  3  4  2  0
  3  5  1  0
  5  6  2  0
  6  7  1  0
  7  8  1  0
  8  9  1  0
  9 10  1  0
  7 11  2  0
 11 12  1  0
 12 13  2  0
 13 14  1  0
 14 15  1  0
 14 16  1  0
 16 17  2  0
 16 18  1  0
 18 19  2  0
 19 20  1  0
 20 21  1  0
 21 22  2  0
 13  5  1  0
 22 18  1  0
 10  8  1  0
M  END
>  <energy_score>  (1362) 
-4.388859

>  <inchikey>  (1362) 
XVEKHGYVPCSHKN-UHFFFAOYSA-N

>  <smiles>  (1362) 
COC(=O)c1cc(C2CC2)ncc1N(N)C(=O)c1cscn1

>  <ref_pdb>  (1362) 
A0528a

>  <alias>  (1362) 
XVEKHGYVPCSHKN-UHFFFAOYSA-N-P15-P15-P308-601501

>  <HIPPO Pose ID>  (1362) 
502204

>  <name>  (1362) 
XVEKHGYVPCSHKN-UHFFFAOYSA-N-P15-P15-P308-601501

>  <HIPPO Compound ID>  (1362) 
292816

>  <ref_mols>  (1362) 
A4331a,A0514a

>  <distance_score>  (1362) 
1.487949

>  <inspiration_score>  (1362) 
None

$$$$
BEQNWKOKFDIKMV-UHFFFAOYSA-N-P308-P15-P308-601501
     RDKit          3D

 22 24  0  0  0  0  0  0  0  0999 V2000
    9.3466    8.4833   23.1786 C   0  0  0  0  0  0  0  0  0  0  0  0
    8.6912    9.3953   24.0576 O   0  0  0  0  0  0  0  0  0  0  0  0
    8.9396   10.6977   23.7868 C   0  0  0  0  0  0  0  0  0  0  0  0
    9.6764   11.0987   22.9026 O   0  0  0  0  0  0  0  0  0  0  0  0
    8.1942   11.5846   24.7068 C   0  0  0  0  0  0  0  0  0  0  0  0
    7.0776   11.0733   25.3925 C   0  0  0  0  0  0  0  0  0  0  0  0
    6.3172   11.9218   26.1845 C   0  0  0  0  0  0  0  0  0  0  0  0
    5.1538   11.4418   27.0108 C   0  0  0  0  0  0  0  0  0  0  0  0
    3.9510   12.3403   27.2017 C   0  0  0  0  0  0  0  0  0  0  0  0
    4.8960   12.1258   28.3411 C   0  0  0  0  0  0  0  0  0  0  0  0
    6.6295   13.2335   26.2834 N   0  0  0  0  0  0  0  0  0  0  0  0
    7.6914   13.7067   25.6077 C   0  0  0  0  0  0  0  0  0  0  0  0
    8.5428   12.9384   24.8311 C   0  0  0  0  0  0  0  0  0  0  0  0
    9.6642   13.5949   24.2554 N   0  0  0  0  0  0  0  0  0  0  0  0
   10.9222   12.9409   24.4303 N   0  0  0  0  0  0  0  0  0  0  0  0
    9.5055   14.1625   23.0035 C   0  0  0  0  0  0  0  0  0  0  0  0
    8.3862   14.2938   22.3144 N   0  0  0  0  0  0  0  0  0  0  0  0
    8.6788   14.8405   21.0911 N   0  0  0  0  0  0  0  0  0  0  0  0
    9.9744   15.0657   21.0375 C   0  0  0  0  0  0  0  0  0  0  0  0
   10.7305   15.5832   19.8757 C   0  0  0  0  0  0  0  0  0  0  0  0
   10.5283   14.7370   22.2498 N   0  0  0  0  0  0  0  0  0  0  0  0
   11.8955   15.0025   22.6657 N   0  0  0  0  0  0  0  0  0  0  0  0
  1  2  1  0
  2  3  1  0
  3  4  2  0
  3  5  1  0
  5  6  2  0
  6  7  1  0
  7  8  1  0
  8  9  1  0
  9 10  1  0
  7 11  2  0
 11 12  1  0
 12 13  2  0
 13 14  1  0
 14 15  1  0
 14 16  1  0
 16 17  2  0
 17 18  1  0
 18 19  2  0
 19 20  1  0
 19 21  1  0
 21 22  1  0
 13  5  1  0
 21 16  1  0
 10  8  1  0
M  END
>  <energy_score>  (1363) 
-54.311894

>  <inchikey>  (1363) 
BEQNWKOKFDIKMV-UHFFFAOYSA-N

>  <smiles>  (1363) 
COC(=O)c1cc(C2CC2)ncc1N(N)c1nnc(C)n1N

>  <ref_pdb>  (1363) 
A0528a

>  <alias>  (1363) 
BEQNWKOKFDIKMV-UHFFFAOYSA-N-P308-P15-P308-601501

>  <HIPPO Pose ID>  (1363) 
502213

>  <name>  (1363) 
BEQNWKOKFDIKMV-UHFFFAOYSA-N-P308-P15-P308-601501

>  <HIPPO Compound ID>  (1363) 
292820

>  <ref_mols>  (1363) 
A4331a,A0514a

>  <distance_score>  (1363) 
1.453342

>  <inspiration_score>  (1363) 
None

$$$$
ZXVRDBJCOJSLQR-UHFFFAOYSA-N-P308-P15-P308-601501
     RDKit          3D

 22 25  0  0  0  0  0  0  0  0999 V2000
    9.7424    9.2720   24.3453 C   0  0  0  0  0  0  0  0  0  0  0  0
    9.2535   10.1024   23.2969 O   0  0  0  0  0  0  0  0  0  0  0  0
    8.6075   11.2533   23.5320 C   0  0  0  0  0  0  0  0  0  0  0  0
    8.1528   11.9621   22.6422 O   0  0  0  0  0  0  0  0  0  0  0  0
    8.2978   11.7710   24.8423 C   0  0  0  0  0  0  0  0  0  0  0  0
    7.2523   11.1252   25.5238 C   0  0  0  0  0  0  0  0  0  0  0  0
    6.4663   11.8774   26.3849 C   0  0  0  0  0  0  0  0  0  0  0  0
    5.2538   11.3312   27.0936 C   0  0  0  0  0  0  0  0  0  0  0  0
    4.0320   12.2157   27.2493 C   0  0  0  0  0  0  0  0  0  0  0  0
    4.8867   11.9277   28.4406 C   0  0  0  0  0  0  0  0  0  0  0  0
    6.7483   13.1835   26.6104 N   0  0  0  0  0  0  0  0  0  0  0  0
    7.7264   13.7827   25.9059 C   0  0  0  0  0  0  0  0  0  0  0  0
    8.5536   13.1351   25.0119 C   0  0  0  0  0  0  0  0  0  0  0  0
    9.3100   13.9315   24.1074 N   0  0  0  0  0  0  0  0  0  0  0  0
    8.6348   14.8758   23.3032 C   0  0  0  0  0  0  0  0  0  0  0  0
    7.4237   15.0348   23.2417 O   0  0  0  0  0  0  0  0  0  0  0  0
    9.6344   15.6404   22.4643 C   0  0  0  0  0  0  0  0  0  0  0  0
   10.7439   16.1085   23.4175 C   0  0  0  0  0  0  0  0  0  0  0  0
   11.4473   14.9174   24.0788 C   0  0  0  0  0  0  0  0  0  0  0  0
   10.7045   13.6757   23.7741 N   0  0  0  0  0  0  0  0  0  0  0  0
   10.8378   13.4899   22.2899 C   0  0  0  0  0  0  0  0  0  0  0  0
   10.2047   14.6317   21.4853 C   0  0  0  0  0  0  0  0  0  0  0  0
  1  2  1  0
  2  3  1  0
  3  4  2  0
  3  5  1  0
  5  6  2  0
  6  7  1  0
  7  8  1  0
  8  9  1  0
  9 10  1  0
  7 11  2  0
 11 12  1  0
 12 13  2  0
 13 14  1  0
 14 15  1  0
 15 16  2  0
 15 17  1  0
 17 18  1  0
 18 19  1  0
 19 20  1  0
 20 21  1  0
 21 22  1  0
 13  5  1  0
 20 14  1  0
 10  8  1  0
 22 17  1  0
M  END
>  <energy_score>  (1364) 
-5.966174

>  <inchikey>  (1364) 
ZXVRDBJCOJSLQR-UHFFFAOYSA-N

>  <smiles>  (1364) 
COC(=O)c1cc(C2CC2)ncc1N1C(=O)C2CCN1CC2

>  <ref_pdb>  (1364) 
A0528a

>  <alias>  (1364) 
ZXVRDBJCOJSLQR-UHFFFAOYSA-N-P308-P15-P308-601501

>  <HIPPO Pose ID>  (1364) 
502215

>  <name>  (1364) 
ZXVRDBJCOJSLQR-UHFFFAOYSA-N-P308-P15-P308-601501

>  <HIPPO Compound ID>  (1364) 
292821

>  <ref_mols>  (1364) 
A4331a,A0514a

>  <distance_score>  (1364) 
1.725261

>  <inspiration_score>  (1364) 
None

$$$$
HPHAZDHAPVIKGR-UHFFFAOYSA-N-P308-P15-P308-601501
     RDKit          3D

 22 25  0  0  0  0  0  0  0  0999 V2000
    9.6099    8.5121   23.4770 C   0  0  0  0  0  0  0  0  0  0  0  0
    8.8948    9.4253   24.3040 O   0  0  0  0  0  0  0  0  0  0  0  0
    8.9451   10.6919   23.8281 C   0  0  0  0  0  0  0  0  0  0  0  0
    9.5306   11.0448   22.8229 O   0  0  0  0  0  0  0  0  0  0  0  0
    8.1919   11.6028   24.7129 C   0  0  0  0  0  0  0  0  0  0  0  0
    7.0997   11.0972   25.4335 C   0  0  0  0  0  0  0  0  0  0  0  0
    6.3675   11.9595   26.2313 C   0  0  0  0  0  0  0  0  0  0  0  0
    5.1949   11.5047   27.0578 C   0  0  0  0  0  0  0  0  0  0  0  0
    3.9810   12.3984   27.1822 C   0  0  0  0  0  0  0  0  0  0  0  0
    4.9013   12.2403   28.3516 C   0  0  0  0  0  0  0  0  0  0  0  0
    6.7140   13.2649   26.3257 N   0  0  0  0  0  0  0  0  0  0  0  0
    7.7521   13.7352   25.6135 C   0  0  0  0  0  0  0  0  0  0  0  0
    8.5448   12.9615   24.7860 C   0  0  0  0  0  0  0  0  0  0  0  0
    9.5633   13.5277   23.9996 N   0  0  0  0  0  0  0  0  0  0  0  0
   10.6221   14.2744   24.7019 C   0  0  0  0  0  0  0  0  0  0  0  0
   11.8000   14.5095   23.7533 C   0  0  0  0  0  0  0  0  0  0  0  0
   11.3777   15.4119   22.6017 C   0  0  0  0  0  0  0  0  0  0  0  0
   10.0438   15.0283   22.0963 C   0  0  0  0  0  0  0  0  0  0  0  0
    9.4332   15.4517   21.0156 N   0  0  0  0  0  0  0  0  0  0  0  0
    8.1794   14.9004   21.0137 N   0  0  0  0  0  0  0  0  0  0  0  0
    8.0450   14.1847   22.1059 C   0  0  0  0  0  0  0  0  0  0  0  0
    9.2167   14.1905   22.8023 N   0  0  0  0  0  0  0  0  0  0  0  0
  1  2  1  0
  2  3  1  0
  3  4  2  0
  3  5  1  0
  5  6  2  0
  6  7  1  0
  7  8  1  0
  8  9  1  0
  9 10  1  0
  7 11  2  0
 11 12  1  0
 12 13  2  0
 13 14  1  0
 14 15  1  0
 15 16  1  0
 16 17  1  0
 17 18  1  0
 18 19  2  0
 19 20  1  0
 20 21  2  0
 21 22  1  0
 13  5  1  0
 22 14  1  0
 10  8  1  0
 22 18  1  0
M  END
>  <energy_score>  (1365) 
-28.223251

>  <inchikey>  (1365) 
HPHAZDHAPVIKGR-UHFFFAOYSA-N

>  <smiles>  (1365) 
COC(=O)c1cc(C2CC2)ncc1N1CCCc2nncn21

>  <ref_pdb>  (1365) 
A0528a

>  <alias>  (1365) 
HPHAZDHAPVIKGR-UHFFFAOYSA-N-P308-P15-P308-601501

>  <HIPPO Pose ID>  (1365) 
502219

>  <name>  (1365) 
HPHAZDHAPVIKGR-UHFFFAOYSA-N-P308-P15-P308-601501

>  <HIPPO Compound ID>  (1365) 
292823

>  <ref_mols>  (1365) 
A4331a,A0514a

>  <distance_score>  (1365) 
1.809002

>  <inspiration_score>  (1365) 
None

$$$$
BBXMKBQRKZHMKJ-UHFFFAOYSA-N-P15-P15-P308-601501
     RDKit          3D

 22 24  0  0  0  0  0  0  0  0999 V2000
    9.3555    8.7322   23.0289 C   0  0  0  0  0  0  0  0  0  0  0  0
    8.4912    9.6097   23.7528 O   0  0  0  0  0  0  0  0  0  0  0  0
    8.9968   10.8559   23.8907 C   0  0  0  0  0  0  0  0  0  0  0  0
   10.1042   11.2250   23.5443 O   0  0  0  0  0  0  0  0  0  0  0  0
    8.0638   11.7292   24.6195 C   0  0  0  0  0  0  0  0  0  0  0  0
    7.2783   11.1892   25.6374 C   0  0  0  0  0  0  0  0  0  0  0  0
    6.4888   12.0266   26.4155 C   0  0  0  0  0  0  0  0  0  0  0  0
    5.6085   11.4885   27.5109 C   0  0  0  0  0  0  0  0  0  0  0  0
    4.2318   12.0773   27.7135 C   0  0  0  0  0  0  0  0  0  0  0  0
    5.3173   12.3722   28.7048 C   0  0  0  0  0  0  0  0  0  0  0  0
    6.4998   13.3598   26.2260 N   0  0  0  0  0  0  0  0  0  0  0  0
    7.1770   13.8382   25.1731 C   0  0  0  0  0  0  0  0  0  0  0  0
    7.9767   13.0874   24.3250 C   0  0  0  0  0  0  0  0  0  0  0  0
    8.4308   13.6622   23.1287 N   0  0  0  0  0  0  0  0  0  0  0  0
    7.3980   13.9286   22.2099 N   0  0  0  0  0  0  0  0  0  0  0  0
    9.7231   14.0679   22.7211 C   0  0  0  0  0  0  0  0  0  0  0  0
   10.8232   14.0762   23.5721 C   0  0  0  0  0  0  0  0  0  0  0  0
   12.0533   14.5062   23.2045 N   0  0  0  0  0  0  0  0  0  0  0  0
   12.1581   14.8758   21.9016 C   0  0  0  0  0  0  0  0  0  0  0  0
   11.0894   14.8429   21.0167 C   0  0  0  0  0  0  0  0  0  0  0  0
   11.2726   15.1212   19.5605 C   0  0  0  0  0  0  0  0  0  0  0  0
    9.8514   14.4891   21.4332 N   0  0  0  0  0  0  0  0  0  0  0  0
  1  2  1  0
  2  3  1  0
  3  4  2  0
  3  5  1  0
  5  6  2  0
  6  7  1  0
  7  8  1  0
  8  9  1  0
  9 10  1  0
  7 11  2  0
 11 12  1  0
 12 13  2  0
 13 14  1  0
 14 15  1  0
 14 16  1  0
 16 17  2  0
 17 18  1  0
 18 19  2  0
 19 20  1  0
 20 21  1  0
 20 22  2  0
 13  5  1  0
 22 16  1  0
 10  8  1  0
M  END
>  <energy_score>  (1366) 
-30.98176

>  <inchikey>  (1366) 
BBXMKBQRKZHMKJ-UHFFFAOYSA-N

>  <smiles>  (1366) 
COC(=O)c1cc(C2CC2)ncc1N(N)c1cncc(C)n1

>  <ref_pdb>  (1366) 
A0528a

>  <alias>  (1366) 
BBXMKBQRKZHMKJ-UHFFFAOYSA-N-P15-P15-P308-601501

>  <HIPPO Pose ID>  (1366) 
502220

>  <name>  (1366) 
BBXMKBQRKZHMKJ-UHFFFAOYSA-N-P15-P15-P308-601501

>  <HIPPO Compound ID>  (1366) 
292824

>  <ref_mols>  (1366) 
A4331a,A0514a

>  <distance_score>  (1366) 
1.820342

>  <inspiration_score>  (1366) 
None

$$$$
ADHYBGUOMJVEIS-UHFFFAOYSA-N-P308-P15-P308-601501
     RDKit          3D

 23 24  0  0  0  0  0  0  0  0999 V2000
    9.6227    8.7547   23.0983 C   0  0  0  0  0  0  0  0  0  0  0  0
    8.7901    9.7297   23.7125 O   0  0  0  0  0  0  0  0  0  0  0  0
    9.4405   10.6766   24.4255 C   0  0  0  0  0  0  0  0  0  0  0  0
   10.6382   10.7613   24.6385 O   0  0  0  0  0  0  0  0  0  0  0  0
    8.4157   11.5839   24.9718 C   0  0  0  0  0  0  0  0  0  0  0  0
    7.2711   11.0136   25.5486 C   0  0  0  0  0  0  0  0  0  0  0  0
    6.3491   11.8511   26.1603 C   0  0  0  0  0  0  0  0  0  0  0  0
    5.1624   11.2915   26.8990 C   0  0  0  0  0  0  0  0  0  0  0  0
    4.0135   11.9825   26.6829 F   0  0  0  0  0  0  0  0  0  0  0  0
    4.9007    9.9925   26.5766 F   0  0  0  0  0  0  0  0  0  0  0  0
    5.3275   11.2951   28.2535 F   0  0  0  0  0  0  0  0  0  0  0  0
    6.5199   13.1954   26.1913 N   0  0  0  0  0  0  0  0  0  0  0  0
    7.5992   13.7143   25.5732 C   0  0  0  0  0  0  0  0  0  0  0  0
    8.6102   12.9683   24.9774 C   0  0  0  0  0  0  0  0  0  0  0  0
    9.7376   13.5936   24.3736 N   0  0  0  0  0  0  0  0  0  0  0  0
   10.4250   14.5360   25.1924 N   0  0  0  0  0  0  0  0  0  0  0  0
    9.5626   14.0725   23.0904 C   0  0  0  0  0  0  0  0  0  0  0  0
    8.4680   13.9915   22.3581 N   0  0  0  0  0  0  0  0  0  0  0  0
    8.7044   14.5699   21.1422 N   0  0  0  0  0  0  0  0  0  0  0  0
    9.9608   14.9586   21.1056 C   0  0  0  0  0  0  0  0  0  0  0  0
   10.6527   15.5738   19.9460 C   0  0  0  0  0  0  0  0  0  0  0  0
   10.5373   14.6903   22.3241 N   0  0  0  0  0  0  0  0  0  0  0  0
   11.8932   14.9814   22.7016 C   0  0  0  0  0  0  0  0  0  0  0  0
  1  2  1  0
  2  3  1  0
  3  4  2  0
  3  5  1  0
  5  6  2  0
  6  7  1  0
  7  8  1  0
  8  9  1  0
  8 10  1  0
  8 11  1  0
  7 12  2  0
 12 13  1  0
 13 14  2  0
 14 15  1  0
 15 16  1  0
 15 17  1  0
 17 18  2  0
 18 19  1  0
 19 20  2  0
 20 21  1  0
 20 22  1  0
 22 23  1  0
 14  5  1  0
 22 17  1  0
M  END
>  <energy_score>  (1367) 
-56.52143

>  <inchikey>  (1367) 
ADHYBGUOMJVEIS-UHFFFAOYSA-N

>  <smiles>  (1367) 
COC(=O)c1cc(C(F)(F)F)ncc1N(N)c1nnc(C)n1C

>  <ref_pdb>  (1367) 
A0528a

>  <alias>  (1367) 
ADHYBGUOMJVEIS-UHFFFAOYSA-N-P308-P15-P308-601501

>  <HIPPO Pose ID>  (1367) 
502229

>  <name>  (1367) 
ADHYBGUOMJVEIS-UHFFFAOYSA-N-P308-P15-P308-601501

>  <HIPPO Compound ID>  (1367) 
292828

>  <ref_mols>  (1367) 
A4331a,A0514a

>  <distance_score>  (1367) 
1.138558

>  <inspiration_score>  (1367) 
None

$$$$
RNMSNPBHOCLOAE-UHFFFAOYSA-N-P308-P15-P308-601501
     RDKit          3D

 23 25  0  0  0  0  0  0  0  0999 V2000
    9.4468    8.5173   23.6176 C   0  0  0  0  0  0  0  0  0  0  0  0
    8.7588    9.4661   24.4276 O   0  0  0  0  0  0  0  0  0  0  0  0
    8.8631   10.7203   23.9322 C   0  0  0  0  0  0  0  0  0  0  0  0
    9.4602   11.0313   22.9202 O   0  0  0  0  0  0  0  0  0  0  0  0
    8.1498   11.6661   24.8169 C   0  0  0  0  0  0  0  0  0  0  0  0
    6.9998   11.2366   25.4913 C   0  0  0  0  0  0  0  0  0  0  0  0
    6.3073   12.1588   26.2653 C   0  0  0  0  0  0  0  0  0  0  0  0
    5.0658   11.7762   27.0276 C   0  0  0  0  0  0  0  0  0  0  0  0
    4.8536   10.4366   27.0433 F   0  0  0  0  0  0  0  0  0  0  0  0
    5.1184   12.1361   28.3431 F   0  0  0  0  0  0  0  0  0  0  0  0
    3.9213   12.3208   26.5310 F   0  0  0  0  0  0  0  0  0  0  0  0
    6.7244   13.4441   26.3905 N   0  0  0  0  0  0  0  0  0  0  0  0
    7.8232   13.8306   25.7190 C   0  0  0  0  0  0  0  0  0  0  0  0
    8.5943   12.9946   24.9245 C   0  0  0  0  0  0  0  0  0  0  0  0
    9.6808   13.4853   24.1781 N   0  0  0  0  0  0  0  0  0  0  0  0
   10.7582   14.1348   24.9412 C   0  0  0  0  0  0  0  0  0  0  0  0
   11.9552   14.3993   24.0304 C   0  0  0  0  0  0  0  0  0  0  0  0
   11.5671   15.4289   22.9844 C   0  0  0  0  0  0  0  0  0  0  0  0
   10.2687   15.0768   22.3771 C   0  0  0  0  0  0  0  0  0  0  0  0
    9.7671   15.5622   21.2682 N   0  0  0  0  0  0  0  0  0  0  0  0
    8.5595   14.9537   21.1586 C   0  0  0  0  0  0  0  0  0  0  0  0
    8.2835   14.1414   22.2286 C   0  0  0  0  0  0  0  0  0  0  0  0
    9.4099   14.1941   22.9934 N   0  0  0  0  0  0  0  0  0  0  0  0
  1  2  1  0
  2  3  1  0
  3  4  2  0
  3  5  1  0
  5  6  2  0
  6  7  1  0
  7  8  1  0
  8  9  1  0
  8 10  1  0
  8 11  1  0
  7 12  2  0
 12 13  1  0
 13 14  2  0
 14 15  1  0
 15 16  1  0
 16 17  1  0
 17 18  1  0
 18 19  1  0
 19 20  2  0
 20 21  1  0
 21 22  2  0
 22 23  1  0
 14  5  1  0
 23 15  1  0
 23 19  1  0
M  END
>  <energy_score>  (1368) 
-30.714049

>  <inchikey>  (1368) 
RNMSNPBHOCLOAE-UHFFFAOYSA-N

>  <smiles>  (1368) 
COC(=O)c1cc(C(F)(F)F)ncc1N1CCCc2nccn21

>  <ref_pdb>  (1368) 
A0528a

>  <alias>  (1368) 
RNMSNPBHOCLOAE-UHFFFAOYSA-N-P308-P15-P308-601501

>  <HIPPO Pose ID>  (1368) 
502233

>  <name>  (1368) 
RNMSNPBHOCLOAE-UHFFFAOYSA-N-P308-P15-P308-601501

>  <HIPPO Compound ID>  (1368) 
292830

>  <ref_mols>  (1368) 
A4331a,A0514a

>  <distance_score>  (1368) 
1.537521

>  <inspiration_score>  (1368) 
None

$$$$
ZXBMJECTTZLGQO-UHFFFAOYSA-N-P308-P15-P308-601501
     RDKit          3D

 23 25  0  0  0  0  0  0  0  0999 V2000
    9.6007    8.6871   23.0347 C   0  0  0  0  0  0  0  0  0  0  0  0
    8.7864    9.6916   23.6193 O   0  0  0  0  0  0  0  0  0  0  0  0
    9.4608   10.6182   24.3321 C   0  0  0  0  0  0  0  0  0  0  0  0
   10.6514   10.6646   24.5853 O   0  0  0  0  0  0  0  0  0  0  0  0
    8.4594   11.5528   24.8440 C   0  0  0  0  0  0  0  0  0  0  0  0
    7.4007   11.0251   25.6017 C   0  0  0  0  0  0  0  0  0  0  0  0
    6.4569   11.8953   26.1317 C   0  0  0  0  0  0  0  0  0  0  0  0
    5.2814   11.3935   26.9328 C   0  0  0  0  0  0  0  0  0  0  0  0
    4.1172   12.0383   26.6577 F   0  0  0  0  0  0  0  0  0  0  0  0
    5.4515   11.5323   28.2791 F   0  0  0  0  0  0  0  0  0  0  0  0
    5.0314   10.0666   26.7344 F   0  0  0  0  0  0  0  0  0  0  0  0
    6.5744   13.2349   25.9774 N   0  0  0  0  0  0  0  0  0  0  0  0
    7.5460   13.6966   25.1635 C   0  0  0  0  0  0  0  0  0  0  0  0
    8.5181   12.9097   24.5555 C   0  0  0  0  0  0  0  0  0  0  0  0
    9.2421   13.4320   23.4468 N   0  0  0  0  0  0  0  0  0  0  0  0
    8.4659   14.0394   22.4335 C   0  0  0  0  0  0  0  0  0  0  0  0
    7.3635   13.6358   22.0761 O   0  0  0  0  0  0  0  0  0  0  0  0
    9.1760   15.2484   21.8566 C   0  0  0  0  0  0  0  0  0  0  0  0
   10.4837   14.7829   21.2424 C   0  0  0  0  0  0  0  0  0  0  0  0
   11.2473   13.9654   22.2941 C   0  0  0  0  0  0  0  0  0  0  0  0
   10.5679   13.9956   23.6296 N   0  0  0  0  0  0  0  0  0  0  0  0
   10.4550   15.4172   24.0165 C   0  0  0  0  0  0  0  0  0  0  0  0
    9.5404   16.1570   23.0328 C   0  0  0  0  0  0  0  0  0  0  0  0
  1  2  1  0
  2  3  1  0
  3  4  2  0
  3  5  1  0
  5  6  2  0
  6  7  1  0
  7  8  1  0
  8  9  1  0
  8 10  1  0
  8 11  1  0
  7 12  2  0
 12 13  1  0
 13 14  2  0
 14 15  1  0
 15 16  1  0
 16 17  2  0
 16 18  1  0
 18 19  1  0
 19 20  1  0
 20 21  1  0
 21 22  1  0
 22 23  1  0
 14  5  1  0
 21 15  1  0
 23 18  1  0
M  END
>  <energy_score>  (1369) 
-8.426393

>  <inchikey>  (1369) 
ZXBMJECTTZLGQO-UHFFFAOYSA-N

>  <smiles>  (1369) 
COC(=O)c1cc(C(F)(F)F)ncc1N1C(=O)C2CCN1CC2

>  <ref_pdb>  (1369) 
A0528a

>  <alias>  (1369) 
ZXBMJECTTZLGQO-UHFFFAOYSA-N-P308-P15-P308-601501

>  <HIPPO Pose ID>  (1369) 
502245

>  <name>  (1369) 
ZXBMJECTTZLGQO-UHFFFAOYSA-N-P308-P15-P308-601501

>  <HIPPO Compound ID>  (1369) 
292836

>  <ref_mols>  (1369) 
A4331a,A0514a

>  <distance_score>  (1369) 
1.555454

>  <inspiration_score>  (1369) 
None

$$$$
GVZWXALMESLJSY-UHFFFAOYSA-N-P308-P15-P308-601501
     RDKit          3D

 23 24  0  0  0  0  0  0  0  0999 V2000
    9.5040    8.8387   23.1721 C   0  0  0  0  0  0  0  0  0  0  0  0
    8.6496    9.8446   23.7147 O   0  0  0  0  0  0  0  0  0  0  0  0
    9.3033   10.8935   24.2591 C   0  0  0  0  0  0  0  0  0  0  0  0
   10.5032   11.0593   24.3815 O   0  0  0  0  0  0  0  0  0  0  0  0
    8.3040   11.8250   24.7895 C   0  0  0  0  0  0  0  0  0  0  0  0
    7.3371   11.3326   25.6600 C   0  0  0  0  0  0  0  0  0  0  0  0
    6.4216   12.2198   26.2086 C   0  0  0  0  0  0  0  0  0  0  0  0
    5.2513   11.7031   27.0103 C   0  0  0  0  0  0  0  0  0  0  0  0
    5.2675   12.1375   28.2977 F   0  0  0  0  0  0  0  0  0  0  0  0
    5.2061   10.3401   27.0857 F   0  0  0  0  0  0  0  0  0  0  0  0
    4.0402   12.0759   26.5087 F   0  0  0  0  0  0  0  0  0  0  0  0
    6.5325   13.5591   26.0357 N   0  0  0  0  0  0  0  0  0  0  0  0
    7.4464   13.9899   25.1484 C   0  0  0  0  0  0  0  0  0  0  0  0
    8.2920   13.1656   24.4160 C   0  0  0  0  0  0  0  0  0  0  0  0
    8.7157   13.5639   23.1234 N   0  0  0  0  0  0  0  0  0  0  0  0
    7.6229   13.8409   22.2409 N   0  0  0  0  0  0  0  0  0  0  0  0
    9.8872   14.2770   22.8529 C   0  0  0  0  0  0  0  0  0  0  0  0
   10.7763   14.6038   23.7458 N   0  0  0  0  0  0  0  0  0  0  0  0
   11.9257   15.3319   23.3754 N   0  0  0  0  0  0  0  0  0  0  0  0
   12.1004   15.6453   22.1287 C   0  0  0  0  0  0  0  0  0  0  0  0
   11.1447   15.2474   21.0589 C   0  0  0  0  0  0  0  0  0  0  0  0
   11.3828   15.4641   19.8841 O   0  0  0  0  0  0  0  0  0  0  0  0
   10.0402   14.6292   21.5344 N   0  0  0  0  0  0  0  0  0  0  0  0
  1  2  1  0
  2  3  1  0
  3  4  2  0
  3  5  1  0
  5  6  2  0
  6  7  1  0
  7  8  1  0
  8  9  1  0
  8 10  1  0
  8 11  1  0
  7 12  2  0
 12 13  1  0
 13 14  2  0
 14 15  1  0
 15 16  1  0
 15 17  1  0
 17 18  2  0
 18 19  1  0
 19 20  2  0
 20 21  1  0
 21 22  2  0
 21 23  1  0
 14  5  1  0
 23 17  1  0
M  END
>  <energy_score>  (1370) 
-38.676543

>  <inchikey>  (1370) 
GVZWXALMESLJSY-UHFFFAOYSA-N

>  <smiles>  (1370) 
COC(=O)c1cc(C(F)(F)F)ncc1N(N)c1nncc(=O)[nH]1

>  <ref_pdb>  (1370) 
A0528a

>  <alias>  (1370) 
GVZWXALMESLJSY-UHFFFAOYSA-N-P308-P15-P308-601501

>  <HIPPO Pose ID>  (1370) 
502257

>  <name>  (1370) 
GVZWXALMESLJSY-UHFFFAOYSA-N-P308-P15-P308-601501

>  <HIPPO Compound ID>  (1370) 
292842

>  <ref_mols>  (1370) 
A4331a,A0514a

>  <distance_score>  (1370) 
1.671347

>  <inspiration_score>  (1370) 
None

$$$$
VFEKSYUDHLUFCA-UHFFFAOYSA-N-P308-P15-P308-601501
     RDKit          3D

 23 24  0  0  0  0  0  0  0  0999 V2000
   10.8711   15.4433   18.8978 C   0  0  0  0  0  0  0  0  0  0  0  0
   10.8436   16.0560   20.1752 O   0  0  0  0  0  0  0  0  0  0  0  0
    9.5976   15.8984   20.8322 C   0  0  0  0  0  0  0  0  0  0  0  0
    9.7997   14.9688   21.9702 C   0  0  0  0  0  0  0  0  0  0  0  0
    8.8536   14.2609   22.5054 N   0  0  0  0  0  0  0  0  0  0  0  0
    9.4450   13.5415   23.5182 N   0  0  0  0  0  0  0  0  0  0  0  0
    8.5471   12.9793   24.4443 C   0  0  0  0  0  0  0  0  0  0  0  0
    7.4737   13.7505   24.8758 C   0  0  0  0  0  0  0  0  0  0  0  0
    6.4559   13.3012   25.6347 N   0  0  0  0  0  0  0  0  0  0  0  0
    6.4236   11.9829   25.9345 C   0  0  0  0  0  0  0  0  0  0  0  0
    5.3519   11.5297   26.8826 C   0  0  0  0  0  0  0  0  0  0  0  0
    4.1369   12.1025   26.6915 F   0  0  0  0  0  0  0  0  0  0  0  0
    5.1456   10.1835   26.8769 F   0  0  0  0  0  0  0  0  0  0  0  0
    5.7076   11.8451   28.1567 F   0  0  0  0  0  0  0  0  0  0  0  0
    7.4299   11.1191   25.5301 C   0  0  0  0  0  0  0  0  0  0  0  0
    8.5109   11.6354   24.7979 C   0  0  0  0  0  0  0  0  0  0  0  0
    9.5051   10.6694   24.3270 C   0  0  0  0  0  0  0  0  0  0  0  0
   10.6959   10.7002   24.5644 O   0  0  0  0  0  0  0  0  0  0  0  0
    8.8172    9.7393   23.6280 O   0  0  0  0  0  0  0  0  0  0  0  0
    9.6123    8.6984   23.0796 C   0  0  0  0  0  0  0  0  0  0  0  0
   10.7921   13.8955   23.7285 C   0  0  0  0  0  0  0  0  0  0  0  0
   11.5839   13.6084   24.6045 O   0  0  0  0  0  0  0  0  0  0  0  0
   11.1231   14.8379   22.6303 C   0  0  0  0  0  0  0  0  0  0  0  0
  1  2  1  0
  2  3  1  0
  3  4  1  0
  4  5  2  0
  5  6  1  0
  6  7  1  0
  7  8  2  0
  8  9  1  0
  9 10  2  0
 10 11  1  0
 11 12  1  0
 11 13  1  0
 11 14  1  0
 10 15  1  0
 15 16  2  0
 16 17  1  0
 17 18  2  0
 17 19  1  0
 19 20  1  0
  6 21  1  0
 21 22  2  0
 21 23  1  0
 23  4  1  0
 16  7  1  0
M  END
>  <energy_score>  (1371) 
-32.887486

>  <inchikey>  (1371) 
VFEKSYUDHLUFCA-UHFFFAOYSA-N

>  <smiles>  (1371) 
COCC1=NN(c2cnc(C(F)(F)F)cc2C(=O)OC)C(=O)C1

>  <ref_pdb>  (1371) 
A0528a

>  <alias>  (1371) 
VFEKSYUDHLUFCA-UHFFFAOYSA-N-P308-P15-P308-601501

>  <HIPPO Pose ID>  (1371) 
502281

>  <name>  (1371) 
VFEKSYUDHLUFCA-UHFFFAOYSA-N-P308-P15-P308-601501

>  <HIPPO Compound ID>  (1371) 
292854

>  <ref_mols>  (1371) 
A4331a,A0514a

>  <distance_score>  (1371) 
1.621451

>  <inspiration_score>  (1371) 
None

$$$$
NSFJIFBLQCRDOY-UHFFFAOYSA-N-P308-P15-P308-601501
     RDKit          3D

 23 24  0  0  0  0  0  0  0  0999 V2000
    9.3132    8.4006   23.5989 C   0  0  0  0  0  0  0  0  0  0  0  0
    8.5782    9.3114   24.4089 O   0  0  0  0  0  0  0  0  0  0  0  0
    8.6197   10.5593   23.8921 C   0  0  0  0  0  0  0  0  0  0  0  0
    9.1871   10.8676   22.8595 O   0  0  0  0  0  0  0  0  0  0  0  0
    7.9199   11.5051   24.7849 C   0  0  0  0  0  0  0  0  0  0  0  0
    6.8144   11.0677   25.5240 C   0  0  0  0  0  0  0  0  0  0  0  0
    6.1362   11.9944   26.3074 C   0  0  0  0  0  0  0  0  0  0  0  0
    4.9575   11.6066   27.1557 C   0  0  0  0  0  0  0  0  0  0  0  0
    4.7264   10.2704   27.1415 F   0  0  0  0  0  0  0  0  0  0  0  0
    3.7843   12.1813   26.7721 F   0  0  0  0  0  0  0  0  0  0  0  0
    5.1220   11.9189   28.4735 F   0  0  0  0  0  0  0  0  0  0  0  0
    6.5229   13.2881   26.3823 N   0  0  0  0  0  0  0  0  0  0  0  0
    7.5853   13.6739   25.6576 C   0  0  0  0  0  0  0  0  0  0  0  0
    8.3319   12.8442   24.8333 C   0  0  0  0  0  0  0  0  0  0  0  0
    9.4409   13.3594   24.1570 N   0  0  0  0  0  0  0  0  0  0  0  0
   10.6778   12.7044   24.3515 N   0  0  0  0  0  0  0  0  0  0  0  0
    9.2690   14.3632   23.0377 C   0  0  0  0  0  0  0  0  0  0  0  0
    7.8379   14.3113   22.4557 C   0  0  0  0  0  0  0  0  0  0  0  0
   10.2591   14.1334   21.8551 C   0  0  0  0  0  0  0  0  0  0  0  0
   11.4706   15.0646   21.8765 C   0  0  0  0  0  0  0  0  0  0  0  0
   11.9531   15.2319   23.2003 O   0  0  0  0  0  0  0  0  0  0  0  0
   11.0033   15.8518   24.0617 C   0  0  0  0  0  0  0  0  0  0  0  0
    9.5529   15.7540   23.6024 C   0  0  0  0  0  0  0  0  0  0  0  0
  1  2  1  0
  2  3  1  0
  3  4  2  0
  3  5  1  0
  5  6  2  0
  6  7  1  0
  7  8  1  0
  8  9  1  0
  8 10  1  0
  8 11  1  0
  7 12  2  0
 12 13  1  0
 13 14  2  0
 14 15  1  0
 15 16  1  0
 15 17  1  0
 17 18  1  0
 17 19  1  0
 19 20  1  0
 20 21  1  0
 21 22  1  0
 22 23  1  0
 14  5  1  0
 23 17  1  0
M  END
>  <energy_score>  (1372) 
-41.968508

>  <inchikey>  (1372) 
NSFJIFBLQCRDOY-UHFFFAOYSA-N

>  <smiles>  (1372) 
COC(=O)c1cc(C(F)(F)F)ncc1N(N)C1(C)CCOCC1

>  <ref_pdb>  (1372) 
A0528a

>  <alias>  (1372) 
NSFJIFBLQCRDOY-UHFFFAOYSA-N-P308-P15-P308-601501

>  <HIPPO Pose ID>  (1372) 
502287

>  <name>  (1372) 
NSFJIFBLQCRDOY-UHFFFAOYSA-N-P308-P15-P308-601501

>  <HIPPO Compound ID>  (1372) 
292857

>  <ref_mols>  (1372) 
A4331a,A0514a

>  <distance_score>  (1372) 
1.176191

>  <inspiration_score>  (1372) 
None

$$$$
DBJKBWJDHLTAOV-UHFFFAOYSA-N-P15-P15-P308-601501
     RDKit          3D

 23 23  0  0  0  0  0  0  0  0999 V2000
    6.0578   15.7121   23.5524 C   0  0  0  0  0  0  0  0  0  0  0  0
    6.4004   14.3632   23.2513 O   0  0  0  0  0  0  0  0  0  0  0  0
    7.5679   14.2619   22.4402 C   0  0  0  0  0  0  0  0  0  0  0  0
    8.8850   14.1761   23.2395 C   0  0  0  0  0  0  0  0  0  0  0  0
   10.0644   14.3330   22.2567 C   0  0  0  0  0  0  0  0  0  0  0  0
    9.7831   15.2653   21.2273 O   0  0  0  0  0  0  0  0  0  0  0  0
   10.8774   15.3628   20.3296 C   0  0  0  0  0  0  0  0  0  0  0  0
    9.0828   12.8938   23.9939 N   0  0  0  0  0  0  0  0  0  0  0  0
   10.3813   12.6350   24.5179 N   0  0  0  0  0  0  0  0  0  0  0  0
    8.0693   12.4611   24.8589 C   0  0  0  0  0  0  0  0  0  0  0  0
    7.4425   13.3474   25.7342 C   0  0  0  0  0  0  0  0  0  0  0  0
    6.4983   13.0274   26.6409 N   0  0  0  0  0  0  0  0  0  0  0  0
    6.0709   11.7463   26.6655 C   0  0  0  0  0  0  0  0  0  0  0  0
    5.0333   11.3721   27.6830 C   0  0  0  0  0  0  0  0  0  0  0  0
    4.0272   12.2838   27.7662 F   0  0  0  0  0  0  0  0  0  0  0  0
    5.5513   11.2606   28.9416 F   0  0  0  0  0  0  0  0  0  0  0  0
    4.4192   10.1783   27.4413 F   0  0  0  0  0  0  0  0  0  0  0  0
    6.6273   10.7791   25.8563 C   0  0  0  0  0  0  0  0  0  0  0  0
    7.6631   11.1259   24.9763 C   0  0  0  0  0  0  0  0  0  0  0  0
    8.2528    9.9547   24.2988 C   0  0  0  0  0  0  0  0  0  0  0  0
    7.9123    8.8341   24.6536 O   0  0  0  0  0  0  0  0  0  0  0  0
    9.1507   10.2148   23.3318 O   0  0  0  0  0  0  0  0  0  0  0  0
    9.7066    9.0184   22.7896 C   0  0  0  0  0  0  0  0  0  0  0  0
  1  2  1  0
  2  3  1  0
  3  4  1  0
  4  5  1  0
  5  6  1  0
  6  7  1  0
  4  8  1  0
  8  9  1  0
  8 10  1  0
 10 11  2  0
 11 12  1  0
 12 13  2  0
 13 14  1  0
 14 15  1  0
 14 16  1  0
 14 17  1  0
 13 18  1  0
 18 19  2  0
 19 20  1  0
 20 21  2  0
 20 22  1  0
 22 23  1  0
 19 10  1  0
M  END
>  <energy_score>  (1373) 
-44.019219

>  <inchikey>  (1373) 
DBJKBWJDHLTAOV-UHFFFAOYSA-N

>  <smiles>  (1373) 
COCC(COC)N(N)c1cnc(C(F)(F)F)cc1C(=O)OC

>  <ref_pdb>  (1373) 
A0528a

>  <alias>  (1373) 
DBJKBWJDHLTAOV-UHFFFAOYSA-N-P15-P15-P308-601501

>  <HIPPO Pose ID>  (1373) 
502288

>  <name>  (1373) 
DBJKBWJDHLTAOV-UHFFFAOYSA-N-P15-P15-P308-601501

>  <HIPPO Compound ID>  (1373) 
292858

>  <ref_mols>  (1373) 
A4331a,A0514a

>  <distance_score>  (1373) 
1.320091

>  <inspiration_score>  (1373) 
None

$$$$
KZKQFHALAJCFRD-UHFFFAOYSA-N-P308-P15-P308-601501
     RDKit          3D

 23 24  0  0  0  0  0  0  0  0999 V2000
   10.5042   16.0822   18.8247 C   0  0  0  0  0  0  0  0  0  0  0  0
   10.7307   15.4252   20.1626 C   0  0  0  0  0  0  0  0  0  0  0  0
    9.4578   15.3978   21.0018 C   0  0  0  0  0  0  0  0  0  0  0  0
    9.6744   14.5236   22.1850 C   0  0  0  0  0  0  0  0  0  0  0  0
    8.8177   13.6556   22.6345 N   0  0  0  0  0  0  0  0  0  0  0  0
    9.4162   13.0322   23.7281 N   0  0  0  0  0  0  0  0  0  0  0  0
    8.4681   12.6071   24.6921 C   0  0  0  0  0  0  0  0  0  0  0  0
    7.8049   13.5850   25.4262 C   0  0  0  0  0  0  0  0  0  0  0  0
    6.7616   13.3583   26.2567 N   0  0  0  0  0  0  0  0  0  0  0  0
    6.2887   12.0922   26.3546 C   0  0  0  0  0  0  0  0  0  0  0  0
    5.1232   11.8194   27.2734 C   0  0  0  0  0  0  0  0  0  0  0  0
    4.0381   12.5908   27.0087 F   0  0  0  0  0  0  0  0  0  0  0  0
    5.4250   12.0326   28.5872 F   0  0  0  0  0  0  0  0  0  0  0  0
    4.6747   10.5302   27.2169 F   0  0  0  0  0  0  0  0  0  0  0  0
    6.8890   11.0504   25.6766 C   0  0  0  0  0  0  0  0  0  0  0  0
    7.9959   11.2987   24.8484 C   0  0  0  0  0  0  0  0  0  0  0  0
    8.5252   10.0620   24.2495 C   0  0  0  0  0  0  0  0  0  0  0  0
    8.1246    8.9643   24.6154 O   0  0  0  0  0  0  0  0  0  0  0  0
    9.4200   10.2820   23.2757 O   0  0  0  0  0  0  0  0  0  0  0  0
    9.8324    9.0622   22.6709 C   0  0  0  0  0  0  0  0  0  0  0  0
   10.6324   13.6704   24.0694 C   0  0  0  0  0  0  0  0  0  0  0  0
   11.3714   13.5226   25.0250 O   0  0  0  0  0  0  0  0  0  0  0  0
   10.9121   14.6453   22.9935 C   0  0  0  0  0  0  0  0  0  0  0  0
  1  2  1  0
  2  3  1  0
  3  4  1  0
  4  5  2  0
  5  6  1  0
  6  7  1  0
  7  8  2  0
  8  9  1  0
  9 10  2  0
 10 11  1  0
 11 12  1  0
 11 13  1  0
 11 14  1  0
 10 15  1  0
 15 16  2  0
 16 17  1  0
 17 18  2  0
 17 19  1  0
 19 20  1  0
  6 21  1  0
 21 22  2  0
 21 23  1  0
 23  4  1  0
 16  7  1  0
M  END
>  <energy_score>  (1374) 
-23.872679

>  <inchikey>  (1374) 
KZKQFHALAJCFRD-UHFFFAOYSA-N

>  <smiles>  (1374) 
CCCC1=NN(c2cnc(C(F)(F)F)cc2C(=O)OC)C(=O)C1

>  <ref_pdb>  (1374) 
A0528a

>  <alias>  (1374) 
KZKQFHALAJCFRD-UHFFFAOYSA-N-P308-P15-P308-601501

>  <HIPPO Pose ID>  (1374) 
502295

>  <name>  (1374) 
KZKQFHALAJCFRD-UHFFFAOYSA-N-P308-P15-P308-601501

>  <HIPPO Compound ID>  (1374) 
292861

>  <ref_mols>  (1374) 
A4331a,A0514a

>  <distance_score>  (1374) 
1.569646

>  <inspiration_score>  (1374) 
None

$$$$
BRLVIBKSNUBABO-UHFFFAOYSA-N-P308-P15-P308-601501
     RDKit          3D

 23 24  0  0  0  0  0  0  0  0999 V2000
    9.2641    8.4483   23.8523 C   0  0  0  0  0  0  0  0  0  0  0  0
    8.5927    9.5083   24.5207 O   0  0  0  0  0  0  0  0  0  0  0  0
    8.6215   10.6594   23.8097 C   0  0  0  0  0  0  0  0  0  0  0  0
    9.1912   10.7843   22.7423 O   0  0  0  0  0  0  0  0  0  0  0  0
    7.9117   11.7271   24.5644 C   0  0  0  0  0  0  0  0  0  0  0  0
    6.8980   11.3073   25.4320 C   0  0  0  0  0  0  0  0  0  0  0  0
    6.2108   12.2419   26.1829 C   0  0  0  0  0  0  0  0  0  0  0  0
    5.1589   11.7856   27.1644 C   0  0  0  0  0  0  0  0  0  0  0  0
    3.9531   12.3807   26.9835 F   0  0  0  0  0  0  0  0  0  0  0  0
    4.9136   10.4413   27.1041 F   0  0  0  0  0  0  0  0  0  0  0  0
    5.5056   12.0230   28.4624 F   0  0  0  0  0  0  0  0  0  0  0  0
    6.4865   13.5572   26.0918 N   0  0  0  0  0  0  0  0  0  0  0  0
    7.4467   13.9349   25.2187 C   0  0  0  0  0  0  0  0  0  0  0  0
    8.2276   13.0961   24.4263 C   0  0  0  0  0  0  0  0  0  0  0  0
    9.2979   13.5720   23.6503 N   0  0  0  0  0  0  0  0  0  0  0  0
   10.4743   12.8084   23.7296 N   0  0  0  0  0  0  0  0  0  0  0  0
    9.4647   15.0072   23.2479 C   0  0  1  0  0  0  0  0  0  0  0  0
   10.7627   15.5808   23.8341 C   0  0  0  0  0  0  0  0  0  0  0  0
   11.9576   15.2509   22.9587 C   0  0  0  0  0  0  0  0  0  0  0  0
   11.7447   15.8045   21.6749 O   0  0  0  0  0  0  0  0  0  0  0  0
   10.7209   15.0891   20.9828 C   0  0  2  0  0  0  0  0  0  0  0  0
   10.6603   15.6820   19.5812 C   0  0  0  0  0  0  0  0  0  0  0  0
    9.3804   15.2019   21.7194 C   0  0  0  0  0  0  0  0  0  0  0  0
  1  2  1  0
  2  3  1  0
  3  4  2  0
  3  5  1  0
  5  6  2  0
  6  7  1  0
  7  8  1  0
  8  9  1  0
  8 10  1  0
  8 11  1  0
  7 12  2  0
 12 13  1  0
 13 14  2  0
 14 15  1  0
 15 16  1  0
 17 15  1  6
 17 18  1  0
 18 19  1  0
 19 20  1  0
 20 21  1  0
 21 22  1  6
 21 23  1  0
 14  5  1  0
 23 17  1  0
M  END
>  <energy_score>  (1375) 
-35.320907

>  <inchikey>  (1375) 
BRLVIBKSNUBABO-UHFFFAOYSA-N

>  <smiles>  (1375) 
COC(=O)c1cc(C(F)(F)F)ncc1N(N)C1CCOC(C)C1

>  <ref_pdb>  (1375) 
A0528a

>  <alias>  (1375) 
BRLVIBKSNUBABO-UHFFFAOYSA-N-P308-P15-P308-601501

>  <HIPPO Pose ID>  (1375) 
502301

>  <name>  (1375) 
BRLVIBKSNUBABO-UHFFFAOYSA-N-P308-P15-P308-601501

>  <HIPPO Compound ID>  (1375) 
292864

>  <ref_mols>  (1375) 
A4331a,A0514a

>  <distance_score>  (1375) 
1.316906

>  <inspiration_score>  (1375) 
None

$$$$
CGTZQPIZBFFXAY-UHFFFAOYSA-N-P308-P15-P308-601501
     RDKit          3D

 23 24  0  0  0  0  0  0  0  0999 V2000
    9.5875    8.8487   23.5723 C   0  0  0  0  0  0  0  0  0  0  0  0
    8.5753    9.6957   24.1178 O   0  0  0  0  0  0  0  0  0  0  0  0
    9.0362   10.8676   24.6105 C   0  0  0  0  0  0  0  0  0  0  0  0
   10.1968   11.2381   24.6865 O   0  0  0  0  0  0  0  0  0  0  0  0
    7.8711   11.6790   25.0230 C   0  0  0  0  0  0  0  0  0  0  0  0
    6.8526   11.0978   25.7767 C   0  0  0  0  0  0  0  0  0  0  0  0
    5.8226   11.9182   26.2301 C   0  0  0  0  0  0  0  0  0  0  0  0
    4.8626   11.4460   27.2854 C   0  0  0  0  0  0  0  0  0  0  0  0
    4.7759   10.0979   27.3427 F   0  0  0  0  0  0  0  0  0  0  0  0
    5.2393   11.8330   28.5399 F   0  0  0  0  0  0  0  0  0  0  0  0
    3.5833   11.8897   27.1286 F   0  0  0  0  0  0  0  0  0  0  0  0
    5.7143   13.2185   25.8676 N   0  0  0  0  0  0  0  0  0  0  0  0
    6.6710   13.7339   25.0835 C   0  0  0  0  0  0  0  0  0  0  0  0
    7.8218   13.0450   24.6986 C   0  0  0  0  0  0  0  0  0  0  0  0
    8.8608   13.6258   23.8794 N   0  0  0  0  0  0  0  0  0  0  0  0
    9.1862   14.3075   25.2562 N   0  0  0  0  0  0  0  0  0  0  0  0
    8.7862   14.6569   22.7508 C   0  0  0  0  0  0  0  0  0  0  0  0
    7.8339   15.3014   22.3241 N   0  0  0  0  0  0  0  0  0  0  0  0
   10.0636   14.9244   22.2243 N   0  0  0  0  0  0  0  0  0  0  0  0
   10.4097   15.8198   21.2439 C   0  0  0  0  0  0  0  0  0  0  0  0
   11.7827   15.8352   21.2395 C   0  0  0  0  0  0  0  0  0  0  0  0
   12.2909   14.9964   22.1926 N   0  0  0  0  0  0  0  0  0  0  0  0
   11.2440   14.3956   22.6920 C   0  0  0  0  0  0  0  0  0  0  0  0
  1  2  1  0
  2  3  1  0
  3  4  2  0
  3  5  1  0
  5  6  2  0
  6  7  1  0
  7  8  1  0
  8  9  1  0
  8 10  1  0
  8 11  1  0
  7 12  2  0
 12 13  1  0
 13 14  2  0
 14 15  1  0
 15 16  1  0
 15 17  1  0
 17 18  2  3
 17 19  1  0
 19 20  1  0
 20 21  2  0
 21 22  1  0
 22 23  2  0
 14  5  1  0
 23 19  1  0
M  END
>  <energy_score>  (1376) 
-0.720446

>  <inchikey>  (1376) 
CGTZQPIZBFFXAY-UHFFFAOYSA-N

>  <smiles>  (1376) 
COC(=O)c1cc(C(F)(F)F)ncc1N(N)C(=N)n1ccnc1

>  <ref_pdb>  (1376) 
A0528a

>  <alias>  (1376) 
CGTZQPIZBFFXAY-UHFFFAOYSA-N-P308-P15-P308-601501

>  <HIPPO Pose ID>  (1376) 
502303

>  <name>  (1376) 
CGTZQPIZBFFXAY-UHFFFAOYSA-N-P308-P15-P308-601501

>  <HIPPO Compound ID>  (1376) 
292865

>  <ref_mols>  (1376) 
A4331a,A0514a

>  <distance_score>  (1376) 
1.461669

>  <inspiration_score>  (1376) 
None

$$$$
SPLJKNQQVHVWHZ-UHFFFAOYSA-N-P308-P15-P308-601501
     RDKit          3D

 23 24  0  0  0  0  0  0  0  0999 V2000
    9.2782    8.4863   23.0280 C   0  0  0  0  0  0  0  0  0  0  0  0
    8.4151    9.3583   23.7473 O   0  0  0  0  0  0  0  0  0  0  0  0
    9.0811   10.2805   24.4721 C   0  0  0  0  0  0  0  0  0  0  0  0
   10.2878   10.3479   24.6474 O   0  0  0  0  0  0  0  0  0  0  0  0
    8.0881   11.2279   25.0224 C   0  0  0  0  0  0  0  0  0  0  0  0
    6.9792   10.6978   25.6907 C   0  0  0  0  0  0  0  0  0  0  0  0
    6.0993   11.5743   26.3095 C   0  0  0  0  0  0  0  0  0  0  0  0
    4.9652   11.0825   27.1656 C   0  0  0  0  0  0  0  0  0  0  0  0
    3.8304   11.8175   27.0114 F   0  0  0  0  0  0  0  0  0  0  0  0
    4.6208    9.7883   26.9236 F   0  0  0  0  0  0  0  0  0  0  0  0
    5.2371   11.1357   28.5025 F   0  0  0  0  0  0  0  0  0  0  0  0
    6.2676   12.9163   26.2525 N   0  0  0  0  0  0  0  0  0  0  0  0
    7.2962   13.3923   25.5324 C   0  0  0  0  0  0  0  0  0  0  0  0
    8.2524   12.6145   24.8893 C   0  0  0  0  0  0  0  0  0  0  0  0
    9.2946   13.2067   24.1684 N   0  0  0  0  0  0  0  0  0  0  0  0
   10.6048   12.9625   24.6261 N   0  0  0  0  0  0  0  0  0  0  0  0
    9.0059   14.4056   23.3394 C   0  0  0  0  0  0  0  0  0  0  0  0
    9.6125   15.6725   23.9315 C   0  0  0  0  0  0  0  0  0  0  0  0
   11.1286   15.8137   23.8989 C   0  0  0  0  0  0  0  0  0  0  0  0
   11.8720   15.2809   22.6826 C   0  0  0  0  0  0  0  0  0  0  0  0
   11.3120   15.7267   21.3435 C   0  0  0  0  0  0  0  0  0  0  0  0
    9.8655   15.3247   21.0628 C   0  0  0  0  0  0  0  0  0  0  0  0
    9.3467   14.1302   21.8673 C   0  0  0  0  0  0  0  0  0  0  0  0
  1  2  1  0
  2  3  1  0
  3  4  2  0
  3  5  1  0
  5  6  2  0
  6  7  1  0
  7  8  1  0
  8  9  1  0
  8 10  1  0
  8 11  1  0
  7 12  2  0
 12 13  1  0
 13 14  2  0
 14 15  1  0
 15 16  1  0
 15 17  1  0
 17 18  1  0
 18 19  1  0
 19 20  1  0
 20 21  1  0
 21 22  1  0
 22 23  1  0
 14  5  1  0
 23 17  1  0
M  END
>  <energy_score>  (1377) 
-41.022442

>  <inchikey>  (1377) 
SPLJKNQQVHVWHZ-UHFFFAOYSA-N

>  <smiles>  (1377) 
COC(=O)c1cc(C(F)(F)F)ncc1N(N)C1CCCCCC1

>  <ref_pdb>  (1377) 
A0528a

>  <alias>  (1377) 
SPLJKNQQVHVWHZ-UHFFFAOYSA-N-P308-P15-P308-601501

>  <HIPPO Pose ID>  (1377) 
502335

>  <name>  (1377) 
SPLJKNQQVHVWHZ-UHFFFAOYSA-N-P308-P15-P308-601501

>  <HIPPO Compound ID>  (1377) 
292881

>  <ref_mols>  (1377) 
A4331a,A0514a

>  <distance_score>  (1377) 
1.236276

>  <inspiration_score>  (1377) 
None

$$$$
SGJAREFSGHUZBL-UHFFFAOYSA-N-P308-P15-P308-601501
     RDKit          3D

 23 24  0  0  0  0  0  0  0  0999 V2000
    9.6072    8.6299   23.6289 C   0  0  0  0  0  0  0  0  0  0  0  0
    8.8802    9.6285   24.3406 O   0  0  0  0  0  0  0  0  0  0  0  0
    8.9659   10.8513   23.7689 C   0  0  0  0  0  0  0  0  0  0  0  0
    9.6202   11.1374   22.7846 O   0  0  0  0  0  0  0  0  0  0  0  0
    8.0912   11.8122   24.4629 C   0  0  0  0  0  0  0  0  0  0  0  0
    7.0188   11.3576   25.2236 C   0  0  0  0  0  0  0  0  0  0  0  0
    6.2248   12.2864   25.8808 C   0  0  0  0  0  0  0  0  0  0  0  0
    5.2023   11.7995   26.8818 C   0  0  0  0  0  0  0  0  0  0  0  0
    3.9860   12.3903   26.7639 F   0  0  0  0  0  0  0  0  0  0  0  0
    5.5914   12.0120   28.1731 F   0  0  0  0  0  0  0  0  0  0  0  0
    4.9661   10.4551   26.8015 F   0  0  0  0  0  0  0  0  0  0  0  0
    6.4036   13.6227   25.7302 N   0  0  0  0  0  0  0  0  0  0  0  0
    7.4507   14.0271   24.9825 C   0  0  0  0  0  0  0  0  0  0  0  0
    8.3703   13.1808   24.3788 C   0  0  0  0  0  0  0  0  0  0  0  0
    9.6889   13.6292   24.1546 N   0  0  0  0  0  0  0  0  0  0  0  0
   10.4825   13.4625   25.3410 N   0  0  0  0  0  0  0  0  0  0  0  0
   10.2932   14.4288   23.1475 C   0  0  0  0  0  0  0  0  0  0  0  0
    9.7367   14.6529   21.9027 C   0  0  0  0  0  0  0  0  0  0  0  0
   10.5267   15.3345   20.9837 C   0  0  0  0  0  0  0  0  0  0  0  0
   10.1195   15.5634   19.5693 C   0  0  0  0  0  0  0  0  0  0  0  0
   11.7571   15.7790   21.2687 N   0  0  0  0  0  0  0  0  0  0  0  0
   12.2020   15.5202   22.4861 C   0  0  0  0  0  0  0  0  0  0  0  0
   11.5367   14.8864   23.4532 N   0  0  0  0  0  0  0  0  0  0  0  0
  1  2  1  0
  2  3  1  0
  3  4  2  0
  3  5  1  0
  5  6  2  0
  6  7  1  0
  7  8  1  0
  8  9  1  0
  8 10  1  0
  8 11  1  0
  7 12  2  0
 12 13  1  0
 13 14  2  0
 14 15  1  0
 15 16  1  0
 15 17  1  0
 17 18  2  0
 18 19  1  0
 19 20  1  0
 19 21  2  0
 21 22  1  0
 22 23  2  0
 14  5  1  0
 23 17  1  0
M  END
>  <energy_score>  (1378) 
-42.66693

>  <inchikey>  (1378) 
SGJAREFSGHUZBL-UHFFFAOYSA-N

>  <smiles>  (1378) 
COC(=O)c1cc(C(F)(F)F)ncc1N(N)c1cc(C)ncn1

>  <ref_pdb>  (1378) 
A0528a

>  <alias>  (1378) 
SGJAREFSGHUZBL-UHFFFAOYSA-N-P308-P15-P308-601501

>  <HIPPO Pose ID>  (1378) 
502341

>  <name>  (1378) 
SGJAREFSGHUZBL-UHFFFAOYSA-N-P308-P15-P308-601501

>  <HIPPO Compound ID>  (1378) 
292884

>  <ref_mols>  (1378) 
A4331a,A0514a

>  <distance_score>  (1378) 
1.722846

>  <inspiration_score>  (1378) 
None

$$$$
MXHNAVURYFITJW-UHFFFAOYSA-N-P308-P15-P308-601501
     RDKit          3D

 23 25  0  0  0  0  0  0  0  0999 V2000
    9.4122    8.8817   23.2071 C   0  0  0  0  0  0  0  0  0  0  0  0
    8.4833    9.8320   23.7237 O   0  0  0  0  0  0  0  0  0  0  0  0
    9.0566   10.9142   24.2992 C   0  0  0  0  0  0  0  0  0  0  0  0
   10.2462   11.1109   24.4766 O   0  0  0  0  0  0  0  0  0  0  0  0
    7.9749   11.7866   24.7766 C   0  0  0  0  0  0  0  0  0  0  0  0
    7.1817   11.2936   25.8108 C   0  0  0  0  0  0  0  0  0  0  0  0
    6.1892   12.0932   26.3630 C   0  0  0  0  0  0  0  0  0  0  0  0
    5.2701   11.5938   27.4424 C   0  0  0  0  0  0  0  0  0  0  0  0
    3.9515   12.2834   27.7025 C   0  0  0  0  0  0  0  0  0  0  0  0
    5.0848   12.4646   28.6666 C   0  0  0  0  0  0  0  0  0  0  0  0
    6.0275   13.3641   25.9601 N   0  0  0  0  0  0  0  0  0  0  0  0
    6.7335   13.7729   24.8981 C   0  0  0  0  0  0  0  0  0  0  0  0
    7.6940   13.0287   24.2277 C   0  0  0  0  0  0  0  0  0  0  0  0
    8.1743   13.4697   22.9853 N   0  0  0  0  0  0  0  0  0  0  0  0
    7.1630   13.7681   22.0413 N   0  0  0  0  0  0  0  0  0  0  0  0
    9.4194   14.1044   22.7578 C   0  0  0  0  0  0  0  0  0  0  0  0
   10.3265   14.1333   23.7296 N   0  0  0  0  0  0  0  0  0  0  0  0
   11.5231   14.6516   23.4270 C   0  0  0  0  0  0  0  0  0  0  0  0
   12.5136   14.5063   24.5231 C   0  0  0  0  0  0  0  0  0  0  0  0
   11.8161   15.2135   22.1984 C   0  0  0  0  0  0  0  0  0  0  0  0
   10.8180   15.1553   21.2503 C   0  0  0  0  0  0  0  0  0  0  0  0
   11.0147   15.6761   19.8605 C   0  0  0  0  0  0  0  0  0  0  0  0
    9.6132   14.6308   21.5287 N   0  0  0  0  0  0  0  0  0  0  0  0
  1  2  1  0
  2  3  1  0
  3  4  2  0
  3  5  1  0
  5  6  2  0
  6  7  1  0
  7  8  1  0
  8  9  1  0
  9 10  1  0
  7 11  2  0
 11 12  1  0
 12 13  2  0
 13 14  1  0
 14 15  1  0
 14 16  1  0
 16 17  2  0
 17 18  1  0
 18 19  1  0
 18 20  2  0
 20 21  1  0
 21 22  1  0
 21 23  2  0
 13  5  1  0
 23 16  1  0
 10  8  1  0
M  END
>  <energy_score>  (1379) 
-35.048914

>  <inchikey>  (1379) 
MXHNAVURYFITJW-UHFFFAOYSA-N

>  <smiles>  (1379) 
COC(=O)c1cc(C2CC2)ncc1N(N)c1nc(C)cc(C)n1

>  <ref_pdb>  (1379) 
A0528a

>  <alias>  (1379) 
MXHNAVURYFITJW-UHFFFAOYSA-N-P308-P15-P308-601501

>  <HIPPO Pose ID>  (1379) 
502345

>  <name>  (1379) 
MXHNAVURYFITJW-UHFFFAOYSA-N-P308-P15-P308-601501

>  <HIPPO Compound ID>  (1379) 
292886

>  <ref_mols>  (1379) 
A4331a,A0514a

>  <distance_score>  (1379) 
1.840344

>  <inspiration_score>  (1379) 
None

$$$$
WYHDJIJGDAJULK-UHFFFAOYSA-N-P15-P15-P308-601501
     RDKit          3D

 23 25  0  0  0  0  0  0  0  0999 V2000
    5.9974   15.2826   24.0591 C   0  0  0  0  0  0  0  0  0  0  0  0
    7.4007   15.0651   23.9081 O   0  0  0  0  0  0  0  0  0  0  0  0
    7.7012   14.2398   22.8838 C   0  0  0  0  0  0  0  0  0  0  0  0
    6.9795   13.4517   22.2943 O   0  0  0  0  0  0  0  0  0  0  0  0
    9.0730   14.4864   22.4603 C   0  0  0  0  0  0  0  0  0  0  0  0
    9.0706   15.2921   21.3273 C   0  0  0  0  0  0  0  0  0  0  0  0
   10.2493   15.5392   20.6714 C   0  0  0  0  0  0  0  0  0  0  0  0
   10.1877   15.6946   19.1843 C   0  0  0  0  0  0  0  0  0  0  0  0
   11.4846   15.4819   18.4793 C   0  0  0  0  0  0  0  0  0  0  0  0
   10.6753   16.7620   18.2967 C   0  0  0  0  0  0  0  0  0  0  0  0
   11.4191   15.3071   21.2999 N   0  0  0  0  0  0  0  0  0  0  0  0
   11.4003   14.5441   22.4119 C   0  0  0  0  0  0  0  0  0  0  0  0
   10.2597   13.9441   22.9600 C   0  0  0  0  0  0  0  0  0  0  0  0
   10.3627   12.7836   23.8308 N   0  0  0  0  0  0  0  0  0  0  0  0
   11.7409   12.5294   24.1820 N   0  0  0  0  0  0  0  0  0  0  0  0
    9.6357   11.6215   23.1739 C   0  0  0  0  0  0  0  0  0  0  0  0
    8.8730   10.6138   24.0135 C   0  0  0  0  0  0  0  0  0  0  0  0
    7.5856   11.1608   24.6701 C   0  0  0  0  0  0  0  0  0  0  0  0
    6.8079   10.0094   25.3106 C   0  0  0  0  0  0  0  0  0  0  0  0
    5.8592   10.3948   26.4412 C   0  0  0  0  0  0  0  0  0  0  0  0
    5.4743   11.8589   26.4340 C   0  0  0  0  0  0  0  0  0  0  0  0
    6.7047   12.7386   26.5179 C   0  0  0  0  0  0  0  0  0  0  0  0
    7.8734   12.2401   25.6804 C   0  0  0  0  0  0  0  0  0  0  0  0
  1  2  1  0
  2  3  1  0
  3  4  2  0
  3  5  1  0
  5  6  2  0
  6  7  1  0
  7  8  1  0
  8  9  1  0
  9 10  1  0
  7 11  2  0
 11 12  1  0
 12 13  2  0
 13 14  1  0
 14 15  1  0
 14 16  1  0
 16 17  1  0
 17 18  1  0
 18 19  1  0
 19 20  1  0
 20 21  1  0
 21 22  1  0
 22 23  1  0
 13  5  1  0
 23 18  1  0
 10  8  1  0
M  END
>  <energy_score>  (1380) 
-11.21269

>  <inchikey>  (1380) 
WYHDJIJGDAJULK-UHFFFAOYSA-N

>  <smiles>  (1380) 
COC(=O)c1cc(C2CC2)ncc1N(N)CCC1CCCCC1

>  <ref_pdb>  (1380) 
A0528a

>  <alias>  (1380) 
WYHDJIJGDAJULK-UHFFFAOYSA-N-P15-P15-P308-601501

>  <HIPPO Pose ID>  (1380) 
502360

>  <name>  (1380) 
WYHDJIJGDAJULK-UHFFFAOYSA-N-P15-P15-P308-601501

>  <HIPPO Compound ID>  (1380) 
292894

>  <ref_mols>  (1380) 
A4331a,A0514a

>  <distance_score>  (1380) 
1.169902

>  <inspiration_score>  (1380) 
None

$$$$
SOGFKNFNSYEOSF-UHFFFAOYSA-N-P308-P15-P308-601501
     RDKit          3D

 23 25  0  0  0  0  0  0  0  0999 V2000
    5.6059   15.0532   23.5678 C   0  0  0  0  0  0  0  0  0  0  0  0
    7.0326   15.0015   23.5622 O   0  0  0  0  0  0  0  0  0  0  0  0
    7.5318   14.0463   22.7400 C   0  0  0  0  0  0  0  0  0  0  0  0
    6.9048   13.2561   22.0540 O   0  0  0  0  0  0  0  0  0  0  0  0
    8.9918   14.1648   22.7099 C   0  0  0  0  0  0  0  0  0  0  0  0
    9.5251   14.6781   21.5247 C   0  0  0  0  0  0  0  0  0  0  0  0
   10.8880   14.9328   21.4257 C   0  0  0  0  0  0  0  0  0  0  0  0
   11.5271   15.5112   20.1911 C   0  0  0  0  0  0  0  0  0  0  0  0
   11.3411   14.8862   18.8335 C   0  0  0  0  0  0  0  0  0  0  0  0
   10.7241   16.2072   19.1254 C   0  0  0  0  0  0  0  0  0  0  0  0
   11.6983   14.6997   22.4878 N   0  0  0  0  0  0  0  0  0  0  0  0
   11.1549   14.1752   23.6117 C   0  0  0  0  0  0  0  0  0  0  0  0
    9.8065   13.8765   23.8005 C   0  0  0  0  0  0  0  0  0  0  0  0
    9.3538   13.3632   25.0503 N   0  0  0  0  0  0  0  0  0  0  0  0
    9.5005   14.2951   26.1249 N   0  0  0  0  0  0  0  0  0  0  0  0
    8.2864   12.4072   25.2134 C   0  0  0  0  0  0  0  0  0  0  0  0
    7.1334   12.7635   25.9510 C   0  0  0  0  0  0  0  0  0  0  0  0
    6.1244   11.8460   26.2382 C   0  0  0  0  0  0  0  0  0  0  0  0
    6.2604   10.5337   25.8212 C   0  0  0  0  0  0  0  0  0  0  0  0
    7.3772   10.1552   25.0765 C   0  0  0  0  0  0  0  0  0  0  0  0
    8.3753   11.0800   24.7254 C   0  0  0  0  0  0  0  0  0  0  0  0
    9.4611   10.7415   23.9525 O   0  0  0  0  0  0  0  0  0  0  0  0
    9.5071    9.4006   23.4569 C   0  0  0  0  0  0  0  0  0  0  0  0
  1  2  1  0
  2  3  1  0
  3  4  2  0
  3  5  1  0
  5  6  2  0
  6  7  1  0
  7  8  1  0
  8  9  1  0
  9 10  1  0
  7 11  2  0
 11 12  1  0
 12 13  2  0
 13 14  1  0
 14 15  1  0
 14 16  1  0
 16 17  2  0
 17 18  1  0
 18 19  2  0
 19 20  1  0
 20 21  2  0
 21 22  1  0
 22 23  1  0
 13  5  1  0
 21 16  1  0
 10  8  1  0
M  END
>  <energy_score>  (1381) 
-34.134064

>  <inchikey>  (1381) 
SOGFKNFNSYEOSF-UHFFFAOYSA-N

>  <smiles>  (1381) 
COC(=O)c1cc(C2CC2)ncc1N(N)c1ccccc1OC

>  <ref_pdb>  (1381) 
A0528a

>  <alias>  (1381) 
SOGFKNFNSYEOSF-UHFFFAOYSA-N-P308-P15-P308-601501

>  <HIPPO Pose ID>  (1381) 
502391

>  <name>  (1381) 
SOGFKNFNSYEOSF-UHFFFAOYSA-N-P308-P15-P308-601501

>  <HIPPO Compound ID>  (1381) 
292909

>  <ref_mols>  (1381) 
A4331a,A0514a

>  <distance_score>  (1381) 
1.179812

>  <inspiration_score>  (1381) 
None

$$$$
OYDZGZFMVCUGKJ-UHFFFAOYSA-N-P15-P15-P308-601501
     RDKit          3D

 23 25  0  0  0  0  0  0  0  0999 V2000
    9.3095    8.4720   22.9989 C   0  0  0  0  0  0  0  0  0  0  0  0
    8.4358    9.2000   23.8632 O   0  0  0  0  0  0  0  0  0  0  0  0
    8.8769   10.4498   24.1139 C   0  0  0  0  0  0  0  0  0  0  0  0
    9.9424   10.9114   23.7420 O   0  0  0  0  0  0  0  0  0  0  0  0
    7.8519   11.2182   24.8648 C   0  0  0  0  0  0  0  0  0  0  0  0
    6.9001   10.5667   25.6524 C   0  0  0  0  0  0  0  0  0  0  0  0
    5.9449   11.3121   26.3361 C   0  0  0  0  0  0  0  0  0  0  0  0
    5.0695   10.6574   27.3806 C   0  0  0  0  0  0  0  0  0  0  0  0
    4.0156   11.4447   28.1263 C   0  0  0  0  0  0  0  0  0  0  0  0
    5.2756   11.0402   28.8300 C   0  0  0  0  0  0  0  0  0  0  0  0
    5.8212   12.6417   26.1145 N   0  0  0  0  0  0  0  0  0  0  0  0
    6.7017   13.2452   25.2787 C   0  0  0  0  0  0  0  0  0  0  0  0
    7.8301   12.6131   24.7557 C   0  0  0  0  0  0  0  0  0  0  0  0
    8.8804   13.2296   23.9534 N   0  0  0  0  0  0  0  0  0  0  0  0
    9.1585   13.9758   25.3340 N   0  0  0  0  0  0  0  0  0  0  0  0
    8.8084   14.1661   22.8867 C   0  0  0  0  0  0  0  0  0  0  0  0
    7.8664   14.7564   22.4303 O   0  0  0  0  0  0  0  0  0  0  0  0
   10.1694   14.4383   22.3772 C   0  0  0  0  0  0  0  0  0  0  0  0
   11.6196   13.8883   23.1412 S   0  0  0  0  0  0  0  0  0  0  0  0
   12.5340   14.8379   22.0666 C   0  0  0  0  0  0  0  0  0  0  0  0
   11.8731   15.4513   21.1295 N   0  0  0  0  0  0  0  0  0  0  0  0
   10.5314   15.2259   21.2955 C   0  0  0  0  0  0  0  0  0  0  0  0
    9.6381   15.9065   20.3570 C   0  0  0  0  0  0  0  0  0  0  0  0
  1  2  1  0
  2  3  1  0
  3  4  2  0
  3  5  1  0
  5  6  2  0
  6  7  1  0
  7  8  1  0
  8  9  1  0
  9 10  1  0
  7 11  2  0
 11 12  1  0
 12 13  2  0
 13 14  1  0
 14 15  1  0
 14 16  1  0
 16 17  2  0
 16 18  1  0
 18 19  1  0
 19 20  1  0
 20 21  2  0
 21 22  1  0
 22 23  1  0
 13  5  1  0
 22 18  2  0
 10  8  1  0
M  END
>  <energy_score>  (1382) 
-37.436623

>  <inchikey>  (1382) 
OYDZGZFMVCUGKJ-UHFFFAOYSA-N

>  <smiles>  (1382) 
COC(=O)c1cc(C2CC2)ncc1N(N)C(=O)c1scnc1C

>  <ref_pdb>  (1382) 
A0528a

>  <alias>  (1382) 
OYDZGZFMVCUGKJ-UHFFFAOYSA-N-P15-P15-P308-601501

>  <HIPPO Pose ID>  (1382) 
502392

>  <name>  (1382) 
OYDZGZFMVCUGKJ-UHFFFAOYSA-N-P15-P15-P308-601501

>  <HIPPO Compound ID>  (1382) 
292910

>  <ref_mols>  (1382) 
A4331a,A0514a

>  <distance_score>  (1382) 
1.595821

>  <inspiration_score>  (1382) 
None

$$$$
NQULXENZPKIEOO-UHFFFAOYSA-N-P308-P15-P308-601501
     RDKit          3D

 23 25  0  0  0  0  0  0  0  0999 V2000
    9.3061    8.4672   23.8338 C   0  0  0  0  0  0  0  0  0  0  0  0
    8.6041    9.5186   24.4865 O   0  0  0  0  0  0  0  0  0  0  0  0
    8.7269   10.6962   23.8383 C   0  0  0  0  0  0  0  0  0  0  0  0
    9.3612   10.8695   22.8139 O   0  0  0  0  0  0  0  0  0  0  0  0
    7.9978   11.7476   24.5791 C   0  0  0  0  0  0  0  0  0  0  0  0
    6.8726   11.3567   25.3372 C   0  0  0  0  0  0  0  0  0  0  0  0
    6.1212   12.3250   25.9793 C   0  0  0  0  0  0  0  0  0  0  0  0
    4.8243   12.0800   26.6811 C   0  0  0  0  0  0  0  0  0  0  0  0
    4.5892   11.0545   27.7471 C   0  0  0  0  0  0  0  0  0  0  0  0
    4.7694   12.4894   28.1395 C   0  0  0  0  0  0  0  0  0  0  0  0
    6.5008   13.6156   25.9466 N   0  0  0  0  0  0  0  0  0  0  0  0
    7.5579   13.9677   25.1941 C   0  0  0  0  0  0  0  0  0  0  0  0
    8.3475   13.1017   24.4486 C   0  0  0  0  0  0  0  0  0  0  0  0
    9.4034   13.6339   23.6884 N   0  0  0  0  0  0  0  0  0  0  0  0
   10.6591   13.0035   23.6666 N   0  0  0  0  0  0  0  0  0  0  0  0
    9.1218   14.7653   22.7426 C   0  0  1  0  0  0  0  0  0  0  0  0
    9.9371   15.9783   23.1562 C   0  0  0  0  0  0  0  0  0  0  0  0
   11.4113   15.9727   22.7611 C   0  0  0  0  0  0  0  0  0  0  0  0
   11.7828   15.3444   21.4351 C   0  0  0  0  0  0  0  0  0  0  0  0
   10.4322   15.3582   20.3175 S   0  0  0  0  0  0  0  0  0  0  0  0
    9.9433   16.7163   20.2090 O   0  0  0  0  0  0  0  0  0  0  0  0
   10.8534   14.6563   19.1216 O   0  0  0  0  0  0  0  0  0  0  0  0
    9.2732   14.3725   21.2702 C   0  0  0  0  0  0  0  0  0  0  0  0
  1  2  1  0
  2  3  1  0
  3  4  2  0
  3  5  1  0
  5  6  2  0
  6  7  1  0
  7  8  1  0
  8  9  1  0
  9 10  1  0
  7 11  2  0
 11 12  1  0
 12 13  2  0
 13 14  1  0
 14 15  1  0
 16 14  1  1
 16 17  1  0
 17 18  1  0
 18 19  1  0
 19 20  1  0
 20 21  2  0
 20 22  2  0
 20 23  1  0
 13  5  1  0
 23 16  1  0
 10  8  1  0
M  END
>  <energy_score>  (1383) 
-44.971638

>  <inchikey>  (1383) 
NQULXENZPKIEOO-UHFFFAOYSA-N

>  <smiles>  (1383) 
COC(=O)c1cc(C2CC2)ncc1N(N)C1CCCS(=O)(=O)C1

>  <ref_pdb>  (1383) 
A0528a

>  <alias>  (1383) 
NQULXENZPKIEOO-UHFFFAOYSA-N-P308-P15-P308-601501

>  <HIPPO Pose ID>  (1383) 
502407

>  <name>  (1383) 
NQULXENZPKIEOO-UHFFFAOYSA-N-P308-P15-P308-601501

>  <HIPPO Compound ID>  (1383) 
292917

>  <ref_mols>  (1383) 
A4331a,A0514a

>  <distance_score>  (1383) 
1.556341

>  <inspiration_score>  (1383) 
None

$$$$
JWIJSCUOPBFSSC-UHFFFAOYSA-N-P15-P15-P308-601501
     RDKit          3D

 23 25  0  0  0  0  0  0  0  0999 V2000
    5.9394   15.5058   23.1792 C   0  0  0  0  0  0  0  0  0  0  0  0
    7.3432   15.2476   23.1376 O   0  0  0  0  0  0  0  0  0  0  0  0
    7.6698   14.1316   22.4510 C   0  0  0  0  0  0  0  0  0  0  0  0
    6.9221   13.3264   21.9307 O   0  0  0  0  0  0  0  0  0  0  0  0
    9.1262   14.0389   22.3672 C   0  0  0  0  0  0  0  0  0  0  0  0
    9.7037   14.8790   21.4330 C   0  0  0  0  0  0  0  0  0  0  0  0
   11.0489   14.7314   21.1780 C   0  0  0  0  0  0  0  0  0  0  0  0
   11.6912   15.2938   19.9696 C   0  0  0  0  0  0  0  0  0  0  0  0
   11.6965   14.6392   18.6264 C   0  0  0  0  0  0  0  0  0  0  0  0
   10.8726   15.8641   18.8148 C   0  0  0  0  0  0  0  0  0  0  0  0
   11.8467   14.0357   22.0214 N   0  0  0  0  0  0  0  0  0  0  0  0
   11.2563   13.1976   22.8827 C   0  0  0  0  0  0  0  0  0  0  0  0
    9.8878   13.0549   23.0108 C   0  0  0  0  0  0  0  0  0  0  0  0
    9.3244   11.9438   23.7015 N   0  0  0  0  0  0  0  0  0  0  0  0
    9.8239   10.6621   23.4129 N   0  0  0  0  0  0  0  0  0  0  0  0
    8.3604   12.0759   24.7293 C   0  0  0  0  0  0  0  0  0  0  0  0
    7.4346   11.0867   25.0852 C   0  0  0  0  0  0  0  0  0  0  0  0
    6.4018   11.3962   25.9702 C   0  0  0  0  0  0  0  0  0  0  0  0
    6.3165   12.6865   26.4961 C   0  0  0  0  0  0  0  0  0  0  0  0
    5.2318   13.1082   27.2997 C   0  0  0  0  0  0  0  0  0  0  0  0
    4.3741   13.5075   27.9664 N   0  0  0  0  0  0  0  0  0  0  0  0
    7.2875   13.6346   26.2368 C   0  0  0  0  0  0  0  0  0  0  0  0
    8.3110   13.3142   25.3829 C   0  0  0  0  0  0  0  0  0  0  0  0
  1  2  1  0
  2  3  1  0
  3  4  2  0
  3  5  1  0
  5  6  2  0
  6  7  1  0
  7  8  1  0
  8  9  1  0
  9 10  1  0
  7 11  2  0
 11 12  1  0
 12 13  2  0
 13 14  1  0
 14 15  1  0
 14 16  1  0
 16 17  2  0
 17 18  1  0
 18 19  2  0
 19 20  1  0
 20 21  3  0
 19 22  1  0
 22 23  2  0
 13  5  1  0
 23 16  1  0
 10  8  1  0
M  END
>  <energy_score>  (1384) 
-29.545972

>  <inchikey>  (1384) 
JWIJSCUOPBFSSC-UHFFFAOYSA-N

>  <smiles>  (1384) 
COC(=O)c1cc(C2CC2)ncc1N(N)c1ccc(C#N)cc1

>  <ref_pdb>  (1384) 
A0528a

>  <alias>  (1384) 
JWIJSCUOPBFSSC-UHFFFAOYSA-N-P15-P15-P308-601501

>  <HIPPO Pose ID>  (1384) 
502412

>  <name>  (1384) 
JWIJSCUOPBFSSC-UHFFFAOYSA-N-P15-P15-P308-601501

>  <HIPPO Compound ID>  (1384) 
292920

>  <ref_mols>  (1384) 
A4331a,A0514a

>  <distance_score>  (1384) 
1.896591

>  <inspiration_score>  (1384) 
None

$$$$
PMHSCHJYJJJUBU-UHFFFAOYSA-N-P308-P15-P308-601501
     RDKit          3D

 23 25  0  0  0  0  0  0  0  0999 V2000
    9.2213    8.9383   23.3532 C   0  0  0  0  0  0  0  0  0  0  0  0
    8.3816    9.9378   23.9357 O   0  0  0  0  0  0  0  0  0  0  0  0
    9.0642   11.0042   24.4112 C   0  0  0  0  0  0  0  0  0  0  0  0
   10.2752   11.1382   24.4762 O   0  0  0  0  0  0  0  0  0  0  0  0
    8.1086   11.9820   24.9480 C   0  0  0  0  0  0  0  0  0  0  0  0
    7.2506   11.5993   25.9700 C   0  0  0  0  0  0  0  0  0  0  0  0
    6.4645   12.5648   26.5939 C   0  0  0  0  0  0  0  0  0  0  0  0
    5.5148   12.2518   27.7057 C   0  0  0  0  0  0  0  0  0  0  0  0
    4.5802   11.0798   27.6722 C   0  0  0  0  0  0  0  0  0  0  0  0
    4.0472   12.4616   27.4261 C   0  0  0  0  0  0  0  0  0  0  0  0
    6.5537   13.8661   26.2636 N   0  0  0  0  0  0  0  0  0  0  0  0
    7.3195   14.1867   25.2133 C   0  0  0  0  0  0  0  0  0  0  0  0
    8.0718   13.2862   24.4773 C   0  0  0  0  0  0  0  0  0  0  0  0
    8.4401   13.6080   23.1560 N   0  0  0  0  0  0  0  0  0  0  0  0
    7.3131   13.7426   22.3023 N   0  0  0  0  0  0  0  0  0  0  0  0
    9.6448   14.2827   22.7866 C   0  0  0  0  0  0  0  0  0  0  0  0
    9.8689   14.5502   21.4490 C   0  0  0  0  0  0  0  0  0  0  0  0
   11.0877   15.0718   21.1035 C   0  0  0  0  0  0  0  0  0  0  0  0
   11.4264   15.1685   19.7134 C   0  0  0  0  0  0  0  0  0  0  0  0
   11.6411   15.1284   18.5740 N   0  0  0  0  0  0  0  0  0  0  0  0
   12.0286   15.3888   22.0085 N   0  0  0  0  0  0  0  0  0  0  0  0
   11.7076   15.1271   23.2774 C   0  0  0  0  0  0  0  0  0  0  0  0
   10.5608   14.5949   23.7216 N   0  0  0  0  0  0  0  0  0  0  0  0
  1  2  1  0
  2  3  1  0
  3  4  2  0
  3  5  1  0
  5  6  2  0
  6  7  1  0
  7  8  1  0
  8  9  1  0
  9 10  1  0
  7 11  2  0
 11 12  1  0
 12 13  2  0
 13 14  1  0
 14 15  1  0
 14 16  1  0
 16 17  2  0
 17 18  1  0
 18 19  1  0
 19 20  3  0
 18 21  2  0
 21 22  1  0
 22 23  2  0
 13  5  1  0
 23 16  1  0
 10  8  1  0
M  END
>  <energy_score>  (1385) 
-43.813269

>  <inchikey>  (1385) 
PMHSCHJYJJJUBU-UHFFFAOYSA-N

>  <smiles>  (1385) 
COC(=O)c1cc(C2CC2)ncc1N(N)c1cc(C#N)ncn1

>  <ref_pdb>  (1385) 
A0528a

>  <alias>  (1385) 
PMHSCHJYJJJUBU-UHFFFAOYSA-N-P308-P15-P308-601501

>  <HIPPO Pose ID>  (1385) 
502441

>  <name>  (1385) 
PMHSCHJYJJJUBU-UHFFFAOYSA-N-P308-P15-P308-601501

>  <HIPPO Compound ID>  (1385) 
292934

>  <ref_mols>  (1385) 
A4331a,A0514a

>  <distance_score>  (1385) 
1.977568

>  <inspiration_score>  (1385) 
None

$$$$
MFJDRURSCRBEER-UHFFFAOYSA-N-P308-P15-P308-601501
     RDKit          3D

 23 25  0  0  0  0  0  0  0  0999 V2000
    9.4615    8.8416   23.2436 C   0  0  0  0  0  0  0  0  0  0  0  0
    8.4830    9.6748   23.8667 O   0  0  0  0  0  0  0  0  0  0  0  0
    8.9861   10.7498   24.5106 C   0  0  0  0  0  0  0  0  0  0  0  0
   10.1599   11.0560   24.6450 O   0  0  0  0  0  0  0  0  0  0  0  0
    7.8642   11.5166   25.0950 C   0  0  0  0  0  0  0  0  0  0  0  0
    6.8392   10.8104   25.7351 C   0  0  0  0  0  0  0  0  0  0  0  0
    5.8395   11.5223   26.3832 C   0  0  0  0  0  0  0  0  0  0  0  0
    4.8702   10.8865   27.3381 C   0  0  0  0  0  0  0  0  0  0  0  0
    3.6223   11.6282   27.7711 C   0  0  0  0  0  0  0  0  0  0  0  0
    4.7713   11.5139   28.7192 C   0  0  0  0  0  0  0  0  0  0  0  0
    5.7740   12.8678   26.2905 N   0  0  0  0  0  0  0  0  0  0  0  0
    6.7269   13.5301   25.6271 C   0  0  0  0  0  0  0  0  0  0  0  0
    7.8589   12.9247   25.1064 C   0  0  0  0  0  0  0  0  0  0  0  0
    8.7940   13.7543   24.3605 N   0  0  0  0  0  0  0  0  0  0  0  0
    9.6134   13.5757   25.7204 N   0  0  0  0  0  0  0  0  0  0  0  0
    8.7131   15.2173   23.9544 C   0  0  0  0  0  0  0  0  0  0  0  0
    7.9104   16.0387   24.2186 O   0  0  0  0  0  0  0  0  0  0  0  0
    9.8604   15.4526   23.1417 C   0  0  0  0  0  0  0  0  0  0  0  0
   11.1742   15.4908   23.5355 C   0  0  0  0  0  0  0  0  0  0  0  0
   12.0806   15.4731   22.5103 N   0  0  0  0  0  0  0  0  0  0  0  0
   11.4302   15.4249   21.3650 C   0  0  0  0  0  0  0  0  0  0  0  0
   12.0816   15.2973   20.0547 C   0  0  0  0  0  0  0  0  0  0  0  0
    9.7205   15.4849   21.4523 S   0  0  0  0  0  0  0  0  0  0  0  0
  1  2  1  0
  2  3  1  0
  3  4  2  0
  3  5  1  0
  5  6  2  0
  6  7  1  0
  7  8  1  0
  8  9  1  0
  9 10  1  0
  7 11  2  0
 11 12  1  0
 12 13  2  0
 13 14  1  0
 14 15  1  0
 14 16  1  0
 16 17  2  0
 16 18  1  0
 18 19  2  0
 19 20  1  0
 20 21  2  0
 21 22  1  0
 21 23  1  0
 13  5  1  0
 23 18  1  0
 10  8  1  0
M  END
>  <energy_score>  (1386) 
-12.010414

>  <inchikey>  (1386) 
MFJDRURSCRBEER-UHFFFAOYSA-N

>  <smiles>  (1386) 
COC(=O)c1cc(C2CC2)ncc1N(N)C(=O)c1cnc(C)s1

>  <ref_pdb>  (1386) 
A0528a

>  <alias>  (1386) 
MFJDRURSCRBEER-UHFFFAOYSA-N-P308-P15-P308-601501

>  <HIPPO Pose ID>  (1386) 
502443

>  <name>  (1386) 
MFJDRURSCRBEER-UHFFFAOYSA-N-P308-P15-P308-601501

>  <HIPPO Compound ID>  (1386) 
292935

>  <ref_mols>  (1386) 
A4331a,A0514a

>  <distance_score>  (1386) 
1.589308

>  <inspiration_score>  (1386) 
None

$$$$
JAMGFPNTIFHLSG-UHFFFAOYSA-N-P308-P15-P308-601501
     RDKit          3D

 23 24  0  0  0  0  0  0  0  0999 V2000
    9.3371    8.4984   23.0599 C   0  0  0  0  0  0  0  0  0  0  0  0
    8.5109    9.3640   23.8271 O   0  0  0  0  0  0  0  0  0  0  0  0
    9.2120   10.2482   24.5742 C   0  0  0  0  0  0  0  0  0  0  0  0
   10.4223   10.2808   24.7165 O   0  0  0  0  0  0  0  0  0  0  0  0
    8.2451   11.2325   25.1049 C   0  0  0  0  0  0  0  0  0  0  0  0
    7.0396   10.7748   25.6537 C   0  0  0  0  0  0  0  0  0  0  0  0
    6.1799   11.6924   26.2412 C   0  0  0  0  0  0  0  0  0  0  0  0
    4.9955   11.2839   27.0734 C   0  0  0  0  0  0  0  0  0  0  0  0
    3.8341   12.2358   27.2656 C   0  0  0  0  0  0  0  0  0  0  0  0
    4.7923   12.0123   28.3915 C   0  0  0  0  0  0  0  0  0  0  0  0
    6.4490   13.0153   26.1967 N   0  0  0  0  0  0  0  0  0  0  0  0
    7.5924   13.4355   25.6362 C   0  0  0  0  0  0  0  0  0  0  0  0
    8.5583   12.5964   25.1038 C   0  0  0  0  0  0  0  0  0  0  0  0
    9.7636   13.1188   24.5651 N   0  0  0  0  0  0  0  0  0  0  0  0
   10.2435   14.3124   25.1931 N   0  0  0  0  0  0  0  0  0  0  0  0
    9.6326   13.1333   23.0785 C   0  0  0  0  0  0  0  0  0  0  0  0
   10.8051   13.8009   22.4017 C   0  0  0  0  0  0  0  0  0  0  0  0
   11.9720   13.6885   22.7581 O   0  0  0  0  0  0  0  0  0  0  0  0
   10.3259   14.5678   21.3864 O   0  0  0  0  0  0  0  0  0  0  0  0
   11.2085   15.4365   20.6470 C   0  0  0  0  0  0  0  0  0  0  0  0
   12.0469   16.2964   21.5908 C   0  0  0  0  0  0  0  0  0  0  0  0
   12.0460   14.6322   19.6689 C   0  0  0  0  0  0  0  0  0  0  0  0
   10.2728   16.3160   19.8253 C   0  0  0  0  0  0  0  0  0  0  0  0
  1  2  1  0
  2  3  1  0
  3  4  2  0
  3  5  1  0
  5  6  2  0
  6  7  1  0
  7  8  1  0
  8  9  1  0
  9 10  1  0
  7 11  2  0
 11 12  1  0
 12 13  2  0
 13 14  1  0
 14 15  1  0
 14 16  1  0
 16 17  1  0
 17 18  2  0
 17 19  1  0
 19 20  1  0
 20 21  1  0
 20 22  1  0
 20 23  1  0
 13  5  1  0
 10  8  1  0
M  END
>  <energy_score>  (1387) 
-56.660944

>  <inchikey>  (1387) 
JAMGFPNTIFHLSG-UHFFFAOYSA-N

>  <smiles>  (1387) 
COC(=O)c1cc(C2CC2)ncc1N(N)CC(=O)OC(C)(C)C

>  <ref_pdb>  (1387) 
A0528a

>  <alias>  (1387) 
JAMGFPNTIFHLSG-UHFFFAOYSA-N-P308-P15-P308-601501

>  <HIPPO Pose ID>  (1387) 
502447

>  <name>  (1387) 
JAMGFPNTIFHLSG-UHFFFAOYSA-N-P308-P15-P308-601501

>  <HIPPO Compound ID>  (1387) 
292937

>  <ref_mols>  (1387) 
A4331a,A0514a

>  <distance_score>  (1387) 
1.405928

>  <inspiration_score>  (1387) 
None

$$$$
ONLJMQBTQYWJAY-UHFFFAOYSA-N-P308-P15-P308-601501
     RDKit          3D

 23 25  0  0  0  0  0  0  0  0999 V2000
    9.4343    8.6426   23.1376 C   0  0  0  0  0  0  0  0  0  0  0  0
    8.5850    9.5238   23.8660 O   0  0  0  0  0  0  0  0  0  0  0  0
    9.2480   10.5447   24.4616 C   0  0  0  0  0  0  0  0  0  0  0  0
   10.4560   10.7088   24.4832 O   0  0  0  0  0  0  0  0  0  0  0  0
    8.2428   11.4695   25.0342 C   0  0  0  0  0  0  0  0  0  0  0  0
    7.0722   10.9383   25.5934 C   0  0  0  0  0  0  0  0  0  0  0  0
    6.1489   11.8012   26.1666 C   0  0  0  0  0  0  0  0  0  0  0  0
    4.9872   11.3123   26.9846 C   0  0  0  0  0  0  0  0  0  0  0  0
    4.8242   11.8450   28.3931 C   0  0  0  0  0  0  0  0  0  0  0  0
    3.8655   12.2745   27.3291 C   0  0  0  0  0  0  0  0  0  0  0  0
    6.3154   13.1406   26.0970 N   0  0  0  0  0  0  0  0  0  0  0  0
    7.4311   13.6297   25.5331 C   0  0  0  0  0  0  0  0  0  0  0  0
    8.4596   12.8505   25.0385 C   0  0  0  0  0  0  0  0  0  0  0  0
    9.6509   13.4884   24.6638 N   0  0  0  0  0  0  0  0  0  0  0  0
   10.7862   13.2238   25.4987 N   0  0  0  0  0  0  0  0  0  0  0  0
    9.8901   14.0946   23.3999 C   0  0  0  0  0  0  0  0  0  0  0  0
    8.8962   14.2730   22.5127 N   0  0  0  0  0  0  0  0  0  0  0  0
    9.2473   14.7530   21.2934 C   0  0  0  0  0  0  0  0  0  0  0  0
   10.5385   15.0327   20.9181 C   0  0  0  0  0  0  0  0  0  0  0  0
   10.9336   15.2843   19.5796 C   0  0  0  0  0  0  0  0  0  0  0  0
   11.3331   15.3674   18.4967 N   0  0  0  0  0  0  0  0  0  0  0  0
   11.4684   14.9087   21.9110 C   0  0  0  0  0  0  0  0  0  0  0  0
   11.1680   14.4527   23.1442 N   0  0  0  0  0  0  0  0  0  0  0  0
  1  2  1  0
  2  3  1  0
  3  4  2  0
  3  5  1  0
  5  6  2  0
  6  7  1  0
  7  8  1  0
  8  9  1  0
  9 10  1  0
  7 11  2  0
 11 12  1  0
 12 13  2  0
 13 14  1  0
 14 15  1  0
 14 16  1  0
 16 17  2  0
 17 18  1  0
 18 19  2  0
 19 20  1  0
 20 21  3  0
 19 22  1  0
 22 23  2  0
 13  5  1  0
 23 16  1  0
 10  8  1  0
M  END
>  <energy_score>  (1388) 
-54.68697

>  <inchikey>  (1388) 
ONLJMQBTQYWJAY-UHFFFAOYSA-N

>  <smiles>  (1388) 
COC(=O)c1cc(C2CC2)ncc1N(N)c1ncc(C#N)cn1

>  <ref_pdb>  (1388) 
A0528a

>  <alias>  (1388) 
ONLJMQBTQYWJAY-UHFFFAOYSA-N-P308-P15-P308-601501

>  <HIPPO Pose ID>  (1388) 
502489

>  <name>  (1388) 
ONLJMQBTQYWJAY-UHFFFAOYSA-N-P308-P15-P308-601501

>  <HIPPO Compound ID>  (1388) 
292958

>  <ref_mols>  (1388) 
A4331a,A0514a

>  <distance_score>  (1388) 
1.675499

>  <inspiration_score>  (1388) 
None

$$$$
KWUCCYPVBDRNDG-UHFFFAOYSA-N-P308-P15-P308-601501
     RDKit          3D

 23 25  0  0  0  0  0  0  0  0999 V2000
    9.4341    8.6131   23.1718 C   0  0  0  0  0  0  0  0  0  0  0  0
    8.5232    9.4178   23.9116 O   0  0  0  0  0  0  0  0  0  0  0  0
    9.1104   10.4767   24.5196 C   0  0  0  0  0  0  0  0  0  0  0  0
   10.3094   10.7038   24.5715 O   0  0  0  0  0  0  0  0  0  0  0  0
    8.0325   11.3342   25.0677 C   0  0  0  0  0  0  0  0  0  0  0  0
    6.9154   10.7479   25.6726 C   0  0  0  0  0  0  0  0  0  0  0  0
    5.9566   11.5709   26.2523 C   0  0  0  0  0  0  0  0  0  0  0  0
    4.8732   11.0482   27.1525 C   0  0  0  0  0  0  0  0  0  0  0  0
    4.7883   11.5963   28.5630 C   0  0  0  0  0  0  0  0  0  0  0  0
    3.7422   11.9744   27.5662 C   0  0  0  0  0  0  0  0  0  0  0  0
    6.0219   12.9136   26.1262 N   0  0  0  0  0  0  0  0  0  0  0  0
    7.0678   13.4525   25.4888 C   0  0  0  0  0  0  0  0  0  0  0  0
    8.1336   12.7225   24.9968 C   0  0  0  0  0  0  0  0  0  0  0  0
    9.2599   13.4185   24.5378 N   0  0  0  0  0  0  0  0  0  0  0  0
   10.3742   13.3281   25.4085 N   0  0  0  0  0  0  0  0  0  0  0  0
    9.2564   14.2062   23.3475 C   0  0  0  0  0  0  0  0  0  0  0  0
    8.2611   14.0324   22.4425 N   0  0  0  0  0  0  0  0  0  0  0  0
    8.3701   14.7609   21.2997 C   0  0  0  0  0  0  0  0  0  0  0  0
    9.4112   15.6164   21.0114 C   0  0  0  0  0  0  0  0  0  0  0  0
   10.3768   15.8369   21.9000 N   0  0  0  0  0  0  0  0  0  0  0  0
   10.2741   15.1265   23.0476 C   0  0  0  0  0  0  0  0  0  0  0  0
   11.2842   15.3431   23.9505 O   0  0  0  0  0  0  0  0  0  0  0  0
   12.4828   14.9778   23.2864 C   0  0  0  0  0  0  0  0  0  0  0  0
  1  2  1  0
  2  3  1  0
  3  4  2  0
  3  5  1  0
  5  6  2  0
  6  7  1  0
  7  8  1  0
  8  9  1  0
  9 10  1  0
  7 11  2  0
 11 12  1  0
 12 13  2  0
 13 14  1  0
 14 15  1  0
 14 16  1  0
 16 17  2  0
 17 18  1  0
 18 19  2  0
 19 20  1  0
 20 21  2  0
 21 22  1  0
 22 23  1  0
 13  5  1  0
 21 16  1  0
 10  8  1  0
M  END
>  <energy_score>  (1389) 
-53.612511

>  <inchikey>  (1389) 
KWUCCYPVBDRNDG-UHFFFAOYSA-N

>  <smiles>  (1389) 
COC(=O)c1cc(C2CC2)ncc1N(N)c1nccnc1OC

>  <ref_pdb>  (1389) 
A0528a

>  <alias>  (1389) 
KWUCCYPVBDRNDG-UHFFFAOYSA-N-P308-P15-P308-601501

>  <HIPPO Pose ID>  (1389) 
502495

>  <name>  (1389) 
KWUCCYPVBDRNDG-UHFFFAOYSA-N-P308-P15-P308-601501

>  <HIPPO Compound ID>  (1389) 
292961

>  <ref_mols>  (1389) 
A4331a,A0514a

>  <distance_score>  (1389) 
1.831868

>  <inspiration_score>  (1389) 
None

$$$$
ZXNKWTGKHHGTIZ-UHFFFAOYSA-N-P308-P15-P308-601501
     RDKit          3D

 23 24  0  0  0  0  0  0  0  0999 V2000
    9.5882    8.8313   23.2020 C   0  0  0  0  0  0  0  0  0  0  0  0
    8.6782    9.7352   23.8239 O   0  0  0  0  0  0  0  0  0  0  0  0
    9.2570   10.7980   24.4286 C   0  0  0  0  0  0  0  0  0  0  0  0
   10.4481   11.0565   24.4894 O   0  0  0  0  0  0  0  0  0  0  0  0
    8.1890   11.6041   25.0584 C   0  0  0  0  0  0  0  0  0  0  0  0
    7.1249   10.9398   25.6834 C   0  0  0  0  0  0  0  0  0  0  0  0
    6.1613   11.6970   26.3396 C   0  0  0  0  0  0  0  0  0  0  0  0
    5.0302   11.0514   27.0909 C   0  0  0  0  0  0  0  0  0  0  0  0
    3.8605   11.7352   26.9718 F   0  0  0  0  0  0  0  0  0  0  0  0
    4.7782    9.7753   26.6869 F   0  0  0  0  0  0  0  0  0  0  0  0
    5.2456   10.9625   28.4351 F   0  0  0  0  0  0  0  0  0  0  0  0
    6.2151   13.0501   26.3833 N   0  0  0  0  0  0  0  0  0  0  0  0
    7.2101   13.6684   25.7243 C   0  0  0  0  0  0  0  0  0  0  0  0
    8.2499   13.0085   25.0772 C   0  0  0  0  0  0  0  0  0  0  0  0
    9.1099   13.7699   24.1926 N   0  0  0  0  0  0  0  0  0  0  0  0
   10.0506   13.6653   25.4637 N   0  0  0  0  0  0  0  0  0  0  0  0
    9.0027   15.2062   23.7005 C   0  0  0  0  0  0  0  0  0  0  0  0
    8.2378   16.0561   23.9884 O   0  0  0  0  0  0  0  0  0  0  0  0
   10.0122   15.4007   22.6753 C   0  0  0  0  0  0  0  0  0  0  0  0
    9.7021   15.6041   21.3446 C   0  0  0  0  0  0  0  0  0  0  0  0
   11.1380   15.6981   20.4275 S   0  0  0  0  0  0  0  0  0  0  0  0
   12.0458   15.5917   21.8787 C   0  0  0  0  0  0  0  0  0  0  0  0
   11.3686   15.3728   22.9845 N   0  0  0  0  0  0  0  0  0  0  0  0
  1  2  1  0
  2  3  1  0
  3  4  2  0
  3  5  1  0
  5  6  2  0
  6  7  1  0
  7  8  1  0
  8  9  1  0
  8 10  1  0
  8 11  1  0
  7 12  2  0
 12 13  1  0
 13 14  2  0
 14 15  1  0
 15 16  1  0
 15 17  1  0
 17 18  2  0
 17 19  1  0
 19 20  2  0
 20 21  1  0
 21 22  1  0
 22 23  2  0
 14  5  1  0
 23 19  1  0
M  END
>  <energy_score>  (1390) 
-30.252283

>  <inchikey>  (1390) 
ZXNKWTGKHHGTIZ-UHFFFAOYSA-N

>  <smiles>  (1390) 
COC(=O)c1cc(C(F)(F)F)ncc1N(N)C(=O)c1cscn1

>  <ref_pdb>  (1390) 
A0528a

>  <alias>  (1390) 
ZXNKWTGKHHGTIZ-UHFFFAOYSA-N-P308-P15-P308-601501

>  <HIPPO Pose ID>  (1390) 
502503

>  <name>  (1390) 
ZXNKWTGKHHGTIZ-UHFFFAOYSA-N-P308-P15-P308-601501

>  <HIPPO Compound ID>  (1390) 
292965

>  <ref_mols>  (1390) 
A4331a,A0514a

>  <distance_score>  (1390) 
1.29647

>  <inspiration_score>  (1390) 
None

$$$$
IKHYGPOTUVCTLW-UHFFFAOYSA-N-P15-P15-P308-601501
     RDKit          3D

 24 25  0  0  0  0  0  0  0  0999 V2000
    9.2190    8.6547   23.0240 C   0  0  0  0  0  0  0  0  0  0  0  0
    8.2397    9.4158   23.7361 O   0  0  0  0  0  0  0  0  0  0  0  0
    8.7159   10.6058   24.1693 C   0  0  0  0  0  0  0  0  0  0  0  0
    9.8691   10.9718   24.0523 O   0  0  0  0  0  0  0  0  0  0  0  0
    7.6590   11.3695   24.8748 C   0  0  0  0  0  0  0  0  0  0  0  0
    6.7642   10.6283   25.6540 C   0  0  0  0  0  0  0  0  0  0  0  0
    5.8862   11.3101   26.4830 C   0  0  0  0  0  0  0  0  0  0  0  0
    5.0714   10.5775   27.5089 C   0  0  0  0  0  0  0  0  0  0  0  0
    4.0600   11.3411   28.0065 F   0  0  0  0  0  0  0  0  0  0  0  0
    5.8160   10.1875   28.5836 F   0  0  0  0  0  0  0  0  0  0  0  0
    4.4835    9.4495   27.0305 F   0  0  0  0  0  0  0  0  0  0  0  0
    5.8052   12.6607   26.5052 N   0  0  0  0  0  0  0  0  0  0  0  0
    6.6404   13.3507   25.7196 C   0  0  0  0  0  0  0  0  0  0  0  0
    7.6177   12.7756   24.9190 C   0  0  0  0  0  0  0  0  0  0  0  0
    8.5323   13.6924   24.3561 N   0  0  0  0  0  0  0  0  0  0  0  0
    9.7922   13.6494   25.1118 N   0  0  0  0  0  0  0  0  0  0  0  0
    8.7632   13.7404   22.9460 C   0  0  0  0  0  0  0  0  0  0  0  0
    9.7625   12.9595   22.5512 N   0  0  0  0  0  0  0  0  0  0  0  0
   10.7294   13.5188   21.8299 C   0  0  0  0  0  0  0  0  0  0  0  0
   10.6434   14.7807   21.3449 C   0  0  0  0  0  0  0  0  0  0  0  0
   11.8814   15.4325   21.2692 C   0  0  0  0  0  0  0  0  0  0  0  0
   12.9504   15.7517   21.5678 N   0  0  0  0  0  0  0  0  0  0  0  0
    9.4202   15.3754   21.4667 C   0  0  0  0  0  0  0  0  0  0  0  0
    8.4589   14.8607   22.2795 N   0  0  0  0  0  0  0  0  0  0  0  0
  1  2  1  0
  2  3  1  0
  3  4  2  0
  3  5  1  0
  5  6  2  0
  6  7  1  0
  7  8  1  0
  8  9  1  0
  8 10  1  0
  8 11  1  0
  7 12  2  0
 12 13  1  0
 13 14  2  0
 14 15  1  0
 15 16  1  0
 15 17  1  0
 17 18  2  0
 18 19  1  0
 19 20  2  0
 20 21  1  0
 21 22  3  0
 20 23  1  0
 23 24  2  0
 14  5  1  0
 24 17  1  0
M  END
>  <energy_score>  (1391) 
-1.482005

>  <inchikey>  (1391) 
IKHYGPOTUVCTLW-UHFFFAOYSA-N

>  <smiles>  (1391) 
COC(=O)c1cc(C(F)(F)F)ncc1N(N)c1ncc(C#N)cn1

>  <ref_pdb>  (1391) 
A0528a

>  <alias>  (1391) 
IKHYGPOTUVCTLW-UHFFFAOYSA-N-P15-P15-P308-601501

>  <HIPPO Pose ID>  (1391) 
502514

>  <name>  (1391) 
IKHYGPOTUVCTLW-UHFFFAOYSA-N-P15-P15-P308-601501

>  <HIPPO Compound ID>  (1391) 
292971

>  <ref_mols>  (1391) 
A4331a,A0514a

>  <distance_score>  (1391) 
1.323126

>  <inspiration_score>  (1391) 
None

$$$$
QLTXICQLVBKJCW-UHFFFAOYSA-N-P15-P15-P308-601501
     RDKit          3D

 24 25  0  0  0  0  0  0  0  0999 V2000
    9.5127    8.7667   23.0204 C   0  0  0  0  0  0  0  0  0  0  0  0
    8.6073    9.5798   23.7697 O   0  0  0  0  0  0  0  0  0  0  0  0
    8.8811   10.9054   23.7402 C   0  0  0  0  0  0  0  0  0  0  0  0
    9.8000   11.4221   23.1375 O   0  0  0  0  0  0  0  0  0  0  0  0
    7.9422   11.6458   24.6129 C   0  0  0  0  0  0  0  0  0  0  0  0
    7.1985   10.9142   25.5542 C   0  0  0  0  0  0  0  0  0  0  0  0
    6.3772   11.5910   26.4437 C   0  0  0  0  0  0  0  0  0  0  0  0
    5.4396   10.8452   27.3526 C   0  0  0  0  0  0  0  0  0  0  0  0
    4.3412   11.5745   27.6942 F   0  0  0  0  0  0  0  0  0  0  0  0
    4.9575    9.7038   26.7864 F   0  0  0  0  0  0  0  0  0  0  0  0
    6.0199   10.4598   28.5244 F   0  0  0  0  0  0  0  0  0  0  0  0
    6.3822   12.9374   26.5288 N   0  0  0  0  0  0  0  0  0  0  0  0
    7.0146   13.6124   25.5526 C   0  0  0  0  0  0  0  0  0  0  0  0
    7.7466   13.0321   24.5147 C   0  0  0  0  0  0  0  0  0  0  0  0
    7.9128   13.8012   23.3342 N   0  0  0  0  0  0  0  0  0  0  0  0
    6.7007   14.4681   22.9205 N   0  0  0  0  0  0  0  0  0  0  0  0
    9.0487   14.1832   22.5740 C   0  0  0  0  0  0  0  0  0  0  0  0
    8.7986   14.6558   21.3140 N   0  0  0  0  0  0  0  0  0  0  0  0
    9.8643   15.1152   20.6010 C   0  0  0  0  0  0  0  0  0  0  0  0
   11.1504   15.0557   21.0697 C   0  0  0  0  0  0  0  0  0  0  0  0
   11.4164   14.6465   22.3161 N   0  0  0  0  0  0  0  0  0  0  0  0
   10.3600   14.2176   23.0540 C   0  0  0  0  0  0  0  0  0  0  0  0
   10.6046   14.0395   24.3970 O   0  0  0  0  0  0  0  0  0  0  0  0
   11.9251   13.5551   24.5888 C   0  0  0  0  0  0  0  0  0  0  0  0
  1  2  1  0
  2  3  1  0
  3  4  2  0
  3  5  1  0
  5  6  2  0
  6  7  1  0
  7  8  1  0
  8  9  1  0
  8 10  1  0
  8 11  1  0
  7 12  2  0
 12 13  1  0
 13 14  2  0
 14 15  1  0
 15 16  1  0
 15 17  1  0
 17 18  2  0
 18 19  1  0
 19 20  2  0
 20 21  1  0
 21 22  2  0
 22 23  1  0
 23 24  1  0
 14  5  1  0
 22 17  1  0
M  END
>  <energy_score>  (1392) 
-39.228849

>  <inchikey>  (1392) 
QLTXICQLVBKJCW-UHFFFAOYSA-N

>  <smiles>  (1392) 
COC(=O)c1cc(C(F)(F)F)ncc1N(N)c1nccnc1OC

>  <ref_pdb>  (1392) 
A0528a

>  <alias>  (1392) 
QLTXICQLVBKJCW-UHFFFAOYSA-N-P15-P15-P308-601501

>  <HIPPO Pose ID>  (1392) 
502518

>  <name>  (1392) 
QLTXICQLVBKJCW-UHFFFAOYSA-N-P15-P15-P308-601501

>  <HIPPO Compound ID>  (1392) 
292973

>  <ref_mols>  (1392) 
A4331a,A0514a

>  <distance_score>  (1392) 
1.349789

>  <inspiration_score>  (1392) 
None

$$$$
SLMIPLGVUUWGKY-UHFFFAOYSA-N-P308-P15-P308-601501
     RDKit          3D

 24 25  0  0  0  0  0  0  0  0999 V2000
    9.5508    8.7546   23.0642 C   0  0  0  0  0  0  0  0  0  0  0  0
    8.7140    9.7492   23.6421 O   0  0  0  0  0  0  0  0  0  0  0  0
    9.3729   10.7083   24.3277 C   0  0  0  0  0  0  0  0  0  0  0  0
   10.5701   10.7874   24.5416 O   0  0  0  0  0  0  0  0  0  0  0  0
    8.3731   11.6344   24.8759 C   0  0  0  0  0  0  0  0  0  0  0  0
    7.2433   11.0996   25.5064 C   0  0  0  0  0  0  0  0  0  0  0  0
    6.3745   11.9722   26.1470 C   0  0  0  0  0  0  0  0  0  0  0  0
    5.1388   11.4747   26.8452 C   0  0  0  0  0  0  0  0  0  0  0  0
    5.1592   11.7438   28.1790 F   0  0  0  0  0  0  0  0  0  0  0  0
    4.9733   10.1237   26.7490 F   0  0  0  0  0  0  0  0  0  0  0  0
    3.9856   12.0288   26.3813 F   0  0  0  0  0  0  0  0  0  0  0  0
    6.6265   13.3050   26.2269 N   0  0  0  0  0  0  0  0  0  0  0  0
    7.7012   13.7916   25.5790 C   0  0  0  0  0  0  0  0  0  0  0  0
    8.5936   13.0094   24.8661 C   0  0  0  0  0  0  0  0  0  0  0  0
    9.4628   13.6401   23.9486 N   0  0  0  0  0  0  0  0  0  0  0  0
   10.3196   14.6130   24.4541 N   0  0  0  0  0  0  0  0  0  0  0  0
   10.4612   15.5062   23.5273 C   0  0  0  0  0  0  0  0  0  0  0  0
    9.5259   15.3439   22.3700 C   0  0  1  0  0  0  0  0  0  0  0  0
   10.0965   15.4422   20.9686 C   0  0  0  0  0  0  0  0  0  0  0  0
   11.4011   14.7193   20.7866 C   0  0  0  0  0  0  0  0  0  0  0  0
   11.9869   14.1382   21.6870 O   0  0  0  0  0  0  0  0  0  0  0  0
   11.8796   14.8059   19.5263 O   0  0  0  0  0  0  0  0  0  0  0  0
    8.8838   14.0287   22.7148 C   0  0  0  0  0  0  0  0  0  0  0  0
    7.9538   13.4954   22.1258 O   0  0  0  0  0  0  0  0  0  0  0  0
  1  2  1  0
  2  3  1  0
  3  4  2  0
  3  5  1  0
  5  6  2  0
  6  7  1  0
  7  8  1  0
  8  9  1  0
  8 10  1  0
  8 11  1  0
  7 12  2  0
 12 13  1  0
 13 14  2  0
 14 15  1  0
 15 16  1  0
 16 17  2  0
 17 18  1  0
 18 19  1  6
 19 20  1  0
 20 21  2  0
 20 22  1  0
 18 23  1  0
 23 24  2  0
 14  5  1  0
 23 15  1  0
M  END
>  <energy_score>  (1393) 
-20.149962

>  <inchikey>  (1393) 
SLMIPLGVUUWGKY-UHFFFAOYSA-N

>  <smiles>  (1393) 
COC(=O)c1cc(C(F)(F)F)ncc1N1N=CC(CC(=O)O)C1=O

>  <ref_pdb>  (1393) 
A0528a

>  <alias>  (1393) 
SLMIPLGVUUWGKY-UHFFFAOYSA-N-P308-P15-P308-601501

>  <HIPPO Pose ID>  (1393) 
502521

>  <name>  (1393) 
SLMIPLGVUUWGKY-UHFFFAOYSA-N-P308-P15-P308-601501

>  <HIPPO Compound ID>  (1393) 
292974

>  <ref_mols>  (1393) 
A4331a,A0514a

>  <distance_score>  (1393) 
1.14517

>  <inspiration_score>  (1393) 
None

$$$$
NNOXFKZKIQZZAO-UHFFFAOYSA-N-P308-P15-P308-601501
     RDKit          3D

 24 25  0  0  0  0  0  0  0  0999 V2000
    9.6698    9.0287   22.8236 C   0  0  0  0  0  0  0  0  0  0  0  0
    9.1819   10.2867   23.2836 O   0  0  0  0  0  0  0  0  0  0  0  0
    8.3446   10.1729   24.3280 C   0  0  0  0  0  0  0  0  0  0  0  0
    8.0426    9.1294   24.8877 O   0  0  0  0  0  0  0  0  0  0  0  0
    7.7560   11.4718   24.7249 C   0  0  0  0  0  0  0  0  0  0  0  0
    6.6575   11.3347   25.5682 C   0  0  0  0  0  0  0  0  0  0  0  0
    6.0458   12.4597   26.0823 C   0  0  0  0  0  0  0  0  0  0  0  0
    5.0279   12.2659   27.1830 C   0  0  0  0  0  0  0  0  0  0  0  0
    4.0069   13.1541   27.1577 F   0  0  0  0  0  0  0  0  0  0  0  0
    5.5913   12.3673   28.4229 F   0  0  0  0  0  0  0  0  0  0  0  0
    4.4403   11.0320   27.1647 F   0  0  0  0  0  0  0  0  0  0  0  0
    6.4270   13.7054   25.7171 N   0  0  0  0  0  0  0  0  0  0  0  0
    7.4746   13.8170   24.8711 C   0  0  0  0  0  0  0  0  0  0  0  0
    8.2404   12.7537   24.4034 C   0  0  0  0  0  0  0  0  0  0  0  0
    9.5666   12.9869   23.9415 N   0  0  0  0  0  0  0  0  0  0  0  0
   10.5249   12.4711   24.8545 N   0  0  0  0  0  0  0  0  0  0  0  0
   10.0013   14.0585   23.1333 C   0  0  0  0  0  0  0  0  0  0  0  0
   11.1872   14.6612   23.3449 C   0  0  0  0  0  0  0  0  0  0  0  0
   11.7306   15.6080   22.3708 C   0  0  0  0  0  0  0  0  0  0  0  0
   12.9028   15.9385   22.4267 O   0  0  0  0  0  0  0  0  0  0  0  0
   10.8936   16.0318   21.4080 N   0  0  0  0  0  0  0  0  0  0  0  0
    9.8049   15.3142   21.0667 C   0  0  0  0  0  0  0  0  0  0  0  0
    9.3050   15.4100   19.9563 O   0  0  0  0  0  0  0  0  0  0  0  0
    9.3169   14.4462   22.0060 N   0  0  0  0  0  0  0  0  0  0  0  0
  1  2  1  0
  2  3  1  0
  3  4  2  0
  3  5  1  0
  5  6  2  0
  6  7  1  0
  7  8  1  0
  8  9  1  0
  8 10  1  0
  8 11  1  0
  7 12  2  0
 12 13  1  0
 13 14  2  0
 14 15  1  0
 15 16  1  0
 15 17  1  0
 17 18  2  0
 18 19  1  0
 19 20  2  0
 19 21  1  0
 21 22  1  0
 22 23  2  0
 22 24  1  0
 14  5  1  0
 24 17  1  0
M  END
>  <energy_score>  (1394) 
-42.950916

>  <inchikey>  (1394) 
NNOXFKZKIQZZAO-UHFFFAOYSA-N

>  <smiles>  (1394) 
COC(=O)c1cc(C(F)(F)F)ncc1N(N)c1cc(=O)[nH]c(=O)[nH]1

>  <ref_pdb>  (1394) 
A0528a

>  <alias>  (1394) 
NNOXFKZKIQZZAO-UHFFFAOYSA-N-P308-P15-P308-601501

>  <HIPPO Pose ID>  (1394) 
502547

>  <name>  (1394) 
NNOXFKZKIQZZAO-UHFFFAOYSA-N-P308-P15-P308-601501

>  <HIPPO Compound ID>  (1394) 
292987

>  <ref_mols>  (1394) 
A4331a,A0514a

>  <distance_score>  (1394) 
1.869308

>  <inspiration_score>  (1394) 
None

$$$$
KZKACYATWFFVNK-UHFFFAOYSA-N-P308-P15-P308-601501
     RDKit          3D

 24 25  0  0  0  0  0  0  0  0999 V2000
    9.6407    8.7218   23.2145 C   0  0  0  0  0  0  0  0  0  0  0  0
    8.7714    9.7517   23.6700 O   0  0  0  0  0  0  0  0  0  0  0  0
    9.3837   10.7706   24.3178 C   0  0  0  0  0  0  0  0  0  0  0  0
   10.5653   10.8656   24.6002 O   0  0  0  0  0  0  0  0  0  0  0  0
    8.3176   11.7465   24.6244 C   0  0  0  0  0  0  0  0  0  0  0  0
    7.2123   11.2780   25.3291 C   0  0  0  0  0  0  0  0  0  0  0  0
    6.2592   12.1906   25.7566 C   0  0  0  0  0  0  0  0  0  0  0  0
    5.2267   11.7396   26.7652 C   0  0  0  0  0  0  0  0  0  0  0  0
    4.0176   12.3434   26.6492 F   0  0  0  0  0  0  0  0  0  0  0  0
    4.9795   10.3962   26.7041 F   0  0  0  0  0  0  0  0  0  0  0  0
    5.6267   11.9647   28.0510 F   0  0  0  0  0  0  0  0  0  0  0  0
    6.3124   13.4991   25.4094 N   0  0  0  0  0  0  0  0  0  0  0  0
    7.3880   13.9155   24.7094 C   0  0  0  0  0  0  0  0  0  0  0  0
    8.4604   13.1108   24.3479 C   0  0  0  0  0  0  0  0  0  0  0  0
    9.7283   13.6885   24.1690 N   0  0  0  0  0  0  0  0  0  0  0  0
   10.4679   13.6210   25.3946 N   0  0  0  0  0  0  0  0  0  0  0  0
   10.3489   14.4487   23.1477 C   0  0  0  0  0  0  0  0  0  0  0  0
    9.8890   14.5444   21.8522 C   0  0  0  0  0  0  0  0  0  0  0  0
   10.7566   15.1602   20.9626 C   0  0  0  0  0  0  0  0  0  0  0  0
   10.6158   15.1001   19.5461 C   0  0  0  0  0  0  0  0  0  0  0  0
   10.6201   14.9466   18.3994 N   0  0  0  0  0  0  0  0  0  0  0  0
   11.9308   15.7024   21.3004 N   0  0  0  0  0  0  0  0  0  0  0  0
   12.2784   15.5596   22.5571 C   0  0  0  0  0  0  0  0  0  0  0  0
   11.5463   14.9832   23.5056 N   0  0  0  0  0  0  0  0  0  0  0  0
  1  2  1  0
  2  3  1  0
  3  4  2  0
  3  5  1  0
  5  6  2  0
  6  7  1  0
  7  8  1  0
  8  9  1  0
  8 10  1  0
  8 11  1  0
  7 12  2  0
 12 13  1  0
 13 14  2  0
 14 15  1  0
 15 16  1  0
 15 17  1  0
 17 18  2  0
 18 19  1  0
 19 20  1  0
 20 21  3  0
 19 22  2  0
 22 23  1  0
 23 24  2  0
 14  5  1  0
 24 17  1  0
M  END
>  <energy_score>  (1395) 
-13.091717

>  <inchikey>  (1395) 
KZKACYATWFFVNK-UHFFFAOYSA-N

>  <smiles>  (1395) 
COC(=O)c1cc(C(F)(F)F)ncc1N(N)c1cc(C#N)ncn1

>  <ref_pdb>  (1395) 
A0528a

>  <alias>  (1395) 
KZKACYATWFFVNK-UHFFFAOYSA-N-P308-P15-P308-601501

>  <HIPPO Pose ID>  (1395) 
502557

>  <name>  (1395) 
KZKACYATWFFVNK-UHFFFAOYSA-N-P308-P15-P308-601501

>  <HIPPO Compound ID>  (1395) 
292992

>  <ref_mols>  (1395) 
A4331a,A0514a

>  <distance_score>  (1395) 
1.619681

>  <inspiration_score>  (1395) 
None

$$$$
FAMJJDKJWGXTSG-UHFFFAOYSA-N-P15-P15-P308-601501
     RDKit          3D

 24 25  0  0  0  0  0  0  0  0999 V2000
    9.3603    8.5780   23.0207 C   0  0  0  0  0  0  0  0  0  0  0  0
    8.4641    9.2763   23.8894 O   0  0  0  0  0  0  0  0  0  0  0  0
    8.8421   10.5506   24.1282 C   0  0  0  0  0  0  0  0  0  0  0  0
    9.8870   11.0652   23.7678 O   0  0  0  0  0  0  0  0  0  0  0  0
    7.7816   11.2600   24.8876 C   0  0  0  0  0  0  0  0  0  0  0  0
    6.8789   10.5645   25.6891 C   0  0  0  0  0  0  0  0  0  0  0  0
    5.9281   11.2953   26.3917 C   0  0  0  0  0  0  0  0  0  0  0  0
    5.1068   10.6421   27.4705 C   0  0  0  0  0  0  0  0  0  0  0  0
    4.1223   11.4508   27.9488 F   0  0  0  0  0  0  0  0  0  0  0  0
    4.4899    9.4987   27.0671 F   0  0  0  0  0  0  0  0  0  0  0  0
    5.8621   10.2904   28.5531 F   0  0  0  0  0  0  0  0  0  0  0  0
    5.7521   12.6297   26.2128 N   0  0  0  0  0  0  0  0  0  0  0  0
    6.5754   13.2667   25.3635 C   0  0  0  0  0  0  0  0  0  0  0  0
    7.6841   12.6559   24.7850 C   0  0  0  0  0  0  0  0  0  0  0  0
    8.5878   13.3343   23.8939 N   0  0  0  0  0  0  0  0  0  0  0  0
    9.1349   13.8587   25.2907 N   0  0  0  0  0  0  0  0  0  0  0  0
    8.3530   14.4699   22.9377 C   0  0  0  0  0  0  0  0  0  0  0  0
    7.3933   15.1211   22.7525 O   0  0  0  0  0  0  0  0  0  0  0  0
    9.5914   14.6300   22.1938 C   0  0  0  0  0  0  0  0  0  0  0  0
   10.8669   14.1547   22.4424 C   0  0  0  0  0  0  0  0  0  0  0  0
   11.8048   14.4159   21.4732 N   0  0  0  0  0  0  0  0  0  0  0  0
   11.1823   14.9355   20.4344 C   0  0  0  0  0  0  0  0  0  0  0  0
   11.6854   14.9463   19.0405 C   0  0  0  0  0  0  0  0  0  0  0  0
    9.6196   15.5395   20.7603 S   0  0  0  0  0  0  0  0  0  0  0  0
  1  2  1  0
  2  3  1  0
  3  4  2  0
  3  5  1  0
  5  6  2  0
  6  7  1  0
  7  8  1  0
  8  9  1  0
  8 10  1  0
  8 11  1  0
  7 12  2  0
 12 13  1  0
 13 14  2  0
 14 15  1  0
 15 16  1  0
 15 17  1  0
 17 18  2  0
 17 19  1  0
 19 20  2  0
 20 21  1  0
 21 22  2  0
 22 23  1  0
 22 24  1  0
 14  5  1  0
 24 19  1  0
M  END
>  <energy_score>  (1396) 
-24.08957

>  <inchikey>  (1396) 
FAMJJDKJWGXTSG-UHFFFAOYSA-N

>  <smiles>  (1396) 
COC(=O)c1cc(C(F)(F)F)ncc1N(N)C(=O)c1cnc(C)s1

>  <ref_pdb>  (1396) 
A0528a

>  <alias>  (1396) 
FAMJJDKJWGXTSG-UHFFFAOYSA-N-P15-P15-P308-601501

>  <HIPPO Pose ID>  (1396) 
502560

>  <name>  (1396) 
FAMJJDKJWGXTSG-UHFFFAOYSA-N-P15-P15-P308-601501

>  <HIPPO Compound ID>  (1396) 
292994

>  <ref_mols>  (1396) 
A4331a,A0514a

>  <distance_score>  (1396) 
1.363645

>  <inspiration_score>  (1396) 
None

$$$$
AORVOOSYLMPVRI-UHFFFAOYSA-N-P308-P15-P308-601501
     RDKit          3D

 24 25  0  0  0  0  0  0  0  0999 V2000
    9.4882    8.8296   23.3063 C   0  0  0  0  0  0  0  0  0  0  0  0
    8.5196    9.6494   23.9581 O   0  0  0  0  0  0  0  0  0  0  0  0
    9.0362   10.6982   24.6359 C   0  0  0  0  0  0  0  0  0  0  0  0
   10.2116   10.9470   24.8590 O   0  0  0  0  0  0  0  0  0  0  0  0
    7.9154   11.5311   25.1131 C   0  0  0  0  0  0  0  0  0  0  0  0
    6.8822   10.8854   25.8016 C   0  0  0  0  0  0  0  0  0  0  0  0
    5.9194   11.6602   26.4373 C   0  0  0  0  0  0  0  0  0  0  0  0
    4.8552   11.0308   27.2974 C   0  0  0  0  0  0  0  0  0  0  0  0
    3.6709   11.6944   27.2327 F   0  0  0  0  0  0  0  0  0  0  0  0
    5.1790   10.9987   28.6211 F   0  0  0  0  0  0  0  0  0  0  0  0
    4.5891    9.7386   26.9592 F   0  0  0  0  0  0  0  0  0  0  0  0
    5.9304   13.0151   26.3805 N   0  0  0  0  0  0  0  0  0  0  0  0
    6.8875   13.6088   25.6479 C   0  0  0  0  0  0  0  0  0  0  0  0
    7.9330   12.9327   25.0233 C   0  0  0  0  0  0  0  0  0  0  0  0
    8.7316   13.7129   24.0941 N   0  0  0  0  0  0  0  0  0  0  0  0
    9.6129   13.8545   25.3958 N   0  0  0  0  0  0  0  0  0  0  0  0
    9.5665   13.2813   22.9086 C   0  0  0  0  0  0  0  0  0  0  0  0
    9.8256   12.2059   22.5128 O   0  0  0  0  0  0  0  0  0  0  0  0
    9.9766   14.4612   22.1814 C   0  0  0  0  0  0  0  0  0  0  0  0
    9.2435   14.9881   21.1964 N   0  0  0  0  0  0  0  0  0  0  0  0
   10.0096   16.0510   20.7216 O   0  0  0  0  0  0  0  0  0  0  0  0
   11.1646   16.2138   21.4795 N   0  0  0  0  0  0  0  0  0  0  0  0
   11.1294   15.2248   22.3698 C   0  0  0  0  0  0  0  0  0  0  0  0
   12.2001   15.0443   23.3511 C   0  0  0  0  0  0  0  0  0  0  0  0
  1  2  1  0
  2  3  1  0
  3  4  2  0
  3  5  1  0
  5  6  2  0
  6  7  1  0
  7  8  1  0
  8  9  1  0
  8 10  1  0
  8 11  1  0
  7 12  2  0
 12 13  1  0
 13 14  2  0
 14 15  1  0
 15 16  1  0
 15 17  1  0
 17 18  2  0
 17 19  1  0
 19 20  2  0
 20 21  1  0
 21 22  1  0
 22 23  2  0
 23 24  1  0
 14  5  1  0
 23 19  1  0
M  END
>  <energy_score>  (1397) 
-1.747989

>  <inchikey>  (1397) 
AORVOOSYLMPVRI-UHFFFAOYSA-N

>  <smiles>  (1397) 
COC(=O)c1cc(C(F)(F)F)ncc1N(N)C(=O)c1nonc1C

>  <ref_pdb>  (1397) 
A0528a

>  <alias>  (1397) 
AORVOOSYLMPVRI-UHFFFAOYSA-N-P308-P15-P308-601501

>  <HIPPO Pose ID>  (1397) 
502575

>  <name>  (1397) 
AORVOOSYLMPVRI-UHFFFAOYSA-N-P308-P15-P308-601501

>  <HIPPO Compound ID>  (1397) 
293001

>  <ref_mols>  (1397) 
A4331a,A0514a

>  <distance_score>  (1397) 
1.22922

>  <inspiration_score>  (1397) 
None

$$$$
MVQNGKZVYOOFJX-UHFFFAOYSA-N-P308-P15-P308-601501
     RDKit          3D

 24 25  0  0  0  0  0  0  0  0999 V2000
    9.2110    8.4675   23.0453 C   0  0  0  0  0  0  0  0  0  0  0  0
    8.3480    9.3318   23.7747 O   0  0  0  0  0  0  0  0  0  0  0  0
    9.0205   10.2465   24.5040 C   0  0  0  0  0  0  0  0  0  0  0  0
   10.2285   10.2868   24.6890 O   0  0  0  0  0  0  0  0  0  0  0  0
    8.0504   11.2146   25.0570 C   0  0  0  0  0  0  0  0  0  0  0  0
    6.9103   10.7421   25.7084 C   0  0  0  0  0  0  0  0  0  0  0  0
    6.0925   11.6675   26.3452 C   0  0  0  0  0  0  0  0  0  0  0  0
    4.8970   11.2539   27.1517 C   0  0  0  0  0  0  0  0  0  0  0  0
    5.0453   11.5628   28.4678 F   0  0  0  0  0  0  0  0  0  0  0  0
    4.6527    9.9133   27.1135 F   0  0  0  0  0  0  0  0  0  0  0  0
    3.7375   11.8579   26.7694 F   0  0  0  0  0  0  0  0  0  0  0  0
    6.3838   12.9893   26.3750 N   0  0  0  0  0  0  0  0  0  0  0  0
    7.4526   13.4152   25.6892 C   0  0  0  0  0  0  0  0  0  0  0  0
    8.2940   12.5905   24.9552 C   0  0  0  0  0  0  0  0  0  0  0  0
    9.2710   13.1092   24.0853 N   0  0  0  0  0  0  0  0  0  0  0  0
   10.5944   12.9808   24.6017 N   0  0  0  0  0  0  0  0  0  0  0  0
    8.8819   14.3569   23.3273 C   0  0  2  0  0  0  0  0  0  0  0  0
    7.5221   14.1391   22.6254 C   0  0  0  0  0  0  0  0  0  0  0  0
    9.9789   14.7026   22.2856 C   0  0  0  0  0  0  0  0  0  0  0  0
    9.4855   15.4749   21.0462 C   0  0  0  0  0  0  0  0  0  0  0  0
   10.6383   15.7559   20.0912 C   0  0  0  0  0  0  0  0  0  0  0  0
   11.6759   16.4503   20.7701 O   0  0  0  0  0  0  0  0  0  0  0  0
   12.1962   15.7160   21.8614 C   0  0  0  0  0  0  0  0  0  0  0  0
   11.1187   15.5326   22.9113 C   0  0  0  0  0  0  0  0  0  0  0  0
  1  2  1  0
  2  3  1  0
  3  4  2  0
  3  5  1  0
  5  6  2  0
  6  7  1  0
  7  8  1  0
  8  9  1  0
  8 10  1  0
  8 11  1  0
  7 12  2  0
 12 13  1  0
 13 14  2  0
 14 15  1  0
 15 16  1  0
 15 17  1  0
 17 18  1  6
 17 19  1  0
 19 20  1  0
 20 21  1  0
 21 22  1  0
 22 23  1  0
 23 24  1  0
 14  5  1  0
 24 19  1  0
M  END
>  <energy_score>  (1398) 
-51.739875

>  <inchikey>  (1398) 
MVQNGKZVYOOFJX-UHFFFAOYSA-N

>  <smiles>  (1398) 
COC(=O)c1cc(C(F)(F)F)ncc1N(N)C(C)C1CCOCC1

>  <ref_pdb>  (1398) 
A0528a

>  <alias>  (1398) 
MVQNGKZVYOOFJX-UHFFFAOYSA-N-P308-P15-P308-601501

>  <HIPPO Pose ID>  (1398) 
502579

>  <name>  (1398) 
MVQNGKZVYOOFJX-UHFFFAOYSA-N-P308-P15-P308-601501

>  <HIPPO Compound ID>  (1398) 
293003

>  <ref_mols>  (1398) 
A4331a,A0514a

>  <distance_score>  (1398) 
1.038365

>  <inspiration_score>  (1398) 
None

$$$$
FBELSRRJJBJWQR-UHFFFAOYSA-N-P308-P15-P308-601502
     RDKit          3D

 24 25  0  0  0  0  0  0  0  0999 V2000
    5.5311   15.2281   23.3563 C   0  0  0  0  0  0  0  0  0  0  0  0
    6.9530   15.3543   23.2986 O   0  0  0  0  0  0  0  0  0  0  0  0
    7.5454   14.3959   22.5509 C   0  0  0  0  0  0  0  0  0  0  0  0
    7.0145   13.4514   21.9865 O   0  0  0  0  0  0  0  0  0  0  0  0
    8.9775   14.6971   22.4159 C   0  0  0  0  0  0  0  0  0  0  0  0
    9.4028   15.0007   21.1252 C   0  0  0  0  0  0  0  0  0  0  0  0
   10.7531   15.1999   20.8897 C   0  0  0  0  0  0  0  0  0  0  0  0
   11.2013   15.4033   19.4473 C   0  0  0  0  0  0  0  0  0  0  0  0
   10.7188   14.4547   18.5971 F   0  0  0  0  0  0  0  0  0  0  0  0
   12.5471   15.3573   19.2841 F   0  0  0  0  0  0  0  0  0  0  0  0
   10.7726   16.5919   18.9416 F   0  0  0  0  0  0  0  0  0  0  0  0
   11.6545   15.2039   21.9135 N   0  0  0  0  0  0  0  0  0  0  0  0
   11.2013   14.9321   23.1645 C   0  0  0  0  0  0  0  0  0  0  0  0
    9.8800   14.6252   23.4878 C   0  0  0  0  0  0  0  0  0  0  0  0
    9.4684   14.2008   24.7896 N   0  0  0  0  0  0  0  0  0  0  0  0
   10.3501   14.4889   25.8643 N   0  0  0  0  0  0  0  0  0  0  0  0
    8.7732   12.9558   24.9491 C   0  0  0  0  0  0  0  0  0  0  0  0
    9.2587   11.7795   24.3759 C   0  0  0  0  0  0  0  0  0  0  0  0
    8.5338   10.6170   24.5171 C   0  0  0  0  0  0  0  0  0  0  0  0
    9.0516    9.3525   23.9097 C   0  0  0  0  0  0  0  0  0  0  0  0
    7.3638   10.5860   25.1883 N   0  0  0  0  0  0  0  0  0  0  0  0
    6.8949   11.7384   25.7083 C   0  0  0  0  0  0  0  0  0  0  0  0
    5.5714   11.6904   26.3657 C   0  0  0  0  0  0  0  0  0  0  0  0
    7.5677   12.9357   25.6320 C   0  0  0  0  0  0  0  0  0  0  0  0
  1  2  1  0
  2  3  1  0
  3  4  2  0
  3  5  1  0
  5  6  2  0
  6  7  1  0
  7  8  1  0
  8  9  1  0
  8 10  1  0
  8 11  1  0
  7 12  2  0
 12 13  1  0
 13 14  2  0
 14 15  1  0
 15 16  1  0
 15 17  1  0
 17 18  2  0
 18 19  1  0
 19 20  1  0
 19 21  2  0
 21 22  1  0
 22 23  1  0
 22 24  2  0
 14  5  1  0
 24 17  1  0
M  END
>  <energy_score>  (1399) 
-53.964397

>  <inchikey>  (1399) 
FBELSRRJJBJWQR-UHFFFAOYSA-N

>  <smiles>  (1399) 
COC(=O)c1cc(C(F)(F)F)ncc1N(N)c1cc(C)nc(C)c1

>  <ref_pdb>  (1399) 
A0514a

>  <alias>  (1399) 
FBELSRRJJBJWQR-UHFFFAOYSA-N-P308-P15-P308-601502

>  <HIPPO Pose ID>  (1399) 
502589

>  <name>  (1399) 
FBELSRRJJBJWQR-UHFFFAOYSA-N-P308-P15-P308-601502

>  <HIPPO Compound ID>  (1399) 
293008

>  <ref_mols>  (1399) 
A4331a,A0514a

>  <distance_score>  (1399) 
1.845577

>  <inspiration_score>  (1399) 
None

$$$$
LLPMKBKVJASHJQ-UHFFFAOYSA-N-P308-P15-P308-601502
     RDKit          3D

 24 25  0  0  0  0  0  0  0  0999 V2000
    9.4148    8.4697   23.7052 C   0  0  0  0  0  0  0  0  0  0  0  0
    8.7912    9.5089   24.4501 O   0  0  0  0  0  0  0  0  0  0  0  0
    8.8249   10.6943   23.8023 C   0  0  0  0  0  0  0  0  0  0  0  0
    9.3589   10.8869   22.7248 O   0  0  0  0  0  0  0  0  0  0  0  0
    8.1000   11.7168   24.5888 C   0  0  0  0  0  0  0  0  0  0  0  0
    7.0296   11.2838   25.3943 C   0  0  0  0  0  0  0  0  0  0  0  0
    6.2841   12.2283   26.0846 C   0  0  0  0  0  0  0  0  0  0  0  0
    5.1472   11.8338   26.9910 C   0  0  0  0  0  0  0  0  0  0  0  0
    4.9761   10.4892   27.0690 F   0  0  0  0  0  0  0  0  0  0  0  0
    3.9360   12.3274   26.6098 F   0  0  0  0  0  0  0  0  0  0  0  0
    5.3330   12.2372   28.2816 F   0  0  0  0  0  0  0  0  0  0  0  0
    6.5697   13.5470   26.0023 N   0  0  0  0  0  0  0  0  0  0  0  0
    7.5882   13.9312   25.2066 C   0  0  0  0  0  0  0  0  0  0  0  0
    8.4037   13.0835   24.4606 C   0  0  0  0  0  0  0  0  0  0  0  0
    9.4682   13.6292   23.7195 N   0  0  0  0  0  0  0  0  0  0  0  0
   10.6954   12.9384   23.7229 N   0  0  0  0  0  0  0  0  0  0  0  0
    9.1791   14.7439   22.7519 C   0  0  1  0  0  0  0  0  0  0  0  0
    9.9794   15.9750   23.1436 C   0  0  0  0  0  0  0  0  0  0  0  0
   11.4401   16.0186   22.7028 C   0  0  0  0  0  0  0  0  0  0  0  0
   11.7968   15.3919   21.3727 C   0  0  0  0  0  0  0  0  0  0  0  0
   10.4201   15.3503   20.2912 S   0  0  0  0  0  0  0  0  0  0  0  0
   10.8426   14.6474   19.0974 O   0  0  0  0  0  0  0  0  0  0  0  0
    9.8897   16.6915   20.1884 O   0  0  0  0  0  0  0  0  0  0  0  0
    9.3196   14.3327   21.2845 C   0  0  0  0  0  0  0  0  0  0  0  0
  1  2  1  0
  2  3  1  0
  3  4  2  0
  3  5  1  0
  5  6  2  0
  6  7  1  0
  7  8  1  0
  8  9  1  0
  8 10  1  0
  8 11  1  0
  7 12  2  0
 12 13  1  0
 13 14  2  0
 14 15  1  0
 15 16  1  0
 17 15  1  1
 17 18  1  0
 18 19  1  0
 19 20  1  0
 20 21  1  0
 21 22  2  0
 21 23  2  0
 21 24  1  0
 14  5  1  0
 24 17  1  0
M  END
>  <energy_score>  (1400) 
-37.802195

>  <inchikey>  (1400) 
LLPMKBKVJASHJQ-UHFFFAOYSA-N

>  <smiles>  (1400) 
COC(=O)c1cc(C(F)(F)F)ncc1N(N)C1CCCS(=O)(=O)C1

>  <ref_pdb>  (1400) 
A0514a

>  <alias>  (1400) 
LLPMKBKVJASHJQ-UHFFFAOYSA-N-P308-P15-P308-601502

>  <HIPPO Pose ID>  (1400) 
502591

>  <name>  (1400) 
LLPMKBKVJASHJQ-UHFFFAOYSA-N-P308-P15-P308-601502

>  <HIPPO Compound ID>  (1400) 
293009

>  <ref_mols>  (1400) 
A4331a,A0514a

>  <distance_score>  (1400) 
1.417805

>  <inspiration_score>  (1400) 
None

$$$$
GIEHGIVBBIPYJP-UHFFFAOYSA-N-P308-P15-P308-601502
     RDKit          3D

 24 24  0  0  0  0  0  0  0  0999 V2000
   11.2202   15.1966   19.3036 C   0  0  0  0  0  0  0  0  0  0  0  0
   10.7579   16.0351   20.4777 C   0  0  0  0  0  0  0  0  0  0  0  0
   11.8167   16.1563   21.5713 C   0  0  0  0  0  0  0  0  0  0  0  0
   11.7733   15.0433   22.6216 C   0  0  0  0  0  0  0  0  0  0  0  0
   10.9959   15.4019   23.8849 C   0  0  0  0  0  0  0  0  0  0  0  0
    9.4863   15.5354   23.7620 C   0  0  0  0  0  0  0  0  0  0  0  0
    8.6227   14.2875   23.5661 C   0  0  1  0  0  0  0  0  0  0  0  0
    8.3986   13.8808   22.1305 C   0  0  0  0  0  0  0  0  0  0  0  0
    9.0381   13.1254   24.4107 N   0  0  0  0  0  0  0  0  0  0  0  0
   10.2023   12.4115   24.1109 N   0  0  0  0  0  0  0  0  0  0  0  0
    7.9643   12.5035   25.0792 C   0  0  0  0  0  0  0  0  0  0  0  0
    7.1919   13.3526   25.8863 C   0  0  0  0  0  0  0  0  0  0  0  0
    6.1129   13.0107   26.5986 N   0  0  0  0  0  0  0  0  0  0  0  0
    5.7277   11.7237   26.5509 C   0  0  0  0  0  0  0  0  0  0  0  0
    4.5707   11.3447   27.4238 C   0  0  0  0  0  0  0  0  0  0  0  0
    4.7542   11.7622   28.7041 F   0  0  0  0  0  0  0  0  0  0  0  0
    4.3543   10.0009   27.5031 F   0  0  0  0  0  0  0  0  0  0  0  0
    3.3822   11.8838   27.0280 F   0  0  0  0  0  0  0  0  0  0  0  0
    6.4244   10.7815   25.8160 C   0  0  0  0  0  0  0  0  0  0  0  0
    7.5725   11.1552   25.0902 C   0  0  0  0  0  0  0  0  0  0  0  0
    8.2113    9.9789   24.4470 C   0  0  0  0  0  0  0  0  0  0  0  0
    7.9711    8.8502   24.8560 O   0  0  0  0  0  0  0  0  0  0  0  0
    8.9838   10.2492   23.3779 O   0  0  0  0  0  0  0  0  0  0  0  0
    9.5793    9.0700   22.8266 C   0  0  0  0  0  0  0  0  0  0  0  0
  1  2  1  0
  2  3  1  0
  3  4  1  0
  4  5  1  0
  5  6  1  0
  6  7  1  0
  7  8  1  6
  7  9  1  0
  9 10  1  0
  9 11  1  0
 11 12  2  0
 12 13  1  0
 13 14  2  0
 14 15  1  0
 15 16  1  0
 15 17  1  0
 15 18  1  0
 14 19  1  0
 19 20  2  0
 20 21  1  0
 21 22  2  0
 21 23  1  0
 23 24  1  0
 20 11  1  0
M  END
>  <energy_score>  (1401) 
-29.272601

>  <inchikey>  (1401) 
GIEHGIVBBIPYJP-UHFFFAOYSA-N

>  <smiles>  (1401) 
CCCCCCC(C)N(N)c1cnc(C(F)(F)F)cc1C(=O)OC

>  <ref_pdb>  (1401) 
A0514a

>  <alias>  (1401) 
GIEHGIVBBIPYJP-UHFFFAOYSA-N-P308-P15-P308-601502

>  <HIPPO Pose ID>  (1401) 
502599

>  <name>  (1401) 
GIEHGIVBBIPYJP-UHFFFAOYSA-N-P308-P15-P308-601502

>  <HIPPO Compound ID>  (1401) 
293013

>  <ref_mols>  (1401) 
A4331a,A0514a

>  <distance_score>  (1401) 
1.271117

>  <inspiration_score>  (1401) 
None

$$$$
MNLBXDNBDJIKOX-UHFFFAOYSA-N-P308-P15-P308-601502
     RDKit          3D

 24 25  0  0  0  0  0  0  0  0999 V2000
    9.3676    8.8538   23.2963 C   0  0  0  0  0  0  0  0  0  0  0  0
    8.4517    9.7430   23.9363 O   0  0  0  0  0  0  0  0  0  0  0  0
    9.0339   10.8331   24.4908 C   0  0  0  0  0  0  0  0  0  0  0  0
   10.2315   11.0660   24.5471 O   0  0  0  0  0  0  0  0  0  0  0  0
    7.9634   11.7003   25.0425 C   0  0  0  0  0  0  0  0  0  0  0  0
    6.9125   11.1151   25.7547 C   0  0  0  0  0  0  0  0  0  0  0  0
    5.9601   11.9502   26.3382 C   0  0  0  0  0  0  0  0  0  0  0  0
    4.9013   11.4129   27.2586 C   0  0  0  0  0  0  0  0  0  0  0  0
    4.7533   10.0727   27.1401 F   0  0  0  0  0  0  0  0  0  0  0  0
    5.1883   11.6268   28.5749 F   0  0  0  0  0  0  0  0  0  0  0  0
    3.6592   11.9346   27.0557 F   0  0  0  0  0  0  0  0  0  0  0  0
    5.9887   13.2951   26.1952 N   0  0  0  0  0  0  0  0  0  0  0  0
    6.9728   13.8328   25.4610 C   0  0  0  0  0  0  0  0  0  0  0  0
    8.0189   13.1009   24.9130 C   0  0  0  0  0  0  0  0  0  0  0  0
    8.9543   13.7685   24.0397 N   0  0  0  0  0  0  0  0  0  0  0  0
    9.8192   13.6926   25.3578 N   0  0  0  0  0  0  0  0  0  0  0  0
    8.9416   15.1836   23.4641 C   0  0  0  0  0  0  0  0  0  0  0  0
    8.2039   16.0828   23.6655 O   0  0  0  0  0  0  0  0  0  0  0  0
    9.9846   15.2816   22.4687 C   0  0  0  0  0  0  0  0  0  0  0  0
    9.5144   15.5827   20.8521 S   0  0  0  0  0  0  0  0  0  0  0  0
   11.1391   15.4370   20.3562 C   0  0  0  0  0  0  0  0  0  0  0  0
   12.0042   15.2170   21.3187 N   0  0  0  0  0  0  0  0  0  0  0  0
   11.3530   15.1369   22.5360 C   0  0  0  0  0  0  0  0  0  0  0  0
   12.1962   14.9159   23.7193 C   0  0  0  0  0  0  0  0  0  0  0  0
  1  2  1  0
  2  3  1  0
  3  4  2  0
  3  5  1  0
  5  6  2  0
  6  7  1  0
  7  8  1  0
  8  9  1  0
  8 10  1  0
  8 11  1  0
  7 12  2  0
 12 13  1  0
 13 14  2  0
 14 15  1  0
 15 16  1  0
 15 17  1  0
 17 18  2  0
 17 19  1  0
 19 20  1  0
 20 21  1  0
 21 22  2  0
 22 23  1  0
 23 24  1  0
 14  5  1  0
 23 19  2  0
M  END
>  <energy_score>  (1402) 
-17.935644

>  <inchikey>  (1402) 
MNLBXDNBDJIKOX-UHFFFAOYSA-N

>  <smiles>  (1402) 
COC(=O)c1cc(C(F)(F)F)ncc1N(N)C(=O)c1scnc1C

>  <ref_pdb>  (1402) 
A0514a

>  <alias>  (1402) 
MNLBXDNBDJIKOX-UHFFFAOYSA-N-P308-P15-P308-601502

>  <HIPPO Pose ID>  (1402) 
502603

>  <name>  (1402) 
MNLBXDNBDJIKOX-UHFFFAOYSA-N-P308-P15-P308-601502

>  <HIPPO Compound ID>  (1402) 
293015

>  <ref_mols>  (1402) 
A4331a,A0514a

>  <distance_score>  (1402) 
1.372565

>  <inspiration_score>  (1402) 
None

$$$$
KLIQUSMNBFNVAT-UHFFFAOYSA-N-P308-P15-P308-601502
     RDKit          3D

 24 25  0  0  0  0  0  0  0  0999 V2000
    9.5277    8.6265   23.7347 C   0  0  0  0  0  0  0  0  0  0  0  0
    8.7733    9.6278   24.4103 O   0  0  0  0  0  0  0  0  0  0  0  0
    8.8755   10.8417   23.8232 C   0  0  0  0  0  0  0  0  0  0  0  0
    9.5422   11.1056   22.8397 O   0  0  0  0  0  0  0  0  0  0  0  0
    8.0037   11.8163   24.5021 C   0  0  0  0  0  0  0  0  0  0  0  0
    6.8834   11.3888   25.2027 C   0  0  0  0  0  0  0  0  0  0  0  0
    6.0864   12.3387   25.8264 C   0  0  0  0  0  0  0  0  0  0  0  0
    4.9755   11.8835   26.7415 C   0  0  0  0  0  0  0  0  0  0  0  0
    5.1610   12.2989   28.0249 F   0  0  0  0  0  0  0  0  0  0  0  0
    3.7375   12.3208   26.3812 F   0  0  0  0  0  0  0  0  0  0  0  0
    4.8733   10.5218   26.8268 F   0  0  0  0  0  0  0  0  0  0  0  0
    6.3192   13.6698   25.7077 N   0  0  0  0  0  0  0  0  0  0  0  0
    7.4165   14.0470   25.0257 C   0  0  0  0  0  0  0  0  0  0  0  0
    8.3301   13.1740   24.4560 C   0  0  0  0  0  0  0  0  0  0  0  0
    9.6639   13.5780   24.2668 N   0  0  0  0  0  0  0  0  0  0  0  0
   10.4396   13.3422   25.4501 N   0  0  0  0  0  0  0  0  0  0  0  0
   10.2941   14.3921   23.2945 C   0  0  0  0  0  0  0  0  0  0  0  0
    9.7323   14.7055   22.0780 C   0  0  0  0  0  0  0  0  0  0  0  0
   10.5571   15.3719   21.1917 C   0  0  0  0  0  0  0  0  0  0  0  0
   10.0207   15.8135   19.5805 S   0  0  0  0  0  0  0  0  0  0  0  0
   11.3280   15.0694   18.5910 C   0  0  0  0  0  0  0  0  0  0  0  0
   11.8049   15.7535   21.4760 N   0  0  0  0  0  0  0  0  0  0  0  0
   12.2444   15.4225   22.6722 C   0  0  0  0  0  0  0  0  0  0  0  0
   11.5595   14.7714   23.6084 N   0  0  0  0  0  0  0  0  0  0  0  0
  1  2  1  0
  2  3  1  0
  3  4  2  0
  3  5  1  0
  5  6  2  0
  6  7  1  0
  7  8  1  0
  8  9  1  0
  8 10  1  0
  8 11  1  0
  7 12  2  0
 12 13  1  0
 13 14  2  0
 14 15  1  0
 15 16  1  0
 15 17  1  0
 17 18  2  0
 18 19  1  0
 19 20  1  0
 20 21  1  0
 19 22  2  0
 22 23  1  0
 23 24  2  0
 14  5  1  0
 24 17  1  0
M  END
>  <energy_score>  (1403) 
-48.213109

>  <inchikey>  (1403) 
KLIQUSMNBFNVAT-UHFFFAOYSA-N

>  <smiles>  (1403) 
COC(=O)c1cc(C(F)(F)F)ncc1N(N)c1cc(SC)ncn1

>  <ref_pdb>  (1403) 
A0514a

>  <alias>  (1403) 
KLIQUSMNBFNVAT-UHFFFAOYSA-N-P308-P15-P308-601502

>  <HIPPO Pose ID>  (1403) 
502617

>  <name>  (1403) 
KLIQUSMNBFNVAT-UHFFFAOYSA-N-P308-P15-P308-601502

>  <HIPPO Compound ID>  (1403) 
293022

>  <ref_mols>  (1403) 
A4331a,A0514a

>  <distance_score>  (1403) 
1.776171

>  <inspiration_score>  (1403) 
None

$$$$
PZGSJULHPWOIMC-UHFFFAOYSA-N-P15-P15-P308-601502
     RDKit          3D

 24 25  0  0  0  0  0  0  0  0999 V2000
    9.3188    8.5119   22.9216 C   0  0  0  0  0  0  0  0  0  0  0  0
    8.4175    9.3660   23.6199 O   0  0  0  0  0  0  0  0  0  0  0  0
    8.9424   10.5879   23.8382 C   0  0  0  0  0  0  0  0  0  0  0  0
   10.0801   10.9449   23.5952 O   0  0  0  0  0  0  0  0  0  0  0  0
    7.9803   11.4537   24.5266 C   0  0  0  0  0  0  0  0  0  0  0  0
    7.1934   10.9071   25.5397 C   0  0  0  0  0  0  0  0  0  0  0  0
    6.4382   11.7720   26.3129 C   0  0  0  0  0  0  0  0  0  0  0  0
    5.4846   11.2306   27.3480 C   0  0  0  0  0  0  0  0  0  0  0  0
    4.3947   12.0250   27.5399 F   0  0  0  0  0  0  0  0  0  0  0  0
    4.9894   10.0013   27.0341 F   0  0  0  0  0  0  0  0  0  0  0  0
    6.0623   11.0871   28.5766 F   0  0  0  0  0  0  0  0  0  0  0  0
    6.5498   13.1226   26.1929 N   0  0  0  0  0  0  0  0  0  0  0  0
    7.2377   13.6070   25.1364 C   0  0  0  0  0  0  0  0  0  0  0  0
    7.9132   12.8186   24.2128 C   0  0  0  0  0  0  0  0  0  0  0  0
    8.1230   13.2635   22.8838 N   0  0  0  0  0  0  0  0  0  0  0  0
    6.8593   13.6125   22.2457 N   0  0  0  0  0  0  0  0  0  0  0  0
    9.2353   14.2377   22.5920 C   0  0  1  0  0  0  0  0  0  0  0  0
   10.6014   13.7689   23.0381 C   0  0  0  0  0  0  0  0  0  0  0  0
   11.6841   14.7431   22.6176 C   0  0  0  0  0  0  0  0  0  0  0  0
   11.7015   15.1676   21.2755 O   0  0  0  0  0  0  0  0  0  0  0  0
   10.4814   15.4047   20.5823 C   0  0  0  0  0  0  0  0  0  0  0  0
   10.0050   16.8560   20.6177 C   0  0  0  0  0  0  0  0  0  0  0  0
   10.8762   15.1486   19.1111 C   0  0  0  0  0  0  0  0  0  0  0  0
    9.3639   14.4723   21.0805 C   0  0  0  0  0  0  0  0  0  0  0  0
  1  2  1  0
  2  3  1  0
  3  4  2  0
  3  5  1  0
  5  6  2  0
  6  7  1  0
  7  8  1  0
  8  9  1  0
  8 10  1  0
  8 11  1  0
  7 12  2  0
 12 13  1  0
 13 14  2  0
 14 15  1  0
 15 16  1  0
 17 15  1  6
 17 18  1  0
 18 19  1  0
 19 20  1  0
 20 21  1  0
 21 22  1  0
 21 23  1  0
 21 24  1  0
 14  5  1  0
 24 17  1  0
M  END
>  <energy_score>  (1404) 
-22.069918

>  <inchikey>  (1404) 
PZGSJULHPWOIMC-UHFFFAOYSA-N

>  <smiles>  (1404) 
COC(=O)c1cc(C(F)(F)F)ncc1N(N)C1CCOC(C)(C)C1

>  <ref_pdb>  (1404) 
A0514a

>  <alias>  (1404) 
PZGSJULHPWOIMC-UHFFFAOYSA-N-P15-P15-P308-601502

>  <HIPPO Pose ID>  (1404) 
502622

>  <name>  (1404) 
PZGSJULHPWOIMC-UHFFFAOYSA-N-P15-P15-P308-601502

>  <HIPPO Compound ID>  (1404) 
293025

>  <ref_mols>  (1404) 
A4331a,A0514a

>  <distance_score>  (1404) 
1.479427

>  <inspiration_score>  (1404) 
None

$$$$
LXOBGXXVFGVSLM-UHFFFAOYSA-N-P308-P15-P308-601502
     RDKit          3D

 24 25  0  0  0  0  0  0  0  0999 V2000
    9.3980    8.9095   23.2498 C   0  0  0  0  0  0  0  0  0  0  0  0
    8.4417    9.8336   23.7673 O   0  0  0  0  0  0  0  0  0  0  0  0
    8.9806   10.9404   24.3225 C   0  0  0  0  0  0  0  0  0  0  0  0
   10.1621   11.1863   24.4962 O   0  0  0  0  0  0  0  0  0  0  0  0
    7.8829   11.7958   24.7976 C   0  0  0  0  0  0  0  0  0  0  0  0
    7.0861   11.2801   25.8145 C   0  0  0  0  0  0  0  0  0  0  0  0
    6.0962   12.0825   26.3680 C   0  0  0  0  0  0  0  0  0  0  0  0
    5.1595   11.5380   27.4140 C   0  0  0  0  0  0  0  0  0  0  0  0
    3.8769   11.9554   27.2540 F   0  0  0  0  0  0  0  0  0  0  0  0
    5.1016   10.1743   27.4214 F   0  0  0  0  0  0  0  0  0  0  0  0
    5.5122   11.8957   28.6817 F   0  0  0  0  0  0  0  0  0  0  0  0
    5.9245   13.3672   25.9968 N   0  0  0  0  0  0  0  0  0  0  0  0
    6.6351   13.7916   24.9431 C   0  0  0  0  0  0  0  0  0  0  0  0
    7.6186   13.0624   24.2845 C   0  0  0  0  0  0  0  0  0  0  0  0
    8.1819   13.5718   23.1050 N   0  0  0  0  0  0  0  0  0  0  0  0
    7.2560   13.8659   22.0943 N   0  0  0  0  0  0  0  0  0  0  0  0
    9.4684   14.1337   22.9167 C   0  0  0  0  0  0  0  0  0  0  0  0
   10.3811   14.1332   23.9363 C   0  0  0  0  0  0  0  0  0  0  0  0
   11.6579   14.4989   23.6111 C   0  0  0  0  0  0  0  0  0  0  0  0
   12.7081   14.2454   24.6417 C   0  0  0  0  0  0  0  0  0  0  0  0
   12.0048   14.9390   22.3867 N   0  0  0  0  0  0  0  0  0  0  0  0
   11.0275   14.9881   21.4606 C   0  0  0  0  0  0  0  0  0  0  0  0
   11.3502   15.4646   20.0783 C   0  0  0  0  0  0  0  0  0  0  0  0
    9.7615   14.6115   21.6877 N   0  0  0  0  0  0  0  0  0  0  0  0
  1  2  1  0
  2  3  1  0
  3  4  2  0
  3  5  1  0
  5  6  2  0
  6  7  1  0
  7  8  1  0
  8  9  1  0
  8 10  1  0
  8 11  1  0
  7 12  2  0
 12 13  1  0
 13 14  2  0
 14 15  1  0
 15 16  1  0
 15 17  1  0
 17 18  2  0
 18 19  1  0
 19 20  1  0
 19 21  2  0
 21 22  1  0
 22 23  1  0
 22 24  2  0
 14  5  1  0
 24 17  1  0
M  END
>  <energy_score>  (1405) 
-47.446837

>  <inchikey>  (1405) 
LXOBGXXVFGVSLM-UHFFFAOYSA-N

>  <smiles>  (1405) 
COC(=O)c1cc(C(F)(F)F)ncc1N(N)c1cc(C)nc(C)n1

>  <ref_pdb>  (1405) 
A0514a

>  <alias>  (1405) 
LXOBGXXVFGVSLM-UHFFFAOYSA-N-P308-P15-P308-601502

>  <HIPPO Pose ID>  (1405) 
502631

>  <name>  (1405) 
LXOBGXXVFGVSLM-UHFFFAOYSA-N-P308-P15-P308-601502

>  <HIPPO Compound ID>  (1405) 
293029

>  <ref_mols>  (1405) 
A4331a,A0514a

>  <distance_score>  (1405) 
1.756676

>  <inspiration_score>  (1405) 
None

$$$$
UBWWLADUEWUJAW-UHFFFAOYSA-N-P308-P15-P308-601502
     RDKit          3D

 24 25  0  0  0  0  0  0  0  0999 V2000
    9.2768    8.3552   22.9975 C   0  0  0  0  0  0  0  0  0  0  0  0
    8.4577    9.1729   23.8182 O   0  0  0  0  0  0  0  0  0  0  0  0
    9.1711   10.0086   24.6068 C   0  0  0  0  0  0  0  0  0  0  0  0
   10.3700    9.9556   24.8185 O   0  0  0  0  0  0  0  0  0  0  0  0
    8.2228   11.0484   25.0705 C   0  0  0  0  0  0  0  0  0  0  0  0
    6.9427   10.6905   25.4557 C   0  0  0  0  0  0  0  0  0  0  0  0
    6.1015   11.6965   25.9153 C   0  0  0  0  0  0  0  0  0  0  0  0
    5.0359   11.3365   26.8859 C   0  0  0  0  0  0  0  0  0  0  0  0
    4.7690   10.0042   26.8884 F   0  0  0  0  0  0  0  0  0  0  0  0
    5.4682   11.6359   28.1380 F   0  0  0  0  0  0  0  0  0  0  0  0
    3.8608   11.9896   26.7346 F   0  0  0  0  0  0  0  0  0  0  0  0
    6.3846   13.0102   25.8340 N   0  0  0  0  0  0  0  0  0  0  0  0
    7.6235   13.3137   25.4670 C   0  0  0  0  0  0  0  0  0  0  0  0
    8.6106   12.3816   25.1753 C   0  0  0  0  0  0  0  0  0  0  0  0
    9.9359   12.7927   25.0197 N   0  0  0  0  0  0  0  0  0  0  0  0
   10.4145   13.8226   25.8661 N   0  0  0  0  0  0  0  0  0  0  0  0
   10.3397   12.8125   23.6085 C   0  0  0  0  0  0  0  0  0  0  0  0
    9.5676   13.7882   22.7077 C   0  0  0  0  0  0  0  0  0  0  0  0
    9.7112   15.2312   22.9723 N   0  0  0  0  0  0  0  0  0  0  0  0
   11.0974   15.6467   23.2384 C   0  0  0  0  0  0  0  0  0  0  0  0
   12.0413   15.4204   22.0720 C   0  0  0  0  0  0  0  0  0  0  0  0
   11.5495   16.1830   20.8678 C   0  0  0  0  0  0  0  0  0  0  0  0
   10.0938   15.8879   20.5530 C   0  0  0  0  0  0  0  0  0  0  0  0
    9.2034   15.9864   21.8004 C   0  0  0  0  0  0  0  0  0  0  0  0
  1  2  1  0
  2  3  1  0
  3  4  2  0
  3  5  1  0
  5  6  2  0
  6  7  1  0
  7  8  1  0
  8  9  1  0
  8 10  1  0
  8 11  1  0
  7 12  2  0
 12 13  1  0
 13 14  2  0
 14 15  1  0
 15 16  1  0
 15 17  1  0
 17 18  1  0
 18 19  1  0
 19 20  1  0
 20 21  1  0
 21 22  1  0
 22 23  1  0
 23 24  1  0
 14  5  1  0
 24 19  1  0
M  END
>  <energy_score>  (1406) 
-27.155701

>  <inchikey>  (1406) 
UBWWLADUEWUJAW-UHFFFAOYSA-N

>  <smiles>  (1406) 
COC(=O)c1cc(C(F)(F)F)ncc1N(N)CCN1CCCCC1

>  <ref_pdb>  (1406) 
A0514a

>  <alias>  (1406) 
UBWWLADUEWUJAW-UHFFFAOYSA-N-P308-P15-P308-601502

>  <HIPPO Pose ID>  (1406) 
502645

>  <name>  (1406) 
UBWWLADUEWUJAW-UHFFFAOYSA-N-P308-P15-P308-601502

>  <HIPPO Compound ID>  (1406) 
293036

>  <ref_mols>  (1406) 
A4331a,A0514a

>  <distance_score>  (1406) 
1.848539

>  <inspiration_score>  (1406) 
None

$$$$
OIJKRHOUTWPBCN-UHFFFAOYSA-N-P308-P15-P308-601502
     RDKit          3D

 24 27  0  0  0  0  0  0  0  0999 V2000
    9.5719    8.8789   23.5265 C   0  0  0  0  0  0  0  0  0  0  0  0
    8.7409    9.7902   24.2503 O   0  0  0  0  0  0  0  0  0  0  0  0
    8.7953   11.0800   23.8305 C   0  0  0  0  0  0  0  0  0  0  0  0
    9.4874   11.4854   22.9176 O   0  0  0  0  0  0  0  0  0  0  0  0
    7.8996   11.9270   24.6617 C   0  0  0  0  0  0  0  0  0  0  0  0
    7.0828   11.3073   25.6217 C   0  0  0  0  0  0  0  0  0  0  0  0
    6.2318   12.0625   26.4200 C   0  0  0  0  0  0  0  0  0  0  0  0
    5.2500   11.4336   27.3712 C   0  0  0  0  0  0  0  0  0  0  0  0
    3.9110   12.0952   27.6074 C   0  0  0  0  0  0  0  0  0  0  0  0
    4.9600   12.1496   28.6747 C   0  0  0  0  0  0  0  0  0  0  0  0
    6.2563   13.4025   26.3736 N   0  0  0  0  0  0  0  0  0  0  0  0
    6.9874   13.9699   25.4077 C   0  0  0  0  0  0  0  0  0  0  0  0
    7.7842   13.3075   24.4758 C   0  0  0  0  0  0  0  0  0  0  0  0
    8.2675   14.0314   23.3525 N   0  0  0  0  0  0  0  0  0  0  0  0
    7.3461   15.0166   22.9292 N   0  0  0  0  0  0  0  0  0  0  0  0
    9.6383   14.3559   23.1355 C   0  0  0  0  0  0  0  0  0  0  0  0
   10.5227   14.2734   24.1653 N   0  0  0  0  0  0  0  0  0  0  0  0
   11.7969   14.6026   23.9343 C   0  0  0  0  0  0  0  0  0  0  0  0
   12.3457   14.9993   22.7918 N   0  0  0  0  0  0  0  0  0  0  0  0
   11.4612   15.0621   21.7877 C   0  0  0  0  0  0  0  0  0  0  0  0
   11.9565   15.4689   20.2192 S   0  0  0  0  0  0  0  0  0  0  0  0
   10.3696   15.4526   19.6258 C   0  0  0  0  0  0  0  0  0  0  0  0
    9.4823   15.0822   20.6141 C   0  0  0  0  0  0  0  0  0  0  0  0
   10.1086   14.8097   21.8779 C   0  0  0  0  0  0  0  0  0  0  0  0
  1  2  1  0
  2  3  1  0
  3  4  2  0
  3  5  1  0
  5  6  2  0
  6  7  1  0
  7  8  1  0
  8  9  1  0
  9 10  1  0
  7 11  2  0
 11 12  1  0
 12 13  2  0
 13 14  1  0
 14 15  1  0
 14 16  1  0
 16 17  2  0
 17 18  1  0
 18 19  2  0
 19 20  1  0
 20 21  1  0
 21 22  1  0
 22 23  2  0
 23 24  1  0
 13  5  1  0
 24 16  1  0
 10  8  1  0
 24 20  2  0
M  END
>  <energy_score>  (1407) 
-63.401336

>  <inchikey>  (1407) 
OIJKRHOUTWPBCN-UHFFFAOYSA-N

>  <smiles>  (1407) 
COC(=O)c1cc(C2CC2)ncc1N(N)c1ncnc2sccc12

>  <ref_pdb>  (1407) 
A0514a

>  <alias>  (1407) 
OIJKRHOUTWPBCN-UHFFFAOYSA-N-P308-P15-P308-601502

>  <HIPPO Pose ID>  (1407) 
502651

>  <name>  (1407) 
OIJKRHOUTWPBCN-UHFFFAOYSA-N-P308-P15-P308-601502

>  <HIPPO Compound ID>  (1407) 
293039

>  <ref_mols>  (1407) 
A4331a,A0514a

>  <distance_score>  (1407) 
1.974954

>  <inspiration_score>  (1407) 
None

$$$$
UDXQFCDMJYTGNA-UHFFFAOYSA-N-P15-P15-P308-601502
     RDKit          3D

 24 27  0  0  0  0  0  0  0  0999 V2000
    5.4641   15.2524   23.5584 C   0  0  0  0  0  0  0  0  0  0  0  0
    6.8833   15.2325   23.4194 O   0  0  0  0  0  0  0  0  0  0  0  0
    7.3377   14.2487   22.6148 C   0  0  0  0  0  0  0  0  0  0  0  0
    6.7150   13.3681   22.0509 O   0  0  0  0  0  0  0  0  0  0  0  0
    8.7658   14.4260   22.3940 C   0  0  0  0  0  0  0  0  0  0  0  0
    9.0078   15.3581   21.3961 C   0  0  0  0  0  0  0  0  0  0  0  0
   10.2294   15.3452   20.7726 C   0  0  0  0  0  0  0  0  0  0  0  0
   10.2072   15.5930   19.2893 C   0  0  0  0  0  0  0  0  0  0  0  0
   11.5129   15.4670   18.5947 C   0  0  0  0  0  0  0  0  0  0  0  0
   10.6642   16.7292   18.4763 C   0  0  0  0  0  0  0  0  0  0  0  0
   11.2832   14.7230   21.3634 N   0  0  0  0  0  0  0  0  0  0  0  0
   11.0341   13.8500   22.3682 C   0  0  0  0  0  0  0  0  0  0  0  0
    9.7688   13.5709   22.8682 C   0  0  0  0  0  0  0  0  0  0  0  0
    9.5423   12.4483   23.7376 N   0  0  0  0  0  0  0  0  0  0  0  0
    9.7270   11.1886   23.1272 N   0  0  0  0  0  0  0  0  0  0  0  0
    8.5578   12.5080   24.7787 C   0  0  0  0  0  0  0  0  0  0  0  0
    8.4966   13.7174   25.4927 C   0  0  0  0  0  0  0  0  0  0  0  0
    7.4994   14.0058   26.4096 C   0  0  0  0  0  0  0  0  0  0  0  0
    6.5856   12.9969   26.6449 C   0  0  0  0  0  0  0  0  0  0  0  0
    5.4789   12.9815   27.4403 N   0  0  0  0  0  0  0  0  0  0  0  0
    4.8653   11.7919   27.4887 N   0  0  0  0  0  0  0  0  0  0  0  0
    5.5760   11.0443   26.6389 C   0  0  0  0  0  0  0  0  0  0  0  0
    6.6476   11.7453   26.0493 C   0  0  0  0  0  0  0  0  0  0  0  0
    7.6499   11.4785   25.0958 C   0  0  0  0  0  0  0  0  0  0  0  0
  1  2  1  0
  2  3  1  0
  3  4  2  0
  3  5  1  0
  5  6  2  0
  6  7  1  0
  7  8  1  0
  8  9  1  0
  9 10  1  0
  7 11  2  0
 11 12  1  0
 12 13  2  0
 13 14  1  0
 14 15  1  0
 14 16  1  0
 16 17  2  0
 17 18  1  0
 18 19  2  0
 19 20  1  0
 20 21  1  0
 21 22  2  0
 22 23  1  0
 23 24  2  0
 13  5  1  0
 24 16  1  0
 10  8  1  0
 23 19  1  0
M  END
>  <energy_score>  (1408) 
-5.722625

>  <inchikey>  (1408) 
UDXQFCDMJYTGNA-UHFFFAOYSA-N

>  <smiles>  (1408) 
COC(=O)c1cc(C2CC2)ncc1N(N)c1ccc2[nH]ncc2c1

>  <ref_pdb>  (1408) 
A0514a

>  <alias>  (1408) 
UDXQFCDMJYTGNA-UHFFFAOYSA-N-P15-P15-P308-601502

>  <HIPPO Pose ID>  (1408) 
502658

>  <name>  (1408) 
UDXQFCDMJYTGNA-UHFFFAOYSA-N-P15-P15-P308-601502

>  <HIPPO Compound ID>  (1408) 
293043

>  <ref_mols>  (1408) 
A4331a,A0514a

>  <distance_score>  (1408) 
1.993038

>  <inspiration_score>  (1408) 
None

$$$$
DTFKMXBTEVCXAO-UHFFFAOYSA-N-P15-P15-P308-601502
     RDKit          3D

 24 26  0  0  0  0  0  0  0  0999 V2000
    9.2012    8.5333   23.0775 C   0  0  0  0  0  0  0  0  0  0  0  0
    8.4272    9.3585   23.9568 O   0  0  0  0  0  0  0  0  0  0  0  0
    8.8469   10.6430   23.9901 C   0  0  0  0  0  0  0  0  0  0  0  0
    9.7984   11.0758   23.3629 O   0  0  0  0  0  0  0  0  0  0  0  0
    8.0187   11.4720   24.9094 C   0  0  0  0  0  0  0  0  0  0  0  0
    7.0338   10.9030   25.7275 C   0  0  0  0  0  0  0  0  0  0  0  0
    6.3968   11.7151   26.6645 C   0  0  0  0  0  0  0  0  0  0  0  0
    5.5874   11.2186   27.8181 C   0  0  0  0  0  0  0  0  0  0  0  0
    4.5437   10.1606   27.7462 C   0  0  0  0  0  0  0  0  0  0  0  0
    4.1312   11.6071   27.8282 C   0  0  0  0  0  0  0  0  0  0  0  0
    6.6070   13.0469   26.7072 N   0  0  0  0  0  0  0  0  0  0  0  0
    7.5170   13.5837   25.8900 C   0  0  0  0  0  0  0  0  0  0  0  0
    8.3098   12.8412   25.0316 C   0  0  0  0  0  0  0  0  0  0  0  0
    9.4016   13.4507   24.3680 N   0  0  0  0  0  0  0  0  0  0  0  0
   10.2912   14.1986   25.1872 N   0  0  0  0  0  0  0  0  0  0  0  0
    9.2309   14.0319   23.1281 C   0  0  0  0  0  0  0  0  0  0  0  0
    7.6925   14.2667   22.3943 S   0  0  0  0  0  0  0  0  0  0  0  0
    8.2522   14.9198   21.0128 N   0  0  0  0  0  0  0  0  0  0  0  0
    9.5664   15.0766   21.0799 C   0  0  0  0  0  0  0  0  0  0  0  0
   10.2932   16.0526   19.8416 S   0  0  0  0  0  0  0  0  0  0  0  0
   11.5359   15.0339   19.0753 C   0  0  0  0  0  0  0  0  0  0  0  0
   10.1752   14.5315   22.2277 C   0  0  0  0  0  0  0  0  0  0  0  0
   11.5445   14.5181   22.5522 C   0  0  0  0  0  0  0  0  0  0  0  0
   12.5632   14.4149   23.0897 N   0  0  0  0  0  0  0  0  0  0  0  0
  1  2  1  0
  2  3  1  0
  3  4  2  0
  3  5  1  0
  5  6  2  0
  6  7  1  0
  7  8  1  0
  8  9  1  0
  9 10  1  0
  7 11  2  0
 11 12  1  0
 12 13  2  0
 13 14  1  0
 14 15  1  0
 14 16  1  0
 16 17  1  0
 17 18  1  0
 18 19  2  0
 19 20  1  0
 20 21  1  0
 19 22  1  0
 22 23  1  0
 23 24  3  0
 13  5  1  0
 22 16  2  0
 10  8  1  0
M  END
>  <energy_score>  (1409) 
-66.292178

>  <inchikey>  (1409) 
DTFKMXBTEVCXAO-UHFFFAOYSA-N

>  <smiles>  (1409) 
COC(=O)c1cc(C2CC2)ncc1N(N)c1snc(SC)c1C#N

>  <ref_pdb>  (1409) 
A0514a

>  <alias>  (1409) 
DTFKMXBTEVCXAO-UHFFFAOYSA-N-P15-P15-P308-601502

>  <HIPPO Pose ID>  (1409) 
502672

>  <name>  (1409) 
DTFKMXBTEVCXAO-UHFFFAOYSA-N-P15-P15-P308-601502

>  <HIPPO Compound ID>  (1409) 
293050

>  <ref_mols>  (1409) 
A4331a,A0514a

>  <distance_score>  (1409) 
1.79209

>  <inspiration_score>  (1409) 
None

$$$$
BHOBCRXHMOJKFB-UHFFFAOYSA-N-P308-P15-P308-601502
     RDKit          3D

 24 26  0  0  0  0  0  0  0  0999 V2000
    9.2252    8.4395   23.0220 C   0  0  0  0  0  0  0  0  0  0  0  0
    8.4112    9.3619   23.7324 O   0  0  0  0  0  0  0  0  0  0  0  0
    9.1302   10.2112   24.4965 C   0  0  0  0  0  0  0  0  0  0  0  0
   10.3282   10.1482   24.7305 O   0  0  0  0  0  0  0  0  0  0  0  0
    8.2215   11.2656   24.9877 C   0  0  0  0  0  0  0  0  0  0  0  0
    6.9895   10.9007   25.5651 C   0  0  0  0  0  0  0  0  0  0  0  0
    6.1976   11.8964   26.1176 C   0  0  0  0  0  0  0  0  0  0  0  0
    4.8415   11.7229   26.7133 C   0  0  0  0  0  0  0  0  0  0  0  0
    4.5003   10.8127   27.8538 C   0  0  0  0  0  0  0  0  0  0  0  0
    4.6504   12.2792   28.1146 C   0  0  0  0  0  0  0  0  0  0  0  0
    6.6187   13.1714   26.1401 N   0  0  0  0  0  0  0  0  0  0  0  0
    7.7737   13.4893   25.5455 C   0  0  0  0  0  0  0  0  0  0  0  0
    8.6130   12.6062   24.8969 C   0  0  0  0  0  0  0  0  0  0  0  0
    9.7747   13.0493   24.2611 N   0  0  0  0  0  0  0  0  0  0  0  0
   10.9993   12.8056   24.9243 N   0  0  0  0  0  0  0  0  0  0  0  0
    9.6923   13.9486   23.0680 C   0  0  2  0  0  0  0  0  0  0  0  0
   11.0123   14.0233   22.3044 C   0  0  0  0  0  0  0  0  0  0  0  0
   10.9438   15.3378   21.5364 C   0  0  0  0  0  0  0  0  0  0  0  0
   12.3018   16.0119   21.4575 C   0  0  0  0  0  0  0  0  0  0  0  0
   10.3482   15.2347   20.1376 C   0  0  0  0  0  0  0  0  0  0  0  0
   10.0796   16.1894   22.2925 O   0  0  0  0  0  0  0  0  0  0  0  0
    9.4086   15.4392   23.3294 C   0  0  0  0  0  0  0  0  0  0  0  0
   10.0141   15.9604   24.6338 C   0  0  0  0  0  0  0  0  0  0  0  0
    7.9331   15.8152   23.1450 C   0  0  0  0  0  0  0  0  0  0  0  0
  1  2  1  0
  2  3  1  0
  3  4  2  0
  3  5  1  0
  5  6  2  0
  6  7  1  0
  7  8  1  0
  8  9  1  0
  9 10  1  0
  7 11  2  0
 11 12  1  0
 12 13  2  0
 13 14  1  0
 14 15  1  0
 16 14  1  1
 16 17  1  0
 17 18  1  0
 18 19  1  0
 18 20  1  0
 18 21  1  0
 21 22  1  0
 22 23  1  0
 22 24  1  0
 13  5  1  0
 22 16  1  0
 10  8  1  0
M  END
>  <energy_score>  (1410) 
-40.307871

>  <inchikey>  (1410) 
BHOBCRXHMOJKFB-UHFFFAOYSA-N

>  <smiles>  (1410) 
COC(=O)c1cc(C2CC2)ncc1N(N)C1CC(C)(C)OC1(C)C

>  <ref_pdb>  (1410) 
A0514a

>  <alias>  (1410) 
BHOBCRXHMOJKFB-UHFFFAOYSA-N-P308-P15-P308-601502

>  <HIPPO Pose ID>  (1410) 
502683

>  <name>  (1410) 
BHOBCRXHMOJKFB-UHFFFAOYSA-N-P308-P15-P308-601502

>  <HIPPO Compound ID>  (1410) 
293055

>  <ref_mols>  (1410) 
A4331a,A0514a

>  <distance_score>  (1410) 
1.670753

>  <inspiration_score>  (1410) 
None

$$$$
SMZYYLMFETUJNV-UHFFFAOYSA-N-P308-P15-P308-601502
     RDKit          3D

 24 25  0  0  0  0  0  0  0  0999 V2000
    9.2619    8.8293   23.3564 C   0  0  0  0  0  0  0  0  0  0  0  0
    8.3548    9.7145   24.0165 O   0  0  0  0  0  0  0  0  0  0  0  0
    8.9626   10.7808   24.5932 C   0  0  0  0  0  0  0  0  0  0  0  0
   10.1658   10.9878   24.6382 O   0  0  0  0  0  0  0  0  0  0  0  0
    7.9122   11.6592   25.1676 C   0  0  0  0  0  0  0  0  0  0  0  0
    6.8919   11.0825   25.9385 C   0  0  0  0  0  0  0  0  0  0  0  0
    6.0286   11.9212   26.6374 C   0  0  0  0  0  0  0  0  0  0  0  0
    5.1701   11.5097   27.7886 C   0  0  0  0  0  0  0  0  0  0  0  0
    4.2525   10.3384   27.7846 C   0  0  0  0  0  0  0  0  0  0  0  0
    3.6903   11.7337   27.6655 C   0  0  0  0  0  0  0  0  0  0  0  0
    6.0520   13.2522   26.4624 N   0  0  0  0  0  0  0  0  0  0  0  0
    7.0096   13.7766   25.6918 C   0  0  0  0  0  0  0  0  0  0  0  0
    7.9944   13.0510   25.0353 C   0  0  0  0  0  0  0  0  0  0  0  0
    9.0560   13.7033   24.3736 N   0  0  0  0  0  0  0  0  0  0  0  0
   10.2038   13.7474   25.2378 N   0  0  0  0  0  0  0  0  0  0  0  0
    8.6624   14.9455   23.6004 C   0  0  2  0  0  0  0  0  0  0  0  0
    7.7305   14.5260   22.4502 C   0  0  0  0  0  0  0  0  0  0  0  0
    9.9168   15.6791   23.1135 C   0  0  0  0  0  0  0  0  0  0  0  0
   10.8093   16.0472   23.8757 O   0  0  0  0  0  0  0  0  0  0  0  0
    9.9616   15.7796   21.7644 O   0  0  0  0  0  0  0  0  0  0  0  0
   11.2115   15.4384   21.1324 C   0  0  0  0  0  0  0  0  0  0  0  0
   11.5574   14.0026   21.5189 C   0  0  0  0  0  0  0  0  0  0  0  0
   12.3460   16.3674   21.5217 C   0  0  0  0  0  0  0  0  0  0  0  0
   10.9568   15.5457   19.6272 C   0  0  0  0  0  0  0  0  0  0  0  0
  1  2  1  0
  2  3  1  0
  3  4  2  0
  3  5  1  0
  5  6  2  0
  6  7  1  0
  7  8  1  0
  8  9  1  0
  9 10  1  0
  7 11  2  0
 11 12  1  0
 12 13  2  0
 13 14  1  0
 14 15  1  0
 14 16  1  0
 16 17  1  6
 16 18  1  0
 18 19  2  0
 18 20  1  0
 20 21  1  0
 21 22  1  0
 21 23  1  0
 21 24  1  0
 13  5  1  0
 10  8  1  0
M  END
>  <energy_score>  (1411) 
-46.866087

>  <inchikey>  (1411) 
SMZYYLMFETUJNV-UHFFFAOYSA-N

>  <smiles>  (1411) 
COC(=O)c1cc(C2CC2)ncc1N(N)C(C)C(=O)OC(C)(C)C

>  <ref_pdb>  (1411) 
A0514a

>  <alias>  (1411) 
SMZYYLMFETUJNV-UHFFFAOYSA-N-P308-P15-P308-601502

>  <HIPPO Pose ID>  (1411) 
502695

>  <name>  (1411) 
SMZYYLMFETUJNV-UHFFFAOYSA-N-P308-P15-P308-601502

>  <HIPPO Compound ID>  (1411) 
293061

>  <ref_mols>  (1411) 
A4331a,A0514a

>  <distance_score>  (1411) 
1.533257

>  <inspiration_score>  (1411) 
None

$$$$
ALFGDRDKLRFRFI-UHFFFAOYSA-N-P308-P15-P308-601502
     RDKit          3D

 24 27  0  0  0  0  0  0  0  0999 V2000
    9.3948    8.6851   23.1362 C   0  0  0  0  0  0  0  0  0  0  0  0
    8.5320    9.5504   23.8689 O   0  0  0  0  0  0  0  0  0  0  0  0
    9.1530   10.6591   24.3268 C   0  0  0  0  0  0  0  0  0  0  0  0
   10.3362   10.9356   24.2277 O   0  0  0  0  0  0  0  0  0  0  0  0
    8.1846   11.5296   25.0096 C   0  0  0  0  0  0  0  0  0  0  0  0
    7.1090   10.9878   25.7145 C   0  0  0  0  0  0  0  0  0  0  0  0
    6.2932   11.8478   26.4347 C   0  0  0  0  0  0  0  0  0  0  0  0
    5.0696   11.3701   27.1653 C   0  0  0  0  0  0  0  0  0  0  0  0
    4.7672   11.9095   28.5444 C   0  0  0  0  0  0  0  0  0  0  0  0
    3.9327   12.3506   27.3827 C   0  0  0  0  0  0  0  0  0  0  0  0
    6.5882   13.1702   26.5355 N   0  0  0  0  0  0  0  0  0  0  0  0
    7.5839   13.6769   25.7877 C   0  0  0  0  0  0  0  0  0  0  0  0
    8.3840   12.9109   24.9661 C   0  0  0  0  0  0  0  0  0  0  0  0
    8.7718   13.5087   23.7613 N   0  0  0  0  0  0  0  0  0  0  0  0
    9.8341   14.3801   23.6424 N   0  0  0  0  0  0  0  0  0  0  0  0
    9.6280   14.9622   22.4906 C   0  0  0  0  0  0  0  0  0  0  0  0
   10.6029   15.5052   21.6026 C   0  0  0  0  0  0  0  0  0  0  0  0
   11.9295   15.1824   21.5012 C   0  0  0  0  0  0  0  0  0  0  0  0
   12.3324   15.2810   20.1388 C   0  0  0  0  0  0  0  0  0  0  0  0
   11.3860   15.8349   19.3130 C   0  0  0  0  0  0  0  0  0  0  0  0
   10.0844   16.3895   20.2268 S   0  0  0  0  0  0  0  0  0  0  0  0
    8.2382   14.7986   21.9656 C   0  0  0  0  0  0  0  0  0  0  0  0
    7.8058   13.6543   22.7667 C   0  0  0  0  0  0  0  0  0  0  0  0
    6.7998   13.0037   22.5573 O   0  0  0  0  0  0  0  0  0  0  0  0
  1  2  1  0
  2  3  1  0
  3  4  2  0
  3  5  1  0
  5  6  2  0
  6  7  1  0
  7  8  1  0
  8  9  1  0
  9 10  1  0
  7 11  2  0
 11 12  1  0
 12 13  2  0
 13 14  1  0
 14 15  1  0
 15 16  2  0
 16 17  1  0
 17 18  2  0
 18 19  1  0
 19 20  2  0
 20 21  1  0
 16 22  1  0
 22 23  1  0
 23 24  2  0
 13  5  1  0
 23 14  1  0
 10  8  1  0
 21 17  1  0
M  END
>  <energy_score>  (1412) 
-11.481276

>  <inchikey>  (1412) 
ALFGDRDKLRFRFI-UHFFFAOYSA-N

>  <smiles>  (1412) 
COC(=O)c1cc(C2CC2)ncc1N1N=C(c2cccs2)CC1=O

>  <ref_pdb>  (1412) 
A0514a

>  <alias>  (1412) 
ALFGDRDKLRFRFI-UHFFFAOYSA-N-P308-P15-P308-601502

>  <HIPPO Pose ID>  (1412) 
502703

>  <name>  (1412) 
ALFGDRDKLRFRFI-UHFFFAOYSA-N-P308-P15-P308-601502

>  <HIPPO Compound ID>  (1412) 
293065

>  <ref_mols>  (1412) 
A4331a,A0514a

>  <distance_score>  (1412) 
1.74855

>  <inspiration_score>  (1412) 
None

$$$$
CYWPXKXXUVDBMH-UHFFFAOYSA-N-P308-P15-P308-601502
     RDKit          3D

 24 26  0  0  0  0  0  0  0  0999 V2000
    9.3096    8.5456   23.0639 C   0  0  0  0  0  0  0  0  0  0  0  0
    8.4825    9.4182   23.8265 O   0  0  0  0  0  0  0  0  0  0  0  0
    9.1769   10.3489   24.5204 C   0  0  0  0  0  0  0  0  0  0  0  0
   10.3915   10.4064   24.6322 O   0  0  0  0  0  0  0  0  0  0  0  0
    8.2003   11.3117   25.0856 C   0  0  0  0  0  0  0  0  0  0  0  0
    7.0152   10.8134   25.6450 C   0  0  0  0  0  0  0  0  0  0  0  0
    6.1183   11.7019   26.2217 C   0  0  0  0  0  0  0  0  0  0  0  0
    4.9745   11.2537   27.0890 C   0  0  0  0  0  0  0  0  0  0  0  0
    3.7967   12.1718   27.3376 C   0  0  0  0  0  0  0  0  0  0  0  0
    4.8046   11.9634   28.4221 C   0  0  0  0  0  0  0  0  0  0  0  0
    6.3196   13.0351   26.1414 N   0  0  0  0  0  0  0  0  0  0  0  0
    7.4412   13.4933   25.5687 C   0  0  0  0  0  0  0  0  0  0  0  0
    8.4495   12.6882   25.0714 C   0  0  0  0  0  0  0  0  0  0  0  0
    9.6419   13.2849   24.6457 N   0  0  0  0  0  0  0  0  0  0  0  0
   10.8429   12.9288   25.3232 N   0  0  0  0  0  0  0  0  0  0  0  0
    9.7814   14.1402   23.5617 C   0  0  0  0  0  0  0  0  0  0  0  0
   10.9719   14.4779   23.1600 N   0  0  0  0  0  0  0  0  0  0  0  0
   11.0853   15.2485   22.0315 C   0  0  0  0  0  0  0  0  0  0  0  0
   12.4167   15.8825   21.8341 C   0  0  0  0  0  0  0  0  0  0  0  0
   10.0891   15.3864   21.1429 C   0  0  0  0  0  0  0  0  0  0  0  0
   10.1896   16.0396   19.8069 C   0  0  0  0  0  0  0  0  0  0  0  0
    8.8196   14.7715   21.5927 C   0  0  0  0  0  0  0  0  0  0  0  0
    7.9426   14.3790   20.8376 O   0  0  0  0  0  0  0  0  0  0  0  0
    8.6820   14.6707   22.9501 N   0  0  0  0  0  0  0  0  0  0  0  0
  1  2  1  0
  2  3  1  0
  3  4  2  0
  3  5  1  0
  5  6  2  0
  6  7  1  0
  7  8  1  0
  8  9  1  0
  9 10  1  0
  7 11  2  0
 11 12  1  0
 12 13  2  0
 13 14  1  0
 14 15  1  0
 14 16  1  0
 16 17  2  0
 17 18  1  0
 18 19  1  0
 18 20  2  0
 20 21  1  0
 20 22  1  0
 22 23  2  0
 22 24  1  0
 13  5  1  0
 24 16  1  0
 10  8  1  0
M  END
>  <energy_score>  (1413) 
-40.709491

>  <inchikey>  (1413) 
CYWPXKXXUVDBMH-UHFFFAOYSA-N

>  <smiles>  (1413) 
COC(=O)c1cc(C2CC2)ncc1N(N)c1nc(C)c(C)c(=O)[nH]1

>  <ref_pdb>  (1413) 
A0514a

>  <alias>  (1413) 
CYWPXKXXUVDBMH-UHFFFAOYSA-N-P308-P15-P308-601502

>  <HIPPO Pose ID>  (1413) 
502705

>  <name>  (1413) 
CYWPXKXXUVDBMH-UHFFFAOYSA-N-P308-P15-P308-601502

>  <HIPPO Compound ID>  (1413) 
293066

>  <ref_mols>  (1413) 
A4331a,A0514a

>  <distance_score>  (1413) 
1.749988

>  <inspiration_score>  (1413) 
None

$$$$
LYKLFJPHGDJPAE-UHFFFAOYSA-N-P308-P15-P308-601502
     RDKit          3D

 24 26  0  0  0  0  0  0  0  0999 V2000
    9.4407    8.9267   23.2289 C   0  0  0  0  0  0  0  0  0  0  0  0
    8.5069    9.8751   23.7451 O   0  0  0  0  0  0  0  0  0  0  0  0
    9.0719   10.9943   24.2525 C   0  0  0  0  0  0  0  0  0  0  0  0
   10.2588   11.2455   24.3675 O   0  0  0  0  0  0  0  0  0  0  0  0
    7.9907   11.8511   24.7553 C   0  0  0  0  0  0  0  0  0  0  0  0
    7.2104   11.3432   25.7927 C   0  0  0  0  0  0  0  0  0  0  0  0
    6.2285   12.1381   26.3704 C   0  0  0  0  0  0  0  0  0  0  0  0
    5.3002   11.6142   27.4306 C   0  0  0  0  0  0  0  0  0  0  0  0
    3.9713   12.2879   27.6809 C   0  0  0  0  0  0  0  0  0  0  0  0
    5.0877   12.4628   28.6656 C   0  0  0  0  0  0  0  0  0  0  0  0
    6.0813   13.4243   26.0073 N   0  0  0  0  0  0  0  0  0  0  0  0
    6.7768   13.8492   24.9445 C   0  0  0  0  0  0  0  0  0  0  0  0
    7.7076   13.1045   24.2343 C   0  0  0  0  0  0  0  0  0  0  0  0
    8.1055   13.5364   22.9598 N   0  0  0  0  0  0  0  0  0  0  0  0
    7.0336   13.7275   22.0569 N   0  0  0  0  0  0  0  0  0  0  0  0
    9.3165   14.1854   22.6205 C   0  0  0  0  0  0  0  0  0  0  0  0
   10.2848   14.2768   23.5237 N   0  0  0  0  0  0  0  0  0  0  0  0
   11.4601   14.7559   23.0973 C   0  0  0  0  0  0  0  0  0  0  0  0
   12.5225   14.6719   24.1275 C   0  0  0  0  0  0  0  0  0  0  0  0
   11.6784   15.2173   21.8098 C   0  0  0  0  0  0  0  0  0  0  0  0
   10.5999   15.1622   20.9527 C   0  0  0  0  0  0  0  0  0  0  0  0
   10.6779   15.6520   19.5260 C   0  0  0  0  0  0  0  0  0  0  0  0
   11.4237   14.7881   18.6741 O   0  0  0  0  0  0  0  0  0  0  0  0
    9.4123   14.6680   21.3594 N   0  0  0  0  0  0  0  0  0  0  0  0
  1  2  1  0
  2  3  1  0
  3  4  2  0
  3  5  1  0
  5  6  2  0
  6  7  1  0
  7  8  1  0
  8  9  1  0
  9 10  1  0
  7 11  2  0
 11 12  1  0
 12 13  2  0
 13 14  1  0
 14 15  1  0
 14 16  1  0
 16 17  2  0
 17 18  1  0
 18 19  1  0
 18 20  2  0
 20 21  1  0
 21 22  1  0
 22 23  1  0
 21 24  2  0
 13  5  1  0
 24 16  1  0
 10  8  1  0
M  END
>  <energy_score>  (1414) 
-34.441313

>  <inchikey>  (1414) 
LYKLFJPHGDJPAE-UHFFFAOYSA-N

>  <smiles>  (1414) 
COC(=O)c1cc(C2CC2)ncc1N(N)c1nc(C)cc(CO)n1

>  <ref_pdb>  (1414) 
A0514a

>  <alias>  (1414) 
LYKLFJPHGDJPAE-UHFFFAOYSA-N-P308-P15-P308-601502

>  <HIPPO Pose ID>  (1414) 
502719

>  <name>  (1414) 
LYKLFJPHGDJPAE-UHFFFAOYSA-N-P308-P15-P308-601502

>  <HIPPO Compound ID>  (1414) 
293073

>  <ref_mols>  (1414) 
A4331a,A0514a

>  <distance_score>  (1414) 
1.822155

>  <inspiration_score>  (1414) 
None

$$$$
CIILEMQRCUUTMF-UHFFFAOYSA-N-P15-P15-P308-601502
     RDKit          3D

 24 26  0  0  0  0  0  0  0  0999 V2000
    9.5318    8.7202   23.0391 C   0  0  0  0  0  0  0  0  0  0  0  0
    8.7236    9.5865   23.8356 O   0  0  0  0  0  0  0  0  0  0  0  0
    9.0299   10.9004   23.7291 C   0  0  0  0  0  0  0  0  0  0  0  0
    9.9259   11.3627   23.0470 O   0  0  0  0  0  0  0  0  0  0  0  0
    8.1402   11.7130   24.5940 C   0  0  0  0  0  0  0  0  0  0  0  0
    7.2086   11.0756   25.4302 C   0  0  0  0  0  0  0  0  0  0  0  0
    6.4471   11.8362   26.3074 C   0  0  0  0  0  0  0  0  0  0  0  0
    5.4659   11.2191   27.2669 C   0  0  0  0  0  0  0  0  0  0  0  0
    4.2009   11.9669   27.6274 C   0  0  0  0  0  0  0  0  0  0  0  0
    5.3071   11.8609   28.6307 C   0  0  0  0  0  0  0  0  0  0  0  0
    6.6077   13.1790   26.3762 N   0  0  0  0  0  0  0  0  0  0  0  0
    7.4539   13.7836   25.5250 C   0  0  0  0  0  0  0  0  0  0  0  0
    8.2483   13.1089   24.6238 C   0  0  0  0  0  0  0  0  0  0  0  0
    8.9740   13.8935   23.7125 N   0  0  0  0  0  0  0  0  0  0  0  0
   10.3127   14.1019   23.9480 N   0  0  0  0  0  0  0  0  0  0  0  0
   10.8304   14.3700   22.7816 C   0  0  0  0  0  0  0  0  0  0  0  0
   12.2713   14.6187   22.5559 C   0  0  0  0  0  0  0  0  0  0  0  0
    9.8655   14.3829   21.6286 C   0  0  2  0  0  0  0  0  0  0  0  0
    9.7433   15.7389   20.9562 C   0  0  0  0  0  0  0  0  0  0  0  0
   10.2924   15.9173   19.5617 C   0  0  0  0  0  0  0  0  0  0  0  0
   10.1090   16.9189   18.8871 O   0  0  0  0  0  0  0  0  0  0  0  0
   11.0968   14.9524   19.1040 O   0  0  0  0  0  0  0  0  0  0  0  0
    8.6247   13.9304   22.3573 C   0  0  0  0  0  0  0  0  0  0  0  0
    7.5560   13.5975   21.8687 O   0  0  0  0  0  0  0  0  0  0  0  0
  1  2  1  0
  2  3  1  0
  3  4  2  0
  3  5  1  0
  5  6  2  0
  6  7  1  0
  7  8  1  0
  8  9  1  0
  9 10  1  0
  7 11  2  0
 11 12  1  0
 12 13  2  0
 13 14  1  0
 14 15  1  0
 15 16  2  0
 16 17  1  0
 16 18  1  0
 18 19  1  1
 19 20  1  0
 20 21  2  0
 20 22  1  0
 18 23  1  0
 23 24  2  0
 13  5  1  0
 23 14  1  0
 10  8  1  0
M  END
>  <energy_score>  (1415) 
-44.163906

>  <inchikey>  (1415) 
CIILEMQRCUUTMF-UHFFFAOYSA-N

>  <smiles>  (1415) 
COC(=O)c1cc(C2CC2)ncc1N1N=C(C)C(CC(=O)O)C1=O

>  <ref_pdb>  (1415) 
A0514a

>  <alias>  (1415) 
CIILEMQRCUUTMF-UHFFFAOYSA-N-P15-P15-P308-601502

>  <HIPPO Pose ID>  (1415) 
502730

>  <name>  (1415) 
CIILEMQRCUUTMF-UHFFFAOYSA-N-P15-P15-P308-601502

>  <HIPPO Compound ID>  (1415) 
293079

>  <ref_mols>  (1415) 
A4331a,A0514a

>  <distance_score>  (1415) 
1.493898

>  <inspiration_score>  (1415) 
None

$$$$
IMDCXAIDELZSFJ-UHFFFAOYSA-N-P308-P15-P308-601502
     RDKit          3D

 24 26  0  0  0  0  0  0  0  0999 V2000
    9.2068    8.4008   23.2337 C   0  0  0  0  0  0  0  0  0  0  0  0
    8.3072    9.3842   23.7306 O   0  0  0  0  0  0  0  0  0  0  0  0
    8.8846   10.2589   24.5793 C   0  0  0  0  0  0  0  0  0  0  0  0
   10.0151   10.2355   25.0260 O   0  0  0  0  0  0  0  0  0  0  0  0
    7.9048   11.3226   24.8112 C   0  0  0  0  0  0  0  0  0  0  0  0
    6.9715   11.0796   25.8096 C   0  0  0  0  0  0  0  0  0  0  0  0
    6.0791   12.0724   26.1727 C   0  0  0  0  0  0  0  0  0  0  0  0
    5.1429   11.8809   27.3321 C   0  0  0  0  0  0  0  0  0  0  0  0
    3.9274   12.7580   27.4951 C   0  0  0  0  0  0  0  0  0  0  0  0
    5.1104   12.9576   28.3954 C   0  0  0  0  0  0  0  0  0  0  0  0
    6.0611   13.2477   25.5195 N   0  0  0  0  0  0  0  0  0  0  0  0
    6.9116   13.4151   24.4902 C   0  0  0  0  0  0  0  0  0  0  0  0
    7.9122   12.5269   24.1102 C   0  0  0  0  0  0  0  0  0  0  0  0
    8.8235   12.8922   23.0835 N   0  0  0  0  0  0  0  0  0  0  0  0
    9.8553   11.9760   22.8145 N   0  0  0  0  0  0  0  0  0  0  0  0
    9.3858   14.2026   22.9626 C   0  0  0  0  0  0  0  0  0  0  0  0
    9.7614   14.8360   24.1242 C   0  0  0  0  0  0  0  0  0  0  0  0
   10.7500   15.7712   24.0230 C   0  0  0  0  0  0  0  0  0  0  0  0
   11.2769   16.2756   25.3369 C   0  0  0  0  0  0  0  0  0  0  0  0
   11.2967   16.1182   22.8370 N   0  0  0  0  0  0  0  0  0  0  0  0
   10.7945   15.5181   21.7276 C   0  0  0  0  0  0  0  0  0  0  0  0
   11.3330   15.8730   20.3527 C   0  0  0  0  0  0  0  0  0  0  0  0
   11.3369   14.7778   19.4200 O   0  0  0  0  0  0  0  0  0  0  0  0
    9.8593   14.5564   21.7538 N   0  0  0  0  0  0  0  0  0  0  0  0
  1  2  1  0
  2  3  1  0
  3  4  2  0
  3  5  1  0
  5  6  2  0
  6  7  1  0
  7  8  1  0
  8  9  1  0
  9 10  1  0
  7 11  2  0
 11 12  1  0
 12 13  2  0
 13 14  1  0
 14 15  1  0
 14 16  1  0
 16 17  2  0
 17 18  1  0
 18 19  1  0
 18 20  2  0
 20 21  1  0
 21 22  1  0
 22 23  1  0
 21 24  2  0
 13  5  1  0
 24 16  1  0
 10  8  1  0
M  END
>  <energy_score>  (1416) 
-40.392596

>  <inchikey>  (1416) 
IMDCXAIDELZSFJ-UHFFFAOYSA-N

>  <smiles>  (1416) 
COC(=O)c1cc(C2CC2)ncc1N(N)c1cc(C)nc(CO)n1

>  <ref_pdb>  (1416) 
A0514a

>  <alias>  (1416) 
IMDCXAIDELZSFJ-UHFFFAOYSA-N-P308-P15-P308-601502

>  <HIPPO Pose ID>  (1416) 
502755

>  <name>  (1416) 
IMDCXAIDELZSFJ-UHFFFAOYSA-N-P308-P15-P308-601502

>  <HIPPO Compound ID>  (1416) 
293091

>  <ref_mols>  (1416) 
A4331a,A0514a

>  <distance_score>  (1416) 
1.744395

>  <inspiration_score>  (1416) 
None

$$$$
RQTLCXFIDWKKIX-UHFFFAOYSA-N-P15-P15-P308-601502
     RDKit          3D

 24 25  0  0  0  0  0  0  0  0999 V2000
    9.3480    8.7660   23.0526 C   0  0  0  0  0  0  0  0  0  0  0  0
    8.4630    9.6018   23.8066 O   0  0  0  0  0  0  0  0  0  0  0  0
    8.8280   10.9066   23.8403 C   0  0  0  0  0  0  0  0  0  0  0  0
    9.8373   11.3645   23.3408 O   0  0  0  0  0  0  0  0  0  0  0  0
    7.8675   11.6877   24.6596 C   0  0  0  0  0  0  0  0  0  0  0  0
    7.1494   11.0303   25.6567 C   0  0  0  0  0  0  0  0  0  0  0  0
    6.3138   11.7631   26.4933 C   0  0  0  0  0  0  0  0  0  0  0  0
    5.4218   11.0494   27.4749 C   0  0  0  0  0  0  0  0  0  0  0  0
    4.3093   11.7660   27.7983 F   0  0  0  0  0  0  0  0  0  0  0  0
    4.9625    9.8531   27.0135 F   0  0  0  0  0  0  0  0  0  0  0  0
    6.0450   10.7701   28.6566 F   0  0  0  0  0  0  0  0  0  0  0  0
    6.2495   13.1117   26.4574 N   0  0  0  0  0  0  0  0  0  0  0  0
    6.8670   13.7036   25.4286 C   0  0  0  0  0  0  0  0  0  0  0  0
    7.6477   13.0553   24.4760 C   0  0  0  0  0  0  0  0  0  0  0  0
    7.9431   13.7830   23.3113 N   0  0  0  0  0  0  0  0  0  0  0  0
    6.9751   13.6433   22.3011 N   0  0  0  0  0  0  0  0  0  0  0  0
    9.2231   14.2068   22.9012 C   0  0  0  0  0  0  0  0  0  0  0  0
   10.2385   14.0803   23.7552 N   0  0  0  0  0  0  0  0  0  0  0  0
   11.4638   14.1957   23.2326 C   0  0  0  0  0  0  0  0  0  0  0  0
   12.5098   13.6062   24.1034 C   0  0  0  0  0  0  0  0  0  0  0  0
   11.7009   14.6845   21.9613 C   0  0  0  0  0  0  0  0  0  0  0  0
   10.5812   14.9698   21.2081 C   0  0  0  0  0  0  0  0  0  0  0  0
   10.6580   15.6173   19.8651 C   0  0  0  0  0  0  0  0  0  0  0  0
    9.3432   14.7219   21.6632 N   0  0  0  0  0  0  0  0  0  0  0  0
  1  2  1  0
  2  3  1  0
  3  4  2  0
  3  5  1  0
  5  6  2  0
  6  7  1  0
  7  8  1  0
  8  9  1  0
  8 10  1  0
  8 11  1  0
  7 12  2  0
 12 13  1  0
 13 14  2  0
 14 15  1  0
 15 16  1  0
 15 17  1  0
 17 18  2  0
 18 19  1  0
 19 20  1  0
 19 21  2  0
 21 22  1  0
 22 23  1  0
 22 24  2  0
 14  5  1  0
 24 17  1  0
M  END
>  <energy_score>  (1417) 
-46.498936

>  <inchikey>  (1417) 
RQTLCXFIDWKKIX-UHFFFAOYSA-N

>  <smiles>  (1417) 
COC(=O)c1cc(C(F)(F)F)ncc1N(N)c1nc(C)cc(C)n1

>  <ref_pdb>  (1417) 
A0514a

>  <alias>  (1417) 
RQTLCXFIDWKKIX-UHFFFAOYSA-N-P15-P15-P308-601502

>  <HIPPO Pose ID>  (1417) 
502758

>  <name>  (1417) 
RQTLCXFIDWKKIX-UHFFFAOYSA-N-P15-P15-P308-601502

>  <HIPPO Compound ID>  (1417) 
293093

>  <ref_mols>  (1417) 
A4331a,A0514a

>  <distance_score>  (1417) 
1.63436

>  <inspiration_score>  (1417) 
None

$$$$
QUWZOGLPPYKPTB-UHFFFAOYSA-N-P177-P126-P177-601502
     RDKit          3D

 21 23  0  0  0  0  0  0  0  0999 V2000
   11.4320   14.7974   18.4249 C   0  0  0  0  0  0  0  0  0  0  0  0
   10.6909   15.3907   19.5361 C   0  0  0  0  0  0  0  0  0  0  0  0
    9.7100   16.2949   19.2497 O   0  0  0  0  0  0  0  0  0  0  0  0
    9.2711   16.6926   20.4771 C   0  0  0  0  0  0  0  0  0  0  0  0
    9.8524   16.0931   21.4876 N   0  0  0  0  0  0  0  0  0  0  0  0
   10.7950   15.2881   20.9007 C   0  0  0  0  0  0  0  0  0  0  0  0
   11.7546   14.4976   21.6922 C   0  0  0  0  0  0  0  0  0  0  0  0
   11.0209   13.5232   22.4173 N   0  0  0  0  0  0  0  0  0  0  0  0
   10.4276   13.5705   23.8263 C   0  0  0  0  0  0  0  0  0  0  0  0
   10.5086   14.3866   24.6531 O   0  0  0  0  0  0  0  0  0  0  0  0
    9.6369   12.3450   24.0118 C   0  0  0  0  0  0  0  0  0  0  0  0
    9.8635   11.2635   23.2461 N   0  0  0  0  0  0  0  0  0  0  0  0
    9.0102   10.3381   23.6973 N   0  0  0  0  0  0  0  0  0  0  0  0
    9.0470    9.0164   23.1176 C   0  0  0  0  0  0  0  0  0  0  0  0
    8.1860   10.7980   24.6922 C   0  0  0  0  0  0  0  0  0  0  0  0
    7.1484   10.1983   25.4075 C   0  0  0  0  0  0  0  0  0  0  0  0
    6.5030   10.9590   26.3836 C   0  0  0  0  0  0  0  0  0  0  0  0
    6.8870   12.2705   26.6231 C   0  0  0  0  0  0  0  0  0  0  0  0
    6.2616   12.9677   27.5813 F   0  0  0  0  0  0  0  0  0  0  0  0
    7.9194   12.8713   25.9085 C   0  0  0  0  0  0  0  0  0  0  0  0
    8.5820   12.1135   24.9272 C   0  0  0  0  0  0  0  0  0  0  0  0
  1  2  1  0
  2  3  1  0
  3  4  1  0
  4  5  2  0
  5  6  1  0
  6  7  1  0
  7  8  1  0
  8  9  1  0
  9 10  2  0
  9 11  1  0
 11 12  2  0
 12 13  1  0
 13 14  1  0
 13 15  1  0
 15 16  2  0
 16 17  1  0
 17 18  2  0
 18 19  1  0
 18 20  1  0
 20 21  2  0
  6  2  2  0
 21 11  1  0
 21 15  1  0
M  END
>  <energy_score>  (1418) 
-12.97026

>  <inchikey>  (1418) 
QUWZOGLPPYKPTB-UHFFFAOYSA-N

>  <smiles>  (1418) 
Cc1ocnc1CNC(=O)c1nn(C)c2ccc(F)cc12

>  <ref_pdb>  (1418) 
A0514a

>  <alias>  (1418) 
QUWZOGLPPYKPTB-UHFFFAOYSA-N-P177-P126-P177-601502

>  <HIPPO Pose ID>  (1418) 
502761

>  <name>  (1418) 
QUWZOGLPPYKPTB-UHFFFAOYSA-N-P177-P126-P177-601502

>  <HIPPO Compound ID>  (1418) 
299198

>  <ref_mols>  (1418) 
A3403a,A2290a

>  <distance_score>  (1418) 
0.724782

>  <inspiration_score>  (1418) 
None

$$$$
BTHPZERUKSCASQ-UHFFFAOYSA-N-P126-P126-P177-601502
     RDKit          3D

 21 23  0  0  0  0  0  0  0  0999 V2000
   12.8001   14.8748   22.1449 C   0  0  0  0  0  0  0  0  0  0  0  0
   11.8268   14.0588   21.3458 C   0  0  1  0  0  0  0  0  0  0  0  0
   11.1427   13.1041   22.1592 N   0  0  0  0  0  0  0  0  0  0  0  0
   10.5821   13.2256   23.5823 C   0  0  0  0  0  0  0  0  0  0  0  0
   10.6546   14.0986   24.3514 O   0  0  0  0  0  0  0  0  0  0  0  0
    9.8609   11.9847   23.8732 C   0  0  0  0  0  0  0  0  0  0  0  0
   10.1578   10.8725   23.1841 N   0  0  0  0  0  0  0  0  0  0  0  0
    9.3355    9.9394   23.6736 N   0  0  0  0  0  0  0  0  0  0  0  0
    9.3848    8.6274   23.0790 C   0  0  0  0  0  0  0  0  0  0  0  0
    8.4998   10.4070   24.6592 C   0  0  0  0  0  0  0  0  0  0  0  0
    7.4953    9.7960   25.4189 C   0  0  0  0  0  0  0  0  0  0  0  0
    6.7906   10.5877   26.3288 C   0  0  0  0  0  0  0  0  0  0  0  0
    7.0873   11.9371   26.4666 C   0  0  0  0  0  0  0  0  0  0  0  0
    6.4065   12.6658   27.3618 F   0  0  0  0  0  0  0  0  0  0  0  0
    8.0897   12.5460   25.7147 C   0  0  0  0  0  0  0  0  0  0  0  0
    8.8139   11.7590   24.8004 C   0  0  0  0  0  0  0  0  0  0  0  0
   10.8204   14.9025   20.6593 C   0  0  0  0  0  0  0  0  0  0  0  0
   10.6633   15.1269   19.3150 C   0  0  0  0  0  0  0  0  0  0  0  0
    9.7334   16.1071   19.1508 O   0  0  0  0  0  0  0  0  0  0  0  0
    9.3625   16.4176   20.4194 C   0  0  0  0  0  0  0  0  0  0  0  0
    9.9328   15.6907   21.3505 N   0  0  0  0  0  0  0  0  0  0  0  0
  2  1  1  1
  2  3  1  0
  3  4  1  0
  4  5  2  0
  4  6  1  0
  6  7  2  0
  7  8  1  0
  8  9  1  0
  8 10  1  0
 10 11  2  0
 11 12  1  0
 12 13  2  0
 13 14  1  0
 13 15  1  0
 15 16  2  0
  2 17  1  0
 17 18  2  0
 18 19  1  0
 19 20  1  0
 20 21  2  0
 16  6  1  0
 21 17  1  0
 16 10  1  0
M  END
>  <energy_score>  (1419) 
-6.647353

>  <inchikey>  (1419) 
BTHPZERUKSCASQ-UHFFFAOYSA-N

>  <smiles>  (1419) 
CC(NC(=O)c1nn(C)c2ccc(F)cc12)c1cocn1

>  <ref_pdb>  (1419) 
A0514a

>  <alias>  (1419) 
BTHPZERUKSCASQ-UHFFFAOYSA-N-P126-P126-P177-601502

>  <HIPPO Pose ID>  (1419) 
502762

>  <name>  (1419) 
BTHPZERUKSCASQ-UHFFFAOYSA-N-P126-P126-P177-601502

>  <HIPPO Compound ID>  (1419) 
299199

>  <ref_mols>  (1419) 
A3403a,A2290a

>  <distance_score>  (1419) 
0.694094

>  <inspiration_score>  (1419) 
None

$$$$
CQYKWOZAKXFTKK-UHFFFAOYSA-N-P177-P126-P177-601502
     RDKit          3D

 21 23  0  0  0  0  0  0  0  0999 V2000
    9.0643    9.0279   23.1017 C   0  0  0  0  0  0  0  0  0  0  0  0
    9.0380   10.3665   23.6433 N   0  0  0  0  0  0  0  0  0  0  0  0
    9.8795   11.2813   23.1493 N   0  0  0  0  0  0  0  0  0  0  0  0
    9.6755   12.3833   23.8916 C   0  0  0  0  0  0  0  0  0  0  0  0
   10.4791   13.5997   23.6560 C   0  0  0  0  0  0  0  0  0  0  0  0
   10.5787   14.4386   24.4591 O   0  0  0  0  0  0  0  0  0  0  0  0
   11.0829   13.4917   22.2503 N   0  0  0  0  0  0  0  0  0  0  0  0
   11.8543   14.4250   21.4997 C   0  0  0  0  0  0  0  0  0  0  0  0
   10.9407   15.2005   20.6452 C   0  0  0  0  0  0  0  0  0  0  0  0
   10.7487   15.1323   19.2869 C   0  0  0  0  0  0  0  0  0  0  0  0
    9.8292   16.0723   18.9471 O   0  0  0  0  0  0  0  0  0  0  0  0
    9.5310   16.6946   20.1268 C   0  0  0  0  0  0  0  0  0  0  0  0
    8.4981   18.0487   20.2336 Cl  0  0  0  0  0  0  0  0  0  0  0  0
   10.1447   16.1863   21.1710 N   0  0  0  0  0  0  0  0  0  0  0  0
    8.6393   12.1713   24.8380 C   0  0  0  0  0  0  0  0  0  0  0  0
    7.9991   12.9472   25.8200 C   0  0  0  0  0  0  0  0  0  0  0  0
    6.9777   12.3624   26.5657 C   0  0  0  0  0  0  0  0  0  0  0  0
    6.3749   13.0807   27.5229 F   0  0  0  0  0  0  0  0  0  0  0  0
    6.5808   11.0486   26.3574 C   0  0  0  0  0  0  0  0  0  0  0  0
    7.2045   10.2661   25.3850 C   0  0  0  0  0  0  0  0  0  0  0  0
    8.2325   10.8512   24.6408 C   0  0  0  0  0  0  0  0  0  0  0  0
  1  2  1  0
  2  3  1  0
  3  4  2  0
  4  5  1  0
  5  6  2  0
  5  7  1  0
  7  8  1  0
  8  9  1  0
  9 10  2  0
 10 11  1  0
 11 12  1  0
 12 13  1  0
 12 14  2  0
  4 15  1  0
 15 16  2  0
 16 17  1  0
 17 18  1  0
 17 19  2  0
 19 20  1  0
 20 21  2  0
 21  2  1  0
 14  9  1  0
 21 15  1  0
M  END
>  <energy_score>  (1420) 
-9.066851

>  <inchikey>  (1420) 
CQYKWOZAKXFTKK-UHFFFAOYSA-N

>  <smiles>  (1420) 
Cn1nc(C(=O)NCc2coc(Cl)n2)c2cc(F)ccc21

>  <ref_pdb>  (1420) 
A0514a

>  <alias>  (1420) 
CQYKWOZAKXFTKK-UHFFFAOYSA-N-P177-P126-P177-601502

>  <HIPPO Pose ID>  (1420) 
502765

>  <name>  (1420) 
CQYKWOZAKXFTKK-UHFFFAOYSA-N-P177-P126-P177-601502

>  <HIPPO Compound ID>  (1420) 
299200

>  <ref_mols>  (1420) 
A3403a,A2290a

>  <distance_score>  (1420) 
0.636644

>  <inspiration_score>  (1420) 
None

$$$$
ZMJFOHMIEXGORM-UHFFFAOYSA-N-P177-P126-P177-601502
     RDKit          3D

 21 23  0  0  0  0  0  0  0  0999 V2000
    8.5662   17.7221   20.4925 C   0  0  0  0  0  0  0  0  0  0  0  0
    9.5756   16.6671   20.3698 C   0  0  0  0  0  0  0  0  0  0  0  0
   10.2599   16.1014   21.3345 N   0  0  0  0  0  0  0  0  0  0  0  0
   11.0241   15.1670   20.6952 C   0  0  0  0  0  0  0  0  0  0  0  0
   11.9594   14.3317   21.4619 C   0  0  0  0  0  0  0  0  0  0  0  0
   11.1985   13.4079   22.2403 N   0  0  0  0  0  0  0  0  0  0  0  0
   10.5604   13.5608   23.6286 C   0  0  0  0  0  0  0  0  0  0  0  0
   10.6173   14.4383   24.3947 O   0  0  0  0  0  0  0  0  0  0  0  0
    9.7295   12.3619   23.8746 C   0  0  0  0  0  0  0  0  0  0  0  0
    9.9072   11.2523   23.1381 N   0  0  0  0  0  0  0  0  0  0  0  0
    9.0499   10.3567   23.6344 N   0  0  0  0  0  0  0  0  0  0  0  0
    9.0552    9.0164   23.0971 C   0  0  0  0  0  0  0  0  0  0  0  0
    8.2534   10.8599   24.6296 C   0  0  0  0  0  0  0  0  0  0  0  0
    7.2146   10.2957   25.3757 C   0  0  0  0  0  0  0  0  0  0  0  0
    6.6042   11.0946   26.3430 C   0  0  0  0  0  0  0  0  0  0  0  0
    7.0240   12.4028   26.5438 C   0  0  0  0  0  0  0  0  0  0  0  0
    6.4326   13.1361   27.4967 F   0  0  0  0  0  0  0  0  0  0  0  0
    8.0562   12.9663   25.7960 C   0  0  0  0  0  0  0  0  0  0  0  0
    8.6849   12.1743   24.8193 C   0  0  0  0  0  0  0  0  0  0  0  0
   10.7563   15.1959   19.3468 C   0  0  0  0  0  0  0  0  0  0  0  0
    9.8120   16.1524   19.1272 O   0  0  0  0  0  0  0  0  0  0  0  0
  1  2  1  0
  2  3  2  0
  3  4  1  0
  4  5  1  0
  5  6  1  0
  6  7  1  0
  7  8  2  0
  7  9  1  0
  9 10  2  0
 10 11  1  0
 11 12  1  0
 11 13  1  0
 13 14  2  0
 14 15  1  0
 15 16  2  0
 16 17  1  0
 16 18  1  0
 18 19  2  0
  4 20  2  0
 20 21  1  0
 21  2  1  0
 19  9  1  0
 19 13  1  0
M  END
>  <energy_score>  (1421) 
-12.065091

>  <inchikey>  (1421) 
ZMJFOHMIEXGORM-UHFFFAOYSA-N

>  <smiles>  (1421) 
Cc1nc(CNC(=O)c2nn(C)c3ccc(F)cc23)co1

>  <ref_pdb>  (1421) 
A0514a

>  <alias>  (1421) 
ZMJFOHMIEXGORM-UHFFFAOYSA-N-P177-P126-P177-601502

>  <HIPPO Pose ID>  (1421) 
502767

>  <name>  (1421) 
ZMJFOHMIEXGORM-UHFFFAOYSA-N-P177-P126-P177-601502

>  <HIPPO Compound ID>  (1421) 
299201

>  <ref_mols>  (1421) 
A3403a,A2290a

>  <distance_score>  (1421) 
0.642001

>  <inspiration_score>  (1421) 
None

$$$$
BTOWCQUEJZDTCQ-UHFFFAOYSA-N-P177-P126-P177-601502
     RDKit          3D

 21 23  0  0  0  0  0  0  0  0999 V2000
    9.0943    9.0344   23.0828 C   0  0  0  0  0  0  0  0  0  0  0  0
    9.0523   10.3718   23.6276 N   0  0  0  0  0  0  0  0  0  0  0  0
    9.8831   11.2987   23.1377 N   0  0  0  0  0  0  0  0  0  0  0  0
    9.6638   12.3964   23.8818 C   0  0  0  0  0  0  0  0  0  0  0  0
   10.4466   13.6284   23.6506 C   0  0  0  0  0  0  0  0  0  0  0  0
   10.4650   14.4977   24.4269 O   0  0  0  0  0  0  0  0  0  0  0  0
   11.1110   13.5108   22.2729 N   0  0  0  0  0  0  0  0  0  0  0  0
   11.8556   14.4639   21.5192 C   0  0  0  0  0  0  0  0  0  0  0  0
   10.9388   15.1973   20.6308 C   0  0  0  0  0  0  0  0  0  0  0  0
   10.7736   15.0823   19.2725 C   0  0  0  0  0  0  0  0  0  0  0  0
    9.8613   16.0072   18.8820 O   0  0  0  0  0  0  0  0  0  0  0  0
    9.5424   16.6758   20.0308 C   0  0  0  0  0  0  0  0  0  0  0  0
    8.4097   18.2010   20.0377 Br  0  0  0  0  0  0  0  0  0  0  0  0
   10.1313   16.2005   21.1059 N   0  0  0  0  0  0  0  0  0  0  0  0
    8.6288   12.1676   24.8266 C   0  0  0  0  0  0  0  0  0  0  0  0
    7.9773   12.9332   25.8112 C   0  0  0  0  0  0  0  0  0  0  0  0
    6.9597   12.3358   26.5592 C   0  0  0  0  0  0  0  0  0  0  0  0
    6.0914   13.3363   27.9094 Br  0  0  0  0  0  0  0  0  0  0  0  0
    6.5824   11.0143   26.3412 C   0  0  0  0  0  0  0  0  0  0  0  0
    7.2195   10.2449   25.3659 C   0  0  0  0  0  0  0  0  0  0  0  0
    8.2401   10.8441   24.6255 C   0  0  0  0  0  0  0  0  0  0  0  0
  1  2  1  0
  2  3  1  0
  3  4  2  0
  4  5  1  0
  5  6  2  0
  5  7  1  0
  7  8  1  0
  8  9  1  0
  9 10  2  0
 10 11  1  0
 11 12  1  0
 12 13  1  0
 12 14  2  0
  4 15  1  0
 15 16  2  0
 16 17  1  0
 17 18  1  0
 17 19  2  0
 19 20  1  0
 20 21  2  0
 21  2  1  0
 14  9  1  0
 21 15  1  0
M  END
>  <energy_score>  (1422) 
-13.154304

>  <inchikey>  (1422) 
BTOWCQUEJZDTCQ-UHFFFAOYSA-N

>  <smiles>  (1422) 
Cn1nc(C(=O)NCc2coc(Br)n2)c2cc(Br)ccc21

>  <ref_pdb>  (1422) 
A0514a

>  <alias>  (1422) 
BTOWCQUEJZDTCQ-UHFFFAOYSA-N-P177-P126-P177-601502

>  <HIPPO Pose ID>  (1422) 
502771

>  <name>  (1422) 
BTOWCQUEJZDTCQ-UHFFFAOYSA-N-P177-P126-P177-601502

>  <HIPPO Compound ID>  (1422) 
299203

>  <ref_mols>  (1422) 
A3403a,A2290a

>  <distance_score>  (1422) 
0.629986

>  <inspiration_score>  (1422) 
None

$$$$
AESNDXDPAJZXIV-UHFFFAOYSA-N-P177-P126-P177-601502
     RDKit          3D

 21 23  0  0  0  0  0  0  0  0999 V2000
   11.4318   14.7989   18.4262 C   0  0  0  0  0  0  0  0  0  0  0  0
   10.6932   15.3830   19.5441 C   0  0  0  0  0  0  0  0  0  0  0  0
    9.7060   16.2831   19.2659 O   0  0  0  0  0  0  0  0  0  0  0  0
    9.2704   16.6727   20.4971 C   0  0  0  0  0  0  0  0  0  0  0  0
    9.8596   16.0715   21.5022 N   0  0  0  0  0  0  0  0  0  0  0  0
   10.8053   15.2760   20.9078 C   0  0  0  0  0  0  0  0  0  0  0  0
   11.7793   14.4942   21.6913 C   0  0  0  0  0  0  0  0  0  0  0  0
   11.0677   13.5115   22.4286 N   0  0  0  0  0  0  0  0  0  0  0  0
   10.4257   13.5801   23.8163 C   0  0  0  0  0  0  0  0  0  0  0  0
   10.4409   14.4281   24.6146 O   0  0  0  0  0  0  0  0  0  0  0  0
    9.6412   12.3487   24.0020 C   0  0  0  0  0  0  0  0  0  0  0  0
    9.8699   11.2689   23.2345 N   0  0  0  0  0  0  0  0  0  0  0  0
    9.0224   10.3388   23.6876 N   0  0  0  0  0  0  0  0  0  0  0  0
    9.0642    9.0164   23.1095 C   0  0  0  0  0  0  0  0  0  0  0  0
    8.1962   10.7955   24.6817 C   0  0  0  0  0  0  0  0  0  0  0  0
    7.1624   10.1911   25.3962 C   0  0  0  0  0  0  0  0  0  0  0  0
    6.5109   10.9461   26.3735 C   0  0  0  0  0  0  0  0  0  0  0  0
    6.8853   12.2630   26.6182 C   0  0  0  0  0  0  0  0  0  0  0  0
    5.9946   13.2452   27.9669 Br  0  0  0  0  0  0  0  0  0  0  0  0
    7.9181   12.8667   25.8988 C   0  0  0  0  0  0  0  0  0  0  0  0
    8.5855   12.1118   24.9166 C   0  0  0  0  0  0  0  0  0  0  0  0
  1  2  1  0
  2  3  1  0
  3  4  1  0
  4  5  2  0
  5  6  1  0
  6  7  1  0
  7  8  1  0
  8  9  1  0
  9 10  2  0
  9 11  1  0
 11 12  2  0
 12 13  1  0
 13 14  1  0
 13 15  1  0
 15 16  2  0
 16 17  1  0
 17 18  2  0
 18 19  1  0
 18 20  1  0
 20 21  2  0
  6  2  2  0
 21 11  1  0
 21 15  1  0
M  END
>  <energy_score>  (1423) 
-30.741734

>  <inchikey>  (1423) 
AESNDXDPAJZXIV-UHFFFAOYSA-N

>  <smiles>  (1423) 
Cc1ocnc1CNC(=O)c1nn(C)c2ccc(Br)cc12

>  <ref_pdb>  (1423) 
A0514a

>  <alias>  (1423) 
AESNDXDPAJZXIV-UHFFFAOYSA-N-P177-P126-P177-601502

>  <HIPPO Pose ID>  (1423) 
502773

>  <name>  (1423) 
AESNDXDPAJZXIV-UHFFFAOYSA-N-P177-P126-P177-601502

>  <HIPPO Compound ID>  (1423) 
299204

>  <ref_mols>  (1423) 
A3403a,A2290a

>  <distance_score>  (1423) 
0.720433

>  <inspiration_score>  (1423) 
None

$$$$
IVQHQCHSIJRSAI-UHFFFAOYSA-N-P177-P126-P177-601502
     RDKit          3D

 21 23  0  0  0  0  0  0  0  0999 V2000
    9.0751    9.0321   23.0876 C   0  0  0  0  0  0  0  0  0  0  0  0
    9.0461   10.3697   23.6308 N   0  0  0  0  0  0  0  0  0  0  0  0
    9.8848   11.2862   23.1372 N   0  0  0  0  0  0  0  0  0  0  0  0
    9.6807   12.3872   23.8810 C   0  0  0  0  0  0  0  0  0  0  0  0
   10.4778   13.6092   23.6433 C   0  0  0  0  0  0  0  0  0  0  0  0
   10.5068   14.4835   24.4139 O   0  0  0  0  0  0  0  0  0  0  0  0
   11.1344   13.4775   22.2627 N   0  0  0  0  0  0  0  0  0  0  0  0
   11.8825   14.4202   21.4988 C   0  0  0  0  0  0  0  0  0  0  0  0
   10.9537   15.1876   20.6528 C   0  0  0  0  0  0  0  0  0  0  0  0
   10.7563   15.1239   19.2948 C   0  0  0  0  0  0  0  0  0  0  0  0
    9.8328   16.0625   18.9619 O   0  0  0  0  0  0  0  0  0  0  0  0
    9.5375   16.6790   20.1453 C   0  0  0  0  0  0  0  0  0  0  0  0
    8.5072   18.0335   20.2616 Cl  0  0  0  0  0  0  0  0  0  0  0  0
   10.1544   16.1664   21.1855 N   0  0  0  0  0  0  0  0  0  0  0  0
    8.6445   12.1707   24.8279 C   0  0  0  0  0  0  0  0  0  0  0  0
    8.0023   12.9445   25.8121 C   0  0  0  0  0  0  0  0  0  0  0  0
    6.9800   12.3585   26.5631 C   0  0  0  0  0  0  0  0  0  0  0  0
    6.1248   13.3707   27.9130 Br  0  0  0  0  0  0  0  0  0  0  0  0
    6.5888   11.0404   26.3484 C   0  0  0  0  0  0  0  0  0  0  0  0
    7.2159   10.2628   25.3732 C   0  0  0  0  0  0  0  0  0  0  0  0
    8.2412   10.8507   24.6298 C   0  0  0  0  0  0  0  0  0  0  0  0
  1  2  1  0
  2  3  1  0
  3  4  2  0
  4  5  1  0
  5  6  2  0
  5  7  1  0
  7  8  1  0
  8  9  1  0
  9 10  2  0
 10 11  1  0
 11 12  1  0
 12 13  1  0
 12 14  2  0
  4 15  1  0
 15 16  2  0
 16 17  1  0
 17 18  1  0
 17 19  2  0
 19 20  1  0
 20 21  2  0
 21  2  1  0
 14  9  1  0
 21 15  1  0
M  END
>  <energy_score>  (1424) 
-22.641131

>  <inchikey>  (1424) 
IVQHQCHSIJRSAI-UHFFFAOYSA-N

>  <smiles>  (1424) 
Cn1nc(C(=O)NCc2coc(Cl)n2)c2cc(Br)ccc21

>  <ref_pdb>  (1424) 
A0514a

>  <alias>  (1424) 
IVQHQCHSIJRSAI-UHFFFAOYSA-N-P177-P126-P177-601502

>  <HIPPO Pose ID>  (1424) 
502777

>  <name>  (1424) 
IVQHQCHSIJRSAI-UHFFFAOYSA-N-P177-P126-P177-601502

>  <HIPPO Compound ID>  (1424) 
299206

>  <ref_mols>  (1424) 
A3403a,A2290a

>  <distance_score>  (1424) 
0.632934

>  <inspiration_score>  (1424) 
None

$$$$
RTGZANOIQCQNDT-UHFFFAOYSA-N-P177-P126-P177-601502
     RDKit          3D

 21 23  0  0  0  0  0  0  0  0999 V2000
    8.5640   17.7190   20.4958 C   0  0  0  0  0  0  0  0  0  0  0  0
    9.5734   16.6641   20.3715 C   0  0  0  0  0  0  0  0  0  0  0  0
   10.2533   16.0921   21.3356 N   0  0  0  0  0  0  0  0  0  0  0  0
   11.0245   15.1657   20.6936 C   0  0  0  0  0  0  0  0  0  0  0  0
   11.9598   14.3302   21.4600 C   0  0  0  0  0  0  0  0  0  0  0  0
   11.1971   13.4061   22.2372 N   0  0  0  0  0  0  0  0  0  0  0  0
   10.5654   13.5554   23.6285 C   0  0  0  0  0  0  0  0  0  0  0  0
   10.6298   14.4287   24.3984 O   0  0  0  0  0  0  0  0  0  0  0  0
    9.7288   12.3594   23.8731 C   0  0  0  0  0  0  0  0  0  0  0  0
    9.8932   11.2491   23.1317 N   0  0  0  0  0  0  0  0  0  0  0  0
    9.0412   10.3579   23.6453 N   0  0  0  0  0  0  0  0  0  0  0  0
    9.0425    9.0137   23.1217 C   0  0  0  0  0  0  0  0  0  0  0  0
    8.2499   10.8665   24.6398 C   0  0  0  0  0  0  0  0  0  0  0  0
    7.2122   10.3090   25.3905 C   0  0  0  0  0  0  0  0  0  0  0  0
    6.6074   11.1110   26.3597 C   0  0  0  0  0  0  0  0  0  0  0  0
    7.0322   12.4212   26.5613 C   0  0  0  0  0  0  0  0  0  0  0  0
    6.2068   13.4667   27.9045 Br  0  0  0  0  0  0  0  0  0  0  0  0
    8.0671   12.9754   25.8029 C   0  0  0  0  0  0  0  0  0  0  0  0
    8.6875   12.1779   24.8239 C   0  0  0  0  0  0  0  0  0  0  0  0
   10.7622   15.2021   19.3443 C   0  0  0  0  0  0  0  0  0  0  0  0
    9.8159   16.1568   19.1269 O   0  0  0  0  0  0  0  0  0  0  0  0
  1  2  1  0
  2  3  2  0
  3  4  1  0
  4  5  1  0
  5  6  1  0
  6  7  1  0
  7  8  2  0
  7  9  1  0
  9 10  2  0
 10 11  1  0
 11 12  1  0
 11 13  1  0
 13 14  2  0
 14 15  1  0
 15 16  2  0
 16 17  1  0
 16 18  1  0
 18 19  2  0
  4 20  2  0
 20 21  1  0
 21  2  1  0
 19  9  1  0
 19 13  1  0
M  END
>  <energy_score>  (1425) 
-38.23417

>  <inchikey>  (1425) 
RTGZANOIQCQNDT-UHFFFAOYSA-N

>  <smiles>  (1425) 
Cc1nc(CNC(=O)c2nn(C)c3ccc(Br)cc23)co1

>  <ref_pdb>  (1425) 
A0514a

>  <alias>  (1425) 
RTGZANOIQCQNDT-UHFFFAOYSA-N-P177-P126-P177-601502

>  <HIPPO Pose ID>  (1425) 
502779

>  <name>  (1425) 
RTGZANOIQCQNDT-UHFFFAOYSA-N-P177-P126-P177-601502

>  <HIPPO Compound ID>  (1425) 
299207

>  <ref_mols>  (1425) 
A3403a,A2290a

>  <distance_score>  (1425) 
0.645521

>  <inspiration_score>  (1425) 
None

$$$$
WVOFLZAIPWZYLF-UHFFFAOYSA-N-P177-P126-P177-601502
     RDKit          3D

 21 23  0  0  0  0  0  0  0  0999 V2000
    9.0931    9.0385   23.0825 C   0  0  0  0  0  0  0  0  0  0  0  0
    9.0470   10.3739   23.6310 N   0  0  0  0  0  0  0  0  0  0  0  0
    9.8756   11.3016   23.1421 N   0  0  0  0  0  0  0  0  0  0  0  0
    9.6543   12.3988   23.8860 C   0  0  0  0  0  0  0  0  0  0  0  0
   10.4397   13.6282   23.6589 C   0  0  0  0  0  0  0  0  0  0  0  0
   10.5220   14.4624   24.4686 O   0  0  0  0  0  0  0  0  0  0  0  0
   11.0556   13.5384   22.2578 N   0  0  0  0  0  0  0  0  0  0  0  0
   11.8202   14.4871   21.5198 C   0  0  0  0  0  0  0  0  0  0  0  0
   10.9165   15.2228   20.6204 C   0  0  0  0  0  0  0  0  0  0  0  0
   10.7598   15.1009   19.2619 C   0  0  0  0  0  0  0  0  0  0  0  0
    9.8510   16.0250   18.8615 O   0  0  0  0  0  0  0  0  0  0  0  0
    9.5266   16.7019   20.0041 C   0  0  0  0  0  0  0  0  0  0  0  0
    8.3912   18.2277   19.9934 Br  0  0  0  0  0  0  0  0  0  0  0  0
   10.1075   16.2309   21.0856 N   0  0  0  0  0  0  0  0  0  0  0  0
    8.6205   12.1689   24.8306 C   0  0  0  0  0  0  0  0  0  0  0  0
    7.9693   12.9333   25.8145 C   0  0  0  0  0  0  0  0  0  0  0  0
    6.9574   12.3318   26.5593 C   0  0  0  0  0  0  0  0  0  0  0  0
    6.3432   13.0377   27.5181 F   0  0  0  0  0  0  0  0  0  0  0  0
    6.5813   11.0122   26.3491 C   0  0  0  0  0  0  0  0  0  0  0  0
    7.2165   10.2411   25.3748 C   0  0  0  0  0  0  0  0  0  0  0  0
    8.2338   10.8432   24.6301 C   0  0  0  0  0  0  0  0  0  0  0  0
  1  2  1  0
  2  3  1  0
  3  4  2  0
  4  5  1  0
  5  6  2  0
  5  7  1  0
  7  8  1  0
  8  9  1  0
  9 10  2  0
 10 11  1  0
 11 12  1  0
 12 13  1  0
 12 14  2  0
  4 15  1  0
 15 16  2  0
 16 17  1  0
 17 18  1  0
 17 19  2  0
 19 20  1  0
 20 21  2  0
 21  2  1  0
 14  9  1  0
 21 15  1  0
M  END
>  <energy_score>  (1426) 
-4.229733

>  <inchikey>  (1426) 
WVOFLZAIPWZYLF-UHFFFAOYSA-N

>  <smiles>  (1426) 
Cn1nc(C(=O)NCc2coc(Br)n2)c2cc(F)ccc21

>  <ref_pdb>  (1426) 
A0514a

>  <alias>  (1426) 
WVOFLZAIPWZYLF-UHFFFAOYSA-N-P177-P126-P177-601502

>  <HIPPO Pose ID>  (1426) 
502783

>  <name>  (1426) 
WVOFLZAIPWZYLF-UHFFFAOYSA-N-P177-P126-P177-601502

>  <HIPPO Compound ID>  (1426) 
299209

>  <ref_mols>  (1426) 
A3403a,A2290a

>  <distance_score>  (1426) 
0.711239

>  <inspiration_score>  (1426) 
None

$$$$
SAQQVGQADZPGPI-UHFFFAOYSA-N-P126-P126-P177-601502
     RDKit          3D

 22 24  0  0  0  0  0  0  0  0999 V2000
   13.3813   15.1798   21.5191 C   0  0  0  0  0  0  0  0  0  0  0  0
   12.3535   14.5919   22.4216 C   0  0  0  0  0  0  0  0  0  0  0  0
   11.3015   13.9825   21.5429 C   0  0  1  0  0  0  0  0  0  0  0  0
   10.5306   13.0934   22.3190 N   0  0  0  0  0  0  0  0  0  0  0  0
    9.9470   13.2497   23.7199 C   0  0  0  0  0  0  0  0  0  0  0  0
    9.9394   14.1654   24.4363 O   0  0  0  0  0  0  0  0  0  0  0  0
    9.4076   11.9527   24.0666 C   0  0  0  0  0  0  0  0  0  0  0  0
    9.8302   10.8731   23.3891 N   0  0  0  0  0  0  0  0  0  0  0  0
    9.0815    9.8775   23.8608 N   0  0  0  0  0  0  0  0  0  0  0  0
    9.2148    8.5996   23.2112 C   0  0  0  0  0  0  0  0  0  0  0  0
    8.2147   10.2776   24.8504 C   0  0  0  0  0  0  0  0  0  0  0  0
    7.2377    9.6114   25.5848 C   0  0  0  0  0  0  0  0  0  0  0  0
    6.4863   10.3375   26.5137 C   0  0  0  0  0  0  0  0  0  0  0  0
    6.7011   11.6996   26.6911 C   0  0  0  0  0  0  0  0  0  0  0  0
    5.6632   12.6481   27.9548 Br  0  0  0  0  0  0  0  0  0  0  0  0
    7.6653   12.3750   25.9467 C   0  0  0  0  0  0  0  0  0  0  0  0
    8.4274   11.6420   25.0191 C   0  0  0  0  0  0  0  0  0  0  0  0
   10.4668   14.9347   20.7769 C   0  0  0  0  0  0  0  0  0  0  0  0
   10.4969   15.2040   19.4282 C   0  0  0  0  0  0  0  0  0  0  0  0
    9.7065   16.2859   19.1891 O   0  0  0  0  0  0  0  0  0  0  0  0
    9.2227   16.6063   20.4163 C   0  0  0  0  0  0  0  0  0  0  0  0
    9.5902   15.7928   21.3774 N   0  0  0  0  0  0  0  0  0  0  0  0
  1  2  1  0
  3  2  1  1
  3  4  1  0
  4  5  1  0
  5  6  2  0
  5  7  1  0
  7  8  2  0
  8  9  1  0
  9 10  1  0
  9 11  1  0
 11 12  2  0
 12 13  1  0
 13 14  2  0
 14 15  1  0
 14 16  1  0
 16 17  2  0
  3 18  1  0
 18 19  2  0
 19 20  1  0
 20 21  1  0
 21 22  2  0
 17  7  1  0
 22 18  1  0
 17 11  1  0
M  END
>  <energy_score>  (1427) 
-5.466794

>  <inchikey>  (1427) 
SAQQVGQADZPGPI-UHFFFAOYSA-N

>  <smiles>  (1427) 
CCC(NC(=O)c1nn(C)c2ccc(Br)cc12)c1cocn1

>  <ref_pdb>  (1427) 
A0514a

>  <alias>  (1427) 
SAQQVGQADZPGPI-UHFFFAOYSA-N-P126-P126-P177-601502

>  <HIPPO Pose ID>  (1427) 
502788

>  <name>  (1427) 
SAQQVGQADZPGPI-UHFFFAOYSA-N-P126-P126-P177-601502

>  <HIPPO Compound ID>  (1427) 
299212

>  <ref_mols>  (1427) 
A3403a,A2290a

>  <distance_score>  (1427) 
0.883052

>  <inspiration_score>  (1427) 
None

$$$$
FCFCTZBQIXCJMO-UHFFFAOYSA-N-P126-P126-P177-601502
     RDKit          3D

 22 25  0  0  0  0  0  0  0  0999 V2000
    9.3879    8.6621   23.1056 C   0  0  0  0  0  0  0  0  0  0  0  0
    9.2605    9.9570   23.7269 N   0  0  0  0  0  0  0  0  0  0  0  0
    9.9983   10.9621   23.2356 N   0  0  0  0  0  0  0  0  0  0  0  0
    9.6269   12.0287   23.9620 C   0  0  0  0  0  0  0  0  0  0  0  0
   10.1959   13.3383   23.6787 C   0  0  0  0  0  0  0  0  0  0  0  0
   10.2629   14.1796   24.4817 O   0  0  0  0  0  0  0  0  0  0  0  0
   10.5915   13.3434   22.1976 N   0  0  0  0  0  0  0  0  0  0  0  0
   11.2251   14.3266   21.4285 C   0  0  0  0  0  0  0  0  0  0  0  0
   10.2927   15.2806   20.6373 C   0  0  0  0  0  0  0  0  0  0  0  0
   10.3019   15.4733   19.2829 C   0  0  0  0  0  0  0  0  0  0  0  0
    9.5452   16.5719   19.0095 O   0  0  0  0  0  0  0  0  0  0  0  0
    9.0876   16.9535   20.2332 C   0  0  0  0  0  0  0  0  0  0  0  0
    9.4550   16.1743   21.2216 N   0  0  0  0  0  0  0  0  0  0  0  0
   12.5262   14.8883   21.9188 C   0  0  0  0  0  0  0  0  0  0  0  0
   12.5235   13.9420   20.7755 C   0  0  0  0  0  0  0  0  0  0  0  0
    8.6271   11.7097   24.9049 C   0  0  0  0  0  0  0  0  0  0  0  0
    7.8645   12.4318   25.8424 C   0  0  0  0  0  0  0  0  0  0  0  0
    6.8962   11.7506   26.5804 C   0  0  0  0  0  0  0  0  0  0  0  0
    5.8634   12.6916   27.8543 Br  0  0  0  0  0  0  0  0  0  0  0  0
    6.6814   10.3886   26.3973 C   0  0  0  0  0  0  0  0  0  0  0  0
    7.4337    9.6678   25.4652 C   0  0  0  0  0  0  0  0  0  0  0  0
    8.4011   10.3491   24.7253 C   0  0  0  0  0  0  0  0  0  0  0  0
  1  2  1  0
  2  3  1  0
  3  4  2  0
  4  5  1  0
  5  6  2  0
  5  7  1  0
  7  8  1  0
  8  9  1  0
  9 10  2  0
 10 11  1  0
 11 12  1  0
 12 13  2  0
  8 14  1  0
 14 15  1  0
  4 16  1  0
 16 17  2  0
 17 18  1  0
 18 19  1  0
 18 20  2  0
 20 21  1  0
 21 22  2  0
 22  2  1  0
 15  8  1  0
 22 16  1  0
 13  9  1  0
M  END
>  <energy_score>  (1428) 
-18.208901

>  <inchikey>  (1428) 
FCFCTZBQIXCJMO-UHFFFAOYSA-N

>  <smiles>  (1428) 
Cn1nc(C(=O)NC2(c3cocn3)CC2)c2cc(Br)ccc21

>  <ref_pdb>  (1428) 
A0514a

>  <alias>  (1428) 
FCFCTZBQIXCJMO-UHFFFAOYSA-N-P126-P126-P177-601502

>  <HIPPO Pose ID>  (1428) 
502792

>  <name>  (1428) 
FCFCTZBQIXCJMO-UHFFFAOYSA-N-P126-P126-P177-601502

>  <HIPPO Compound ID>  (1428) 
299214

>  <ref_mols>  (1428) 
A3403a,A2290a

>  <distance_score>  (1428) 
0.801461

>  <inspiration_score>  (1428) 
None

$$$$
DFRKLXSOLXDZQW-UHFFFAOYSA-N-P177-P126-P177-601502
     RDKit          3D

 22 24  0  0  0  0  0  0  0  0999 V2000
   11.8061   14.4587   18.5588 C   0  0  0  0  0  0  0  0  0  0  0  0
   10.7588   15.5088   18.6183 C   0  0  0  0  0  0  0  0  0  0  0  0
   10.2542   15.7976   19.9473 C   0  0  0  0  0  0  0  0  0  0  0  0
    9.2320   16.6954   19.9687 O   0  0  0  0  0  0  0  0  0  0  0  0
    8.8555   16.7170   21.2649 C   0  0  0  0  0  0  0  0  0  0  0  0
    9.5361   15.9143   22.0465 N   0  0  0  0  0  0  0  0  0  0  0  0
   10.5195   15.4024   21.2331 C   0  0  0  0  0  0  0  0  0  0  0  0
   11.5920   14.5496   21.7919 C   0  0  0  0  0  0  0  0  0  0  0  0
   10.9444   13.5231   22.5205 N   0  0  0  0  0  0  0  0  0  0  0  0
   10.4471   13.4923   23.9640 C   0  0  0  0  0  0  0  0  0  0  0  0
   10.5557   14.2768   24.8171 O   0  0  0  0  0  0  0  0  0  0  0  0
    9.6579   12.2693   24.1151 C   0  0  0  0  0  0  0  0  0  0  0  0
    9.8858   11.2071   23.3251 N   0  0  0  0  0  0  0  0  0  0  0  0
    9.0150   10.2825   23.7394 N   0  0  0  0  0  0  0  0  0  0  0  0
    9.0470    8.9778   23.1230 C   0  0  0  0  0  0  0  0  0  0  0  0
    8.1771   10.7324   24.7282 C   0  0  0  0  0  0  0  0  0  0  0  0
    7.1244   10.1345   25.4169 C   0  0  0  0  0  0  0  0  0  0  0  0
    6.4625   10.8843   26.3919 C   0  0  0  0  0  0  0  0  0  0  0  0
    6.8430   12.1949   26.6581 C   0  0  0  0  0  0  0  0  0  0  0  0
    5.9343   13.1711   27.9985 Br  0  0  0  0  0  0  0  0  0  0  0  0
    7.8975   12.7929   25.9687 C   0  0  0  0  0  0  0  0  0  0  0  0
    8.5781   12.0378   24.9963 C   0  0  0  0  0  0  0  0  0  0  0  0
  1  2  1  0
  2  3  1  0
  3  4  1  0
  4  5  1  0
  5  6  2  0
  6  7  1  0
  7  8  1  0
  8  9  1  0
  9 10  1  0
 10 11  2  0
 10 12  1  0
 12 13  2  0
 13 14  1  0
 14 15  1  0
 14 16  1  0
 16 17  2  0
 17 18  1  0
 18 19  2  0
 19 20  1  0
 19 21  1  0
 21 22  2  0
  7  3  2  0
 22 12  1  0
 22 16  1  0
M  END
>  <energy_score>  (1429) 
-33.892453

>  <inchikey>  (1429) 
DFRKLXSOLXDZQW-UHFFFAOYSA-N

>  <smiles>  (1429) 
CCc1ocnc1CNC(=O)c1nn(C)c2ccc(Br)cc12

>  <ref_pdb>  (1429) 
A0514a

>  <alias>  (1429) 
DFRKLXSOLXDZQW-UHFFFAOYSA-N-P177-P126-P177-601502

>  <HIPPO Pose ID>  (1429) 
502799

>  <name>  (1429) 
DFRKLXSOLXDZQW-UHFFFAOYSA-N-P177-P126-P177-601502

>  <HIPPO Compound ID>  (1429) 
299217

>  <ref_mols>  (1429) 
A3403a,A2290a

>  <distance_score>  (1429) 
0.945814

>  <inspiration_score>  (1429) 
None

$$$$
STEKFWRYMRBVFN-UHFFFAOYSA-N-P177-P126-P177-601502
     RDKit          3D

 22 24  0  0  0  0  0  0  0  0999 V2000
    8.0545   18.6789   19.4678 C   0  0  0  0  0  0  0  0  0  0  0  0
    8.5189   17.8444   20.6436 C   0  0  0  0  0  0  0  0  0  0  0  0
    9.5426   16.8063   20.3991 C   0  0  0  0  0  0  0  0  0  0  0  0
   10.2574   16.2059   21.3232 N   0  0  0  0  0  0  0  0  0  0  0  0
   10.9686   15.2560   20.6492 C   0  0  0  0  0  0  0  0  0  0  0  0
   11.9191   14.3990   21.3791 C   0  0  0  0  0  0  0  0  0  0  0  0
   11.1746   13.4619   22.1634 N   0  0  0  0  0  0  0  0  0  0  0  0
   10.5354   13.6078   23.5537 C   0  0  0  0  0  0  0  0  0  0  0  0
   10.5779   14.4888   24.3170 O   0  0  0  0  0  0  0  0  0  0  0  0
    9.7253   12.3950   23.8147 C   0  0  0  0  0  0  0  0  0  0  0  0
    9.9072   11.2834   23.0825 N   0  0  0  0  0  0  0  0  0  0  0  0
    9.0764   10.3759   23.6008 N   0  0  0  0  0  0  0  0  0  0  0  0
    9.1003    9.0304   23.0767 C   0  0  0  0  0  0  0  0  0  0  0  0
    8.2792   10.8739   24.5978 C   0  0  0  0  0  0  0  0  0  0  0  0
    7.2573   10.2979   25.3589 C   0  0  0  0  0  0  0  0  0  0  0  0
    6.6439   11.0947   26.3261 C   0  0  0  0  0  0  0  0  0  0  0  0
    7.0459   12.4108   26.5134 C   0  0  0  0  0  0  0  0  0  0  0  0
    6.4514   13.1417   27.4660 F   0  0  0  0  0  0  0  0  0  0  0  0
    8.0627   12.9846   25.7520 C   0  0  0  0  0  0  0  0  0  0  0  0
    8.6931   12.1964   24.7731 C   0  0  0  0  0  0  0  0  0  0  0  0
   10.6427   15.3095   19.3145 C   0  0  0  0  0  0  0  0  0  0  0  0
    9.7102   16.2926   19.1439 O   0  0  0  0  0  0  0  0  0  0  0  0
  1  2  1  0
  2  3  1  0
  3  4  2  0
  4  5  1  0
  5  6  1  0
  6  7  1  0
  7  8  1  0
  8  9  2  0
  8 10  1  0
 10 11  2  0
 11 12  1  0
 12 13  1  0
 12 14  1  0
 14 15  2  0
 15 16  1  0
 16 17  2  0
 17 18  1  0
 17 19  1  0
 19 20  2  0
  5 21  2  0
 21 22  1  0
 22  3  1  0
 20 10  1  0
 20 14  1  0
M  END
>  <energy_score>  (1430) 
-33.654322

>  <inchikey>  (1430) 
STEKFWRYMRBVFN-UHFFFAOYSA-N

>  <smiles>  (1430) 
CCc1nc(CNC(=O)c2nn(C)c3ccc(F)cc23)co1

>  <ref_pdb>  (1430) 
A0514a

>  <alias>  (1430) 
STEKFWRYMRBVFN-UHFFFAOYSA-N-P177-P126-P177-601502

>  <HIPPO Pose ID>  (1430) 
502809

>  <name>  (1430) 
STEKFWRYMRBVFN-UHFFFAOYSA-N-P177-P126-P177-601502

>  <HIPPO Compound ID>  (1430) 
299222

>  <ref_mols>  (1430) 
A3403a,A2290a

>  <distance_score>  (1430) 
0.631569

>  <inspiration_score>  (1430) 
None

$$$$
PJXVBEKAFFEAQM-UHFFFAOYSA-N-P177-P126-P177-601502
     RDKit          3D

 23 25  0  0  0  0  0  0  0  0999 V2000
   10.4691   14.5697   24.4155 O   0  0  0  0  0  0  0  0  0  0  0  0
   10.4744   13.6966   23.6431 C   0  0  0  0  0  0  0  0  0  0  0  0
   11.1420   13.5909   22.2644 N   0  0  0  0  0  0  0  0  0  0  0  0
   11.8595   14.5605   21.5063 C   0  0  0  0  0  0  0  0  0  0  0  0
   10.9209   15.2588   20.6123 C   0  0  0  0  0  0  0  0  0  0  0  0
   10.7420   15.1082   19.2595 C   0  0  0  0  0  0  0  0  0  0  0  0
    9.8219   16.0195   18.8556 O   0  0  0  0  0  0  0  0  0  0  0  0
    9.5120   16.7175   19.9899 C   0  0  0  0  0  0  0  0  0  0  0  0
    8.3772   18.2452   19.9647 Br  0  0  0  0  0  0  0  0  0  0  0  0
   10.1109   16.2687   21.0710 N   0  0  0  0  0  0  0  0  0  0  0  0
    9.7272   12.4436   23.8763 C   0  0  0  0  0  0  0  0  0  0  0  0
    9.9871   11.3597   23.1299 N   0  0  0  0  0  0  0  0  0  0  0  0
    9.1656   10.3920   23.5928 N   0  0  0  0  0  0  0  0  0  0  0  0
    9.1743    9.0482   22.9965 C   0  0  0  0  0  0  0  0  0  0  0  0
    7.9111    8.6033   22.8406 F   0  0  0  0  0  0  0  0  0  0  0  0
    9.8149    8.1457   23.7733 F   0  0  0  0  0  0  0  0  0  0  0  0
    9.7570    9.0139   21.7758 F   0  0  0  0  0  0  0  0  0  0  0  0
    8.3322   10.8495   24.5928 C   0  0  0  0  0  0  0  0  0  0  0  0
    7.3057   10.2337   25.3149 C   0  0  0  0  0  0  0  0  0  0  0  0
    6.6318   10.9923   26.2746 C   0  0  0  0  0  0  0  0  0  0  0  0
    6.9722   12.3214   26.5052 C   0  0  0  0  0  0  0  0  0  0  0  0
    7.9998   12.9292   25.7778 C   0  0  0  0  0  0  0  0  0  0  0  0
    8.6893   12.1811   24.8059 C   0  0  0  0  0  0  0  0  0  0  0  0
  1  2  2  0
  2  3  1  0
  3  4  1  0
  4  5  1  0
  5  6  2  0
  6  7  1  0
  7  8  1  0
  8  9  1  0
  8 10  2  0
  2 11  1  0
 11 12  2  0
 12 13  1  0
 13 14  1  0
 14 15  1  0
 14 16  1  0
 14 17  1  0
 13 18  1  0
 18 19  2  0
 19 20  1  0
 20 21  2  0
 21 22  1  0
 22 23  2  0
 10  5  1  0
 23 11  1  0
 23 18  1  0
M  END
>  <energy_score>  (1431) 
-23.88971

>  <inchikey>  (1431) 
PJXVBEKAFFEAQM-UHFFFAOYSA-N

>  <smiles>  (1431) 
O=C(NCc1coc(Br)n1)c1nn(C(F)(F)F)c2ccccc12

>  <ref_pdb>  (1431) 
A0514a

>  <alias>  (1431) 
PJXVBEKAFFEAQM-UHFFFAOYSA-N-P177-P126-P177-601502

>  <HIPPO Pose ID>  (1431) 
502817

>  <name>  (1431) 
PJXVBEKAFFEAQM-UHFFFAOYSA-N-P177-P126-P177-601502

>  <HIPPO Compound ID>  (1431) 
299226

>  <ref_mols>  (1431) 
A3403a,A2290a

>  <distance_score>  (1431) 
0.635151

>  <inspiration_score>  (1431) 
None

$$$$
QNKPONYLJDZPCC-UHFFFAOYSA-N-P177-P126-P177-601502
     RDKit          3D

 23 25  0  0  0  0  0  0  0  0999 V2000
    8.5641   17.7149   20.5047 C   0  0  0  0  0  0  0  0  0  0  0  0
    9.5745   16.6626   20.3667 C   0  0  0  0  0  0  0  0  0  0  0  0
   10.2610   16.0844   21.3226 N   0  0  0  0  0  0  0  0  0  0  0  0
   11.0302   15.1642   20.6682 C   0  0  0  0  0  0  0  0  0  0  0  0
   11.9695   14.3222   21.4224 C   0  0  0  0  0  0  0  0  0  0  0  0
   11.2063   13.4089   22.2131 N   0  0  0  0  0  0  0  0  0  0  0  0
   10.5752   13.5779   23.6009 C   0  0  0  0  0  0  0  0  0  0  0  0
   10.6398   14.4617   24.3582 O   0  0  0  0  0  0  0  0  0  0  0  0
    9.7360   12.3875   23.8718 C   0  0  0  0  0  0  0  0  0  0  0  0
    9.9157   11.2413   23.1897 N   0  0  0  0  0  0  0  0  0  0  0  0
    9.0875   10.3485   23.7816 N   0  0  0  0  0  0  0  0  0  0  0  0
    9.2180    8.9070   23.5399 C   0  0  0  0  0  0  0  0  0  0  0  0
    8.6798    8.2117   24.5681 F   0  0  0  0  0  0  0  0  0  0  0  0
   10.5005    8.4929   23.4242 F   0  0  0  0  0  0  0  0  0  0  0  0
    8.5624    8.4990   22.4337 F   0  0  0  0  0  0  0  0  0  0  0  0
    8.2383   10.9393   24.6947 C   0  0  0  0  0  0  0  0  0  0  0  0
    7.1708   10.4397   25.4520 C   0  0  0  0  0  0  0  0  0  0  0  0
    6.5474   11.3031   26.3532 C   0  0  0  0  0  0  0  0  0  0  0  0
    6.9717   12.6206   26.4897 C   0  0  0  0  0  0  0  0  0  0  0  0
    8.0325   13.1122   25.7224 C   0  0  0  0  0  0  0  0  0  0  0  0
    8.6744   12.2578   24.8075 C   0  0  0  0  0  0  0  0  0  0  0  0
   10.7595   15.2103   19.3211 C   0  0  0  0  0  0  0  0  0  0  0  0
    9.8101   16.1648   19.1171 O   0  0  0  0  0  0  0  0  0  0  0  0
  1  2  1  0
  2  3  2  0
  3  4  1  0
  4  5  1  0
  5  6  1  0
  6  7  1  0
  7  8  2  0
  7  9  1  0
  9 10  2  0
 10 11  1  0
 11 12  1  0
 12 13  1  0
 12 14  1  0
 12 15  1  0
 11 16  1  0
 16 17  2  0
 17 18  1  0
 18 19  2  0
 19 20  1  0
 20 21  2  0
  4 22  2  0
 22 23  1  0
 23  2  1  0
 21  9  1  0
 21 16  1  0
M  END
>  <energy_score>  (1432) 
-26.018641

>  <inchikey>  (1432) 
QNKPONYLJDZPCC-UHFFFAOYSA-N

>  <smiles>  (1432) 
Cc1nc(CNC(=O)c2nn(C(F)(F)F)c3ccccc23)co1

>  <ref_pdb>  (1432) 
A0514a

>  <alias>  (1432) 
QNKPONYLJDZPCC-UHFFFAOYSA-N-P177-P126-P177-601502

>  <HIPPO Pose ID>  (1432) 
502821

>  <name>  (1432) 
QNKPONYLJDZPCC-UHFFFAOYSA-N-P177-P126-P177-601502

>  <HIPPO Compound ID>  (1432) 
299228

>  <ref_mols>  (1432) 
A3403a,A2290a

>  <distance_score>  (1432) 
0.694287

>  <inspiration_score>  (1432) 
None

$$$$
VJPOHPWREWKKHO-UHFFFAOYSA-N-P126-P126-P177-601502
     RDKit          3D

 23 25  0  0  0  0  0  0  0  0999 V2000
   12.8325   14.9336   22.0900 C   0  0  0  0  0  0  0  0  0  0  0  0
   11.8564   14.1038   21.3129 C   0  0  1  0  0  0  0  0  0  0  0  0
   11.2079   13.1441   22.1455 N   0  0  0  0  0  0  0  0  0  0  0  0
   10.6622   13.2699   23.5758 C   0  0  0  0  0  0  0  0  0  0  0  0
   10.7226   14.1540   24.3330 O   0  0  0  0  0  0  0  0  0  0  0  0
    9.9864   12.0106   23.8816 C   0  0  0  0  0  0  0  0  0  0  0  0
   10.3544   10.9137   23.2099 N   0  0  0  0  0  0  0  0  0  0  0  0
    9.5306    9.9391   23.6418 N   0  0  0  0  0  0  0  0  0  0  0  0
    9.5505    8.6498   22.9447 C   0  0  0  0  0  0  0  0  0  0  0  0
    8.3159    8.1175   22.8903 F   0  0  0  0  0  0  0  0  0  0  0  0
    9.9873    8.7884   21.6691 F   0  0  0  0  0  0  0  0  0  0  0  0
   10.3645    7.7358   23.5174 F   0  0  0  0  0  0  0  0  0  0  0  0
    8.6536   10.3831   24.6130 C   0  0  0  0  0  0  0  0  0  0  0  0
    7.6342    9.7488   25.3324 C   0  0  0  0  0  0  0  0  0  0  0  0
    6.8712   10.5173   26.2165 C   0  0  0  0  0  0  0  0  0  0  0  0
    7.1153   11.8780   26.3768 C   0  0  0  0  0  0  0  0  0  0  0  0
    8.1390   12.5050   25.6605 C   0  0  0  0  0  0  0  0  0  0  0  0
    8.9244   11.7430   24.7750 C   0  0  0  0  0  0  0  0  0  0  0  0
   10.8226   14.9261   20.6441 C   0  0  0  0  0  0  0  0  0  0  0  0
   10.6506   15.1549   19.3026 C   0  0  0  0  0  0  0  0  0  0  0  0
    9.7109   16.1271   19.1519 O   0  0  0  0  0  0  0  0  0  0  0  0
    9.3466   16.4252   20.4256 C   0  0  0  0  0  0  0  0  0  0  0  0
    9.9274   15.6941   21.3472 N   0  0  0  0  0  0  0  0  0  0  0  0
  2  1  1  1
  2  3  1  0
  3  4  1  0
  4  5  2  0
  4  6  1  0
  6  7  2  0
  7  8  1  0
  8  9  1  0
  9 10  1  0
  9 11  1  0
  9 12  1  0
  8 13  1  0
 13 14  2  0
 14 15  1  0
 15 16  2  0
 16 17  1  0
 17 18  2  0
  2 19  1  0
 19 20  2  0
 20 21  1  0
 21 22  1  0
 22 23  2  0
 18  6  1  0
 23 19  1  0
 18 13  1  0
M  END
>  <energy_score>  (1433) 
-26.666829

>  <inchikey>  (1433) 
VJPOHPWREWKKHO-UHFFFAOYSA-N

>  <smiles>  (1433) 
CC(NC(=O)c1nn(C(F)(F)F)c2ccccc12)c1cocn1

>  <ref_pdb>  (1433) 
A0514a

>  <alias>  (1433) 
VJPOHPWREWKKHO-UHFFFAOYSA-N-P126-P126-P177-601502

>  <HIPPO Pose ID>  (1433) 
502824

>  <name>  (1433) 
VJPOHPWREWKKHO-UHFFFAOYSA-N-P126-P126-P177-601502

>  <HIPPO Compound ID>  (1433) 
299230

>  <ref_mols>  (1433) 
A3403a,A2290a

>  <distance_score>  (1433) 
0.714091

>  <inspiration_score>  (1433) 
None

$$$$
YTIAAHHQIQUTJQ-UHFFFAOYSA-N-P177-P126-P177-601502
     RDKit          3D

 23 25  0  0  0  0  0  0  0  0999 V2000
   10.5893   14.5178   24.4558 O   0  0  0  0  0  0  0  0  0  0  0  0
   10.5040   13.6659   23.6650 C   0  0  0  0  0  0  0  0  0  0  0  0
   11.0228   13.5911   22.2234 N   0  0  0  0  0  0  0  0  0  0  0  0
   11.8314   14.4997   21.4821 C   0  0  0  0  0  0  0  0  0  0  0  0
   10.9303   15.2666   20.6075 C   0  0  0  0  0  0  0  0  0  0  0  0
   10.7350   15.1663   19.2521 C   0  0  0  0  0  0  0  0  0  0  0  0
    9.8083   16.0927   18.8953 O   0  0  0  0  0  0  0  0  0  0  0  0
    9.5109   16.7424   20.0605 C   0  0  0  0  0  0  0  0  0  0  0  0
    8.4649   18.0911   20.1384 Cl  0  0  0  0  0  0  0  0  0  0  0  0
   10.1300   16.2608   21.1139 N   0  0  0  0  0  0  0  0  0  0  0  0
    9.7522   12.4243   23.9228 C   0  0  0  0  0  0  0  0  0  0  0  0
   10.0030   11.3306   23.1877 N   0  0  0  0  0  0  0  0  0  0  0  0
    9.1625   10.3829   23.6502 N   0  0  0  0  0  0  0  0  0  0  0  0
    9.1247    9.0481   23.0406 C   0  0  0  0  0  0  0  0  0  0  0  0
    7.8409    8.6658   22.8784 F   0  0  0  0  0  0  0  0  0  0  0  0
    9.7125    8.1061   23.8147 F   0  0  0  0  0  0  0  0  0  0  0  0
    9.7141    8.9949   21.8247 F   0  0  0  0  0  0  0  0  0  0  0  0
    8.3327   10.8573   24.6457 C   0  0  0  0  0  0  0  0  0  0  0  0
    7.2922   10.2617   25.3657 C   0  0  0  0  0  0  0  0  0  0  0  0
    6.6258   11.0369   26.3169 C   0  0  0  0  0  0  0  0  0  0  0  0
    6.9841   12.3631   26.5380 C   0  0  0  0  0  0  0  0  0  0  0  0
    8.0241   12.9509   25.8116 C   0  0  0  0  0  0  0  0  0  0  0  0
    8.7096   12.1844   24.8521 C   0  0  0  0  0  0  0  0  0  0  0  0
  1  2  2  0
  2  3  1  0
  3  4  1  0
  4  5  1  0
  5  6  2  0
  6  7  1  0
  7  8  1  0
  8  9  1  0
  8 10  2  0
  2 11  1  0
 11 12  2  0
 12 13  1  0
 13 14  1  0
 14 15  1  0
 14 16  1  0
 14 17  1  0
 13 18  1  0
 18 19  2  0
 19 20  1  0
 20 21  2  0
 21 22  1  0
 22 23  2  0
 10  5  1  0
 23 11  1  0
 23 18  1  0
M  END
>  <energy_score>  (1434) 
-21.178598

>  <inchikey>  (1434) 
YTIAAHHQIQUTJQ-UHFFFAOYSA-N

>  <smiles>  (1434) 
O=C(NCc1coc(Cl)n1)c1nn(C(F)(F)F)c2ccccc12

>  <ref_pdb>  (1434) 
A0514a

>  <alias>  (1434) 
YTIAAHHQIQUTJQ-UHFFFAOYSA-N-P177-P126-P177-601502

>  <HIPPO Pose ID>  (1434) 
502827

>  <name>  (1434) 
YTIAAHHQIQUTJQ-UHFFFAOYSA-N-P177-P126-P177-601502

>  <HIPPO Compound ID>  (1434) 
299231

>  <ref_mols>  (1434) 
A3403a,A2290a

>  <distance_score>  (1434) 
0.605102

>  <inspiration_score>  (1434) 
None

$$$$
SKQFZQIUADLNSF-UHFFFAOYSA-N-P177-P126-P177-601502
     RDKit          3D

 23 25  0  0  0  0  0  0  0  0999 V2000
    9.1022    9.0263   23.0798 C   0  0  0  0  0  0  0  0  0  0  0  0
    9.0496   10.3571   23.6388 N   0  0  0  0  0  0  0  0  0  0  0  0
    9.8788   11.2920   23.1641 N   0  0  0  0  0  0  0  0  0  0  0  0
    9.6346   12.3858   23.9049 C   0  0  0  0  0  0  0  0  0  0  0  0
   10.3889   13.6304   23.6713 C   0  0  0  0  0  0  0  0  0  0  0  0
   10.4577   14.4683   24.4778 O   0  0  0  0  0  0  0  0  0  0  0  0
   10.9355   13.5807   22.2413 N   0  0  0  0  0  0  0  0  0  0  0  0
   11.7580   14.5024   21.5317 C   0  0  0  0  0  0  0  0  0  0  0  0
   10.8922   15.2564   20.6098 C   0  0  0  0  0  0  0  0  0  0  0  0
   10.7483   15.1244   19.2512 C   0  0  0  0  0  0  0  0  0  0  0  0
    9.8466   16.0487   18.8351 O   0  0  0  0  0  0  0  0  0  0  0  0
    9.5139   16.7382   19.9684 C   0  0  0  0  0  0  0  0  0  0  0  0
    8.3694   18.2603   19.9348 Br  0  0  0  0  0  0  0  0  0  0  0  0
   10.0873   16.2769   21.0577 N   0  0  0  0  0  0  0  0  0  0  0  0
    8.5937   12.1458   24.8390 C   0  0  0  0  0  0  0  0  0  0  0  0
    7.9198   12.9087   25.8114 C   0  0  0  0  0  0  0  0  0  0  0  0
    6.8872   12.2946   26.5371 C   0  0  0  0  0  0  0  0  0  0  0  0
    6.1907   13.0562   27.5771 N   0  0  0  0  0  0  0  0  0  0  0  0
    6.7621   14.0562   28.0340 O   0  0  0  0  0  0  0  0  0  0  0  0
    5.0950   12.6274   27.9680 O   0  0  0  0  0  0  0  0  0  0  0  0
    6.5284   10.9623   26.3147 C   0  0  0  0  0  0  0  0  0  0  0  0
    7.1975   10.2051   25.3525 C   0  0  0  0  0  0  0  0  0  0  0  0
    8.2216   10.8188   24.6297 C   0  0  0  0  0  0  0  0  0  0  0  0
  1  2  1  0
  2  3  1  0
  3  4  2  0
  4  5  1  0
  5  6  2  0
  5  7  1  0
  7  8  1  0
  8  9  1  0
  9 10  2  0
 10 11  1  0
 11 12  1  0
 12 13  1  0
 12 14  2  0
  4 15  1  0
 15 16  2  0
 16 17  1  0
 17 18  1  0
 18 19  2  0
 18 20  1  0
 17 21  2  0
 21 22  1  0
 22 23  2  0
 23  2  1  0
 14  9  1  0
 23 15  1  0
M  CHG  2  18   1  20  -1
M  END
>  <energy_score>  (1435) 
-15.27438

>  <inchikey>  (1435) 
SKQFZQIUADLNSF-UHFFFAOYSA-N

>  <smiles>  (1435) 
Cn1nc(C(=O)NCc2coc(Br)n2)c2cc([N+](=O)[O-])ccc21

>  <ref_pdb>  (1435) 
A0514a

>  <alias>  (1435) 
SKQFZQIUADLNSF-UHFFFAOYSA-N-P177-P126-P177-601502

>  <HIPPO Pose ID>  (1435) 
502829

>  <name>  (1435) 
SKQFZQIUADLNSF-UHFFFAOYSA-N-P177-P126-P177-601502

>  <HIPPO Compound ID>  (1435) 
299232

>  <ref_mols>  (1435) 
A3403a,A2290a

>  <distance_score>  (1435) 
0.632512

>  <inspiration_score>  (1435) 
None

$$$$
RPYCCNFCVWTOGH-UHFFFAOYSA-N-P177-P126-P177-601502
     RDKit          3D

 23 25  0  0  0  0  0  0  0  0999 V2000
   11.4312   14.7995   18.4258 C   0  0  0  0  0  0  0  0  0  0  0  0
   10.6888   15.3928   19.5364 C   0  0  0  0  0  0  0  0  0  0  0  0
    9.7069   16.2956   19.2491 O   0  0  0  0  0  0  0  0  0  0  0  0
    9.2671   16.6939   20.4760 C   0  0  0  0  0  0  0  0  0  0  0  0
    9.8467   16.0938   21.4873 N   0  0  0  0  0  0  0  0  0  0  0  0
   10.7929   15.2924   20.9011 C   0  0  0  0  0  0  0  0  0  0  0  0
   11.7553   14.5071   21.6937 C   0  0  0  0  0  0  0  0  0  0  0  0
   11.0251   13.5260   22.4136 N   0  0  0  0  0  0  0  0  0  0  0  0
   10.4253   13.5661   23.8198 C   0  0  0  0  0  0  0  0  0  0  0  0
   10.4969   14.3809   24.6486 O   0  0  0  0  0  0  0  0  0  0  0  0
    9.6401   12.3370   23.9996 C   0  0  0  0  0  0  0  0  0  0  0  0
    9.8847   11.2567   23.2397 N   0  0  0  0  0  0  0  0  0  0  0  0
    9.0331   10.3252   23.6772 N   0  0  0  0  0  0  0  0  0  0  0  0
    9.0823    9.0056   23.0921 C   0  0  0  0  0  0  0  0  0  0  0  0
    8.1943   10.7799   24.6631 C   0  0  0  0  0  0  0  0  0  0  0  0
    7.1567   10.1661   25.3631 C   0  0  0  0  0  0  0  0  0  0  0  0
    6.4783   10.9147   26.3252 C   0  0  0  0  0  0  0  0  0  0  0  0
    6.8403   12.2419   26.5695 C   0  0  0  0  0  0  0  0  0  0  0  0
    6.1303   12.9927   27.6078 N   0  0  0  0  0  0  0  0  0  0  0  0
    5.0232   12.5668   27.9697 O   0  0  0  0  0  0  0  0  0  0  0  0
    6.7012   13.9787   28.0943 O   0  0  0  0  0  0  0  0  0  0  0  0
    7.8894   12.8566   25.8704 C   0  0  0  0  0  0  0  0  0  0  0  0
    8.5735   12.0992   24.9009 C   0  0  0  0  0  0  0  0  0  0  0  0
  1  2  1  0
  2  3  1  0
  3  4  1  0
  4  5  2  0
  5  6  1  0
  6  7  1  0
  7  8  1  0
  8  9  1  0
  9 10  2  0
  9 11  1  0
 11 12  2  0
 12 13  1  0
 13 14  1  0
 13 15  1  0
 15 16  2  0
 16 17  1  0
 17 18  2  0
 18 19  1  0
 19 20  2  0
 19 21  1  0
 18 22  1  0
 22 23  2  0
  6  2  2  0
 23 11  1  0
 23 15  1  0
M  CHG  2  19   1  21  -1
M  END
>  <energy_score>  (1436) 
-38.796593

>  <inchikey>  (1436) 
RPYCCNFCVWTOGH-UHFFFAOYSA-N

>  <smiles>  (1436) 
Cc1ocnc1CNC(=O)c1nn(C)c2ccc([N+](=O)[O-])cc12

>  <ref_pdb>  (1436) 
A0514a

>  <alias>  (1436) 
RPYCCNFCVWTOGH-UHFFFAOYSA-N-P177-P126-P177-601502

>  <HIPPO Pose ID>  (1436) 
502831

>  <name>  (1436) 
RPYCCNFCVWTOGH-UHFFFAOYSA-N-P177-P126-P177-601502

>  <HIPPO Compound ID>  (1436) 
299233

>  <ref_mols>  (1436) 
A3403a,A2290a

>  <distance_score>  (1436) 
0.753671

>  <inspiration_score>  (1436) 
None

$$$$
VVFVLDHRFWNFBQ-UHFFFAOYSA-N-P177-P126-P177-601502
     RDKit          3D

 23 25  0  0  0  0  0  0  0  0999 V2000
    9.1012    9.0060   23.1015 C   0  0  0  0  0  0  0  0  0  0  0  0
    9.0531   10.3426   23.6448 N   0  0  0  0  0  0  0  0  0  0  0  0
    9.8752   11.2697   23.1479 N   0  0  0  0  0  0  0  0  0  0  0  0
    9.6537   12.3683   23.8900 C   0  0  0  0  0  0  0  0  0  0  0  0
   10.4252   13.6019   23.6503 C   0  0  0  0  0  0  0  0  0  0  0  0
   10.4983   14.4469   24.4487 O   0  0  0  0  0  0  0  0  0  0  0  0
   10.9737   13.5347   22.2219 N   0  0  0  0  0  0  0  0  0  0  0  0
   11.8039   14.4444   21.5045 C   0  0  0  0  0  0  0  0  0  0  0  0
   10.9255   15.2329   20.6253 C   0  0  0  0  0  0  0  0  0  0  0  0
   10.7564   15.1609   19.2645 C   0  0  0  0  0  0  0  0  0  0  0  0
    9.8380   16.0960   18.9088 O   0  0  0  0  0  0  0  0  0  0  0  0
    9.5211   16.7245   20.0805 C   0  0  0  0  0  0  0  0  0  0  0  0
    8.4774   18.0733   20.1667 Cl  0  0  0  0  0  0  0  0  0  0  0  0
   10.1172   16.2182   21.1357 N   0  0  0  0  0  0  0  0  0  0  0  0
    8.6125   12.1443   24.8289 C   0  0  0  0  0  0  0  0  0  0  0  0
    7.9489   12.9199   25.7984 C   0  0  0  0  0  0  0  0  0  0  0  0
    6.9149   12.3192   26.5328 C   0  0  0  0  0  0  0  0  0  0  0  0
    6.2275   13.0920   27.5711 N   0  0  0  0  0  0  0  0  0  0  0  0
    5.1359   12.6638   27.9747 O   0  0  0  0  0  0  0  0  0  0  0  0
    6.8024   14.0955   28.0137 O   0  0  0  0  0  0  0  0  0  0  0  0
    6.5453   10.9871   26.3221 C   0  0  0  0  0  0  0  0  0  0  0  0
    7.2042   10.2167   25.3635 C   0  0  0  0  0  0  0  0  0  0  0  0
    8.2291   10.8183   24.6318 C   0  0  0  0  0  0  0  0  0  0  0  0
  1  2  1  0
  2  3  1  0
  3  4  2  0
  4  5  1  0
  5  6  2  0
  5  7  1  0
  7  8  1  0
  8  9  1  0
  9 10  2  0
 10 11  1  0
 11 12  1  0
 12 13  1  0
 12 14  2  0
  4 15  1  0
 15 16  2  0
 16 17  1  0
 17 18  1  0
 18 19  2  0
 18 20  1  0
 17 21  2  0
 21 22  1  0
 22 23  2  0
 23  2  1  0
 14  9  1  0
 23 15  1  0
M  CHG  2  18   1  20  -1
M  END
>  <energy_score>  (1437) 
-18.537823

>  <inchikey>  (1437) 
VVFVLDHRFWNFBQ-UHFFFAOYSA-N

>  <smiles>  (1437) 
Cn1nc(C(=O)NCc2coc(Cl)n2)c2cc([N+](=O)[O-])ccc21

>  <ref_pdb>  (1437) 
A0514a

>  <alias>  (1437) 
VVFVLDHRFWNFBQ-UHFFFAOYSA-N-P177-P126-P177-601502

>  <HIPPO Pose ID>  (1437) 
502835

>  <name>  (1437) 
VVFVLDHRFWNFBQ-UHFFFAOYSA-N-P177-P126-P177-601502

>  <HIPPO Compound ID>  (1437) 
299235

>  <ref_mols>  (1437) 
A3403a,A2290a

>  <distance_score>  (1437) 
0.626059

>  <inspiration_score>  (1437) 
None

$$$$
FIIIUUWZPPLPML-UHFFFAOYSA-N-P177-P126-P177-601502
     RDKit          3D

 23 25  0  0  0  0  0  0  0  0999 V2000
    8.5625   17.7202   20.4938 C   0  0  0  0  0  0  0  0  0  0  0  0
    9.5705   16.6639   20.3703 C   0  0  0  0  0  0  0  0  0  0  0  0
   10.2461   16.0882   21.3353 N   0  0  0  0  0  0  0  0  0  0  0  0
   11.0232   15.1673   20.6925 C   0  0  0  0  0  0  0  0  0  0  0  0
   11.9611   14.3348   21.4588 C   0  0  0  0  0  0  0  0  0  0  0  0
   11.2002   13.4070   22.2336 N   0  0  0  0  0  0  0  0  0  0  0  0
   10.5596   13.5548   23.6204 C   0  0  0  0  0  0  0  0  0  0  0  0
   10.6133   14.4299   24.3887 O   0  0  0  0  0  0  0  0  0  0  0  0
    9.7263   12.3567   23.8631 C   0  0  0  0  0  0  0  0  0  0  0  0
    9.9017   11.2451   23.1282 N   0  0  0  0  0  0  0  0  0  0  0  0
    9.0499   10.3510   23.6338 N   0  0  0  0  0  0  0  0  0  0  0  0
    9.0605    9.0069   23.1085 C   0  0  0  0  0  0  0  0  0  0  0  0
    8.2462   10.8595   24.6198 C   0  0  0  0  0  0  0  0  0  0  0  0
    7.2043   10.2945   25.3591 C   0  0  0  0  0  0  0  0  0  0  0  0
    6.5769   11.0921   26.3165 C   0  0  0  0  0  0  0  0  0  0  0  0
    6.9930   12.4123   26.5181 C   0  0  0  0  0  0  0  0  0  0  0  0
    6.3451   13.2132   27.5615 N   0  0  0  0  0  0  0  0  0  0  0  0
    5.2657   12.8036   28.0134 O   0  0  0  0  0  0  0  0  0  0  0  0
    6.9417   14.2219   27.9634 O   0  0  0  0  0  0  0  0  0  0  0  0
    8.0415   12.9753   25.7724 C   0  0  0  0  0  0  0  0  0  0  0  0
    8.6753   12.1745   24.8038 C   0  0  0  0  0  0  0  0  0  0  0  0
   10.7636   15.2058   19.3427 C   0  0  0  0  0  0  0  0  0  0  0  0
    9.8163   16.1594   19.1253 O   0  0  0  0  0  0  0  0  0  0  0  0
  1  2  1  0
  2  3  2  0
  3  4  1  0
  4  5  1  0
  5  6  1  0
  6  7  1  0
  7  8  2  0
  7  9  1  0
  9 10  2  0
 10 11  1  0
 11 12  1  0
 11 13  1  0
 13 14  2  0
 14 15  1  0
 15 16  2  0
 16 17  1  0
 17 18  2  0
 17 19  1  0
 16 20  1  0
 20 21  2  0
  4 22  2  0
 22 23  1  0
 23  2  1  0
 21  9  1  0
 21 13  1  0
M  CHG  2  17   1  19  -1
M  END
>  <energy_score>  (1438) 
-35.8337

>  <inchikey>  (1438) 
FIIIUUWZPPLPML-UHFFFAOYSA-N

>  <smiles>  (1438) 
Cc1nc(CNC(=O)c2nn(C)c3ccc([N+](=O)[O-])cc23)co1

>  <ref_pdb>  (1438) 
A0514a

>  <alias>  (1438) 
FIIIUUWZPPLPML-UHFFFAOYSA-N-P177-P126-P177-601502

>  <HIPPO Pose ID>  (1438) 
502837

>  <name>  (1438) 
FIIIUUWZPPLPML-UHFFFAOYSA-N-P177-P126-P177-601502

>  <HIPPO Compound ID>  (1438) 
299236

>  <ref_mols>  (1438) 
A3403a,A2290a

>  <distance_score>  (1438) 
0.63373

>  <inspiration_score>  (1438) 
None

$$$$
SYQCMTRMXAKCPE-UHFFFAOYSA-N-P126-P126-P177-601502
     RDKit          3D

 23 25  0  0  0  0  0  0  0  0999 V2000
    8.1617   18.7036   19.8675 C   0  0  0  0  0  0  0  0  0  0  0  0
    8.8971   17.5839   20.3574 N   0  0  0  0  0  0  0  0  0  0  0  0
    9.5012   16.3918   19.6164 C   0  0  0  0  0  0  0  0  0  0  0  0
    9.4332   16.0887   18.5011 O   0  0  0  0  0  0  0  0  0  0  0  0
   10.1680   15.5169   20.5682 C   0  0  0  0  0  0  0  0  0  0  0  0
   11.1868   15.8412   21.4284 C   0  0  0  0  0  0  0  0  0  0  0  0
   11.3866   14.8523   22.3003 O   0  0  0  0  0  0  0  0  0  0  0  0
   10.4959   13.9500   21.8863 C   0  0  0  0  0  0  0  0  0  0  0  0
   10.2487   12.9751   22.7246 N   0  0  0  0  0  0  0  0  0  0  0  0
   10.3985   12.9090   24.2335 C   0  0  0  0  0  0  0  0  0  0  0  0
   10.8388   13.6804   24.9828 O   0  0  0  0  0  0  0  0  0  0  0  0
    9.7592   11.6648   24.5404 C   0  0  0  0  0  0  0  0  0  0  0  0
   10.0356   10.6266   23.7458 N   0  0  0  0  0  0  0  0  0  0  0  0
    9.1130    9.7225   24.0502 N   0  0  0  0  0  0  0  0  0  0  0  0
    9.1424    8.5236   23.2580 C   0  0  0  0  0  0  0  0  0  0  0  0
    8.2171   10.1669   24.9966 C   0  0  0  0  0  0  0  0  0  0  0  0
    7.0803    9.6129   25.5802 C   0  0  0  0  0  0  0  0  0  0  0  0
    6.3334   10.3891   26.4724 C   0  0  0  0  0  0  0  0  0  0  0  0
    6.7005   11.6986   26.7546 C   0  0  0  0  0  0  0  0  0  0  0  0
    5.6502   12.7270   27.9426 Br  0  0  0  0  0  0  0  0  0  0  0  0
    7.8356   12.2608   26.1776 C   0  0  0  0  0  0  0  0  0  0  0  0
    8.6147   11.4622   25.3206 C   0  0  0  0  0  0  0  0  0  0  0  0
    9.7818   14.2305   20.8293 N   0  0  0  0  0  0  0  0  0  0  0  0
  1  2  1  0
  2  3  1  0
  3  4  2  0
  3  5  1  0
  5  6  2  0
  6  7  1  0
  7  8  1  0
  8  9  1  0
  9 10  1  0
 10 11  2  0
 10 12  1  0
 12 13  2  0
 13 14  1  0
 14 15  1  0
 14 16  1  0
 16 17  2  0
 17 18  1  0
 18 19  2  0
 19 20  1  0
 19 21  1  0
 21 22  2  0
  8 23  2  0
 23  5  1  0
 22 12  1  0
 22 16  1  0
M  END
>  <energy_score>  (1439) 
-5.794926

>  <inchikey>  (1439) 
SYQCMTRMXAKCPE-UHFFFAOYSA-N

>  <smiles>  (1439) 
CNC(=O)c1coc(NC(=O)c2nn(C)c3ccc(Br)cc23)n1

>  <ref_pdb>  (1439) 
A0514a

>  <alias>  (1439) 
SYQCMTRMXAKCPE-UHFFFAOYSA-N-P126-P126-P177-601502

>  <HIPPO Pose ID>  (1439) 
502846

>  <name>  (1439) 
SYQCMTRMXAKCPE-UHFFFAOYSA-N-P126-P126-P177-601502

>  <HIPPO Compound ID>  (1439) 
299241

>  <ref_mols>  (1439) 
A3403a,A2290a

>  <distance_score>  (1439) 
1.343532

>  <inspiration_score>  (1439) 
None

$$$$
ODPRAGXNJWDPJF-UHFFFAOYSA-N-P177-P126-P177-601502
     RDKit          3D

 23 25  0  0  0  0  0  0  0  0999 V2000
   11.4342   14.8005   18.4042 C   0  0  0  0  0  0  0  0  0  0  0  0
   10.6966   15.3965   19.5158 C   0  0  0  0  0  0  0  0  0  0  0  0
    9.7094   16.2946   19.2331 O   0  0  0  0  0  0  0  0  0  0  0  0
    9.2786   16.6961   20.4623 C   0  0  0  0  0  0  0  0  0  0  0  0
    9.8702   16.1031   21.4708 N   0  0  0  0  0  0  0  0  0  0  0  0
   10.8120   15.3006   20.8793 C   0  0  0  0  0  0  0  0  0  0  0  0
   11.7801   14.5138   21.6629 C   0  0  0  0  0  0  0  0  0  0  0  0
   11.0474   13.5501   22.4028 N   0  0  0  0  0  0  0  0  0  0  0  0
   10.4449   13.6225   23.8058 C   0  0  0  0  0  0  0  0  0  0  0  0
   10.5157   14.4554   24.6161 O   0  0  0  0  0  0  0  0  0  0  0  0
    9.6612   12.3961   24.0153 C   0  0  0  0  0  0  0  0  0  0  0  0
    9.9175   11.2866   23.3010 N   0  0  0  0  0  0  0  0  0  0  0  0
    9.0977   10.3437   23.8209 N   0  0  0  0  0  0  0  0  0  0  0  0
    9.2902    8.9216   23.5135 C   0  0  0  0  0  0  0  0  0  0  0  0
    8.7288    8.5605   22.3422 F   0  0  0  0  0  0  0  0  0  0  0  0
    8.7169    8.1612   24.4744 F   0  0  0  0  0  0  0  0  0  0  0  0
   10.5917    8.5535   23.4737 F   0  0  0  0  0  0  0  0  0  0  0  0
    8.2056   10.8683   24.7368 C   0  0  0  0  0  0  0  0  0  0  0  0
    7.1400   10.3089   25.4501 C   0  0  0  0  0  0  0  0  0  0  0  0
    6.4659   11.1151   26.3692 C   0  0  0  0  0  0  0  0  0  0  0  0
    6.8353   12.4411   26.5631 C   0  0  0  0  0  0  0  0  0  0  0  0
    7.8928   12.9961   25.8389 C   0  0  0  0  0  0  0  0  0  0  0  0
    8.5864   12.1955   24.9134 C   0  0  0  0  0  0  0  0  0  0  0  0
  1  2  1  0
  2  3  1  0
  3  4  1  0
  4  5  2  0
  5  6  1  0
  6  7  1  0
  7  8  1  0
  8  9  1  0
  9 10  2  0
  9 11  1  0
 11 12  2  0
 12 13  1  0
 13 14  1  0
 14 15  1  0
 14 16  1  0
 14 17  1  0
 13 18  1  0
 18 19  2  0
 19 20  1  0
 20 21  2  0
 21 22  1  0
 22 23  2  0
  6  2  2  0
 23 11  1  0
 23 18  1  0
M  END
>  <energy_score>  (1440) 
-9.605297

>  <inchikey>  (1440) 
ODPRAGXNJWDPJF-UHFFFAOYSA-N

>  <smiles>  (1440) 
Cc1ocnc1CNC(=O)c1nn(C(F)(F)F)c2ccccc12

>  <ref_pdb>  (1440) 
A0514a

>  <alias>  (1440) 
ODPRAGXNJWDPJF-UHFFFAOYSA-N-P177-P126-P177-601502

>  <HIPPO Pose ID>  (1440) 
502851

>  <name>  (1440) 
ODPRAGXNJWDPJF-UHFFFAOYSA-N-P177-P126-P177-601502

>  <HIPPO Compound ID>  (1440) 
299243

>  <ref_mols>  (1440) 
A3403a,A2290a

>  <distance_score>  (1440) 
0.758479

>  <inspiration_score>  (1440) 
None

$$$$
FJSZRKDVANFOSZ-UHFFFAOYSA-N-P177-P126-P177-601502
     RDKit          3D

 23 26  0  0  0  0  0  0  0  0999 V2000
    9.1867    9.1796   23.0875 C   0  0  0  0  0  0  0  0  0  0  0  0
    9.0095   10.4558   23.7444 N   0  0  0  0  0  0  0  0  0  0  0  0
    9.7832   11.4984   23.3923 N   0  0  0  0  0  0  0  0  0  0  0  0
    9.4244   12.4764   24.2453 C   0  0  0  0  0  0  0  0  0  0  0  0
   10.0557   13.7954   24.2309 C   0  0  0  0  0  0  0  0  0  0  0  0
   10.0781   14.4710   25.1765 O   0  0  0  0  0  0  0  0  0  0  0  0
   10.5793   14.0477   22.8249 N   0  0  0  0  0  0  0  0  0  0  0  0
   11.1538   15.2055   22.2519 C   0  0  0  0  0  0  0  0  0  0  0  0
   10.2662   15.7816   21.2272 C   0  0  0  0  0  0  0  0  0  0  0  0
    9.3400   16.7433   21.5262 N   0  0  0  0  0  0  0  0  0  0  0  0
    8.9268   17.1753   20.3637 C   0  0  0  0  0  0  0  0  0  0  0  0
    9.4261   16.4918   19.3006 O   0  0  0  0  0  0  0  0  0  0  0  0
   10.2342   15.5660   19.8763 C   0  0  0  0  0  0  0  0  0  0  0  0
   10.9995   14.4955   19.1463 C   0  0  0  0  0  0  0  0  0  0  0  0
   11.9271   14.8567   18.0623 C   0  0  0  0  0  0  0  0  0  0  0  0
   12.4531   14.3398   19.3715 C   0  0  0  0  0  0  0  0  0  0  0  0
    8.3749   12.0761   25.0970 C   0  0  0  0  0  0  0  0  0  0  0  0
    7.6170   12.6968   26.1071 C   0  0  0  0  0  0  0  0  0  0  0  0
    6.6221   11.9569   26.7405 C   0  0  0  0  0  0  0  0  0  0  0  0
    5.6030   12.7486   28.1216 Br  0  0  0  0  0  0  0  0  0  0  0  0
    6.3819   10.6362   26.3855 C   0  0  0  0  0  0  0  0  0  0  0  0
    7.1297   10.0193   25.3793 C   0  0  0  0  0  0  0  0  0  0  0  0
    8.1190   10.7597   24.7435 C   0  0  0  0  0  0  0  0  0  0  0  0
  1  2  1  0
  2  3  1  0
  3  4  2  0
  4  5  1  0
  5  6  2  0
  5  7  1  0
  7  8  1  0
  8  9  1  0
  9 10  1  0
 10 11  2  0
 11 12  1  0
 12 13  1  0
 13 14  1  0
 14 15  1  0
 15 16  1  0
  4 17  1  0
 17 18  2  0
 18 19  1  0
 19 20  1  0
 19 21  2  0
 21 22  1  0
 22 23  2  0
 23  2  1  0
 13  9  2  0
 16 14  1  0
 23 17  1  0
M  END
>  <energy_score>  (1441) 
-8.591305

>  <inchikey>  (1441) 
FJSZRKDVANFOSZ-UHFFFAOYSA-N

>  <smiles>  (1441) 
Cn1nc(C(=O)NCc2ncoc2C2CC2)c2cc(Br)ccc21

>  <ref_pdb>  (1441) 
A0514a

>  <alias>  (1441) 
FJSZRKDVANFOSZ-UHFFFAOYSA-N-P177-P126-P177-601502

>  <HIPPO Pose ID>  (1441) 
502857

>  <name>  (1441) 
FJSZRKDVANFOSZ-UHFFFAOYSA-N-P177-P126-P177-601502

>  <HIPPO Compound ID>  (1441) 
299246

>  <ref_mols>  (1441) 
A3403a,A2290a

>  <distance_score>  (1441) 
1.01683

>  <inspiration_score>  (1441) 
None

$$$$
MWOFLXQHSGYWOA-UHFFFAOYSA-N-P177-P126-P177-601502
     RDKit          3D

 23 25  0  0  0  0  0  0  0  0999 V2000
   12.4252   13.7944   19.6479 C   0  0  0  0  0  0  0  0  0  0  0  0
   11.2703   13.8805   18.8643 O   0  0  0  0  0  0  0  0  0  0  0  0
   10.8364   15.1951   18.6278 C   0  0  0  0  0  0  0  0  0  0  0  0
   10.2035   15.8366   19.7813 C   0  0  0  0  0  0  0  0  0  0  0  0
    9.3142   16.8120   19.4018 O   0  0  0  0  0  0  0  0  0  0  0  0
    8.7761   17.2552   20.5570 C   0  0  0  0  0  0  0  0  0  0  0  0
    9.2151   16.6382   21.6164 N   0  0  0  0  0  0  0  0  0  0  0  0
   10.2459   15.8521   21.1583 C   0  0  0  0  0  0  0  0  0  0  0  0
   11.1769   15.2935   22.1549 C   0  0  0  0  0  0  0  0  0  0  0  0
   10.6410   14.1047   22.7216 N   0  0  0  0  0  0  0  0  0  0  0  0
   10.1758   13.8062   24.1437 C   0  0  0  0  0  0  0  0  0  0  0  0
   10.2247   14.4580   25.1061 O   0  0  0  0  0  0  0  0  0  0  0  0
    9.5221   12.4922   24.1597 C   0  0  0  0  0  0  0  0  0  0  0  0
    9.8621   11.5010   23.3161 N   0  0  0  0  0  0  0  0  0  0  0  0
    9.0856   10.4675   23.6878 N   0  0  0  0  0  0  0  0  0  0  0  0
    9.2612    9.1776   23.0584 C   0  0  0  0  0  0  0  0  0  0  0  0
    8.1944   10.7879   24.6804 C   0  0  0  0  0  0  0  0  0  0  0  0
    7.2004   10.0568   25.3249 C   0  0  0  0  0  0  0  0  0  0  0  0
    6.4580   10.6906   26.3241 C   0  0  0  0  0  0  0  0  0  0  0  0
    6.7098   12.0145   26.6636 C   0  0  0  0  0  0  0  0  0  0  0  0
    5.6976   12.8275   28.0377 Br  0  0  0  0  0  0  0  0  0  0  0  0
    7.7100   12.7418   26.0216 C   0  0  0  0  0  0  0  0  0  0  0  0
    8.4637   12.1074   25.0164 C   0  0  0  0  0  0  0  0  0  0  0  0
  1  2  1  0
  2  3  1  0
  3  4  1  0
  4  5  1  0
  5  6  1  0
  6  7  2  0
  7  8  1  0
  8  9  1  0
  9 10  1  0
 10 11  1  0
 11 12  2  0
 11 13  1  0
 13 14  2  0
 14 15  1  0
 15 16  1  0
 15 17  1  0
 17 18  2  0
 18 19  1  0
 19 20  2  0
 20 21  1  0
 20 22  1  0
 22 23  2  0
  8  4  2  0
 23 13  1  0
 23 17  1  0
M  END
>  <energy_score>  (1442) 
-31.478263

>  <inchikey>  (1442) 
MWOFLXQHSGYWOA-UHFFFAOYSA-N

>  <smiles>  (1442) 
COCc1ocnc1CNC(=O)c1nn(C)c2ccc(Br)cc12

>  <ref_pdb>  (1442) 
A0514a

>  <alias>  (1442) 
MWOFLXQHSGYWOA-UHFFFAOYSA-N-P177-P126-P177-601502

>  <HIPPO Pose ID>  (1442) 
502859

>  <name>  (1442) 
MWOFLXQHSGYWOA-UHFFFAOYSA-N-P177-P126-P177-601502

>  <HIPPO Compound ID>  (1442) 
299247

>  <ref_mols>  (1442) 
A3403a,A2290a

>  <distance_score>  (1442) 
1.008465

>  <inspiration_score>  (1442) 
None

$$$$
KRPRVPKVWCIGSU-UHFFFAOYSA-N-P177-P126-P177-601502
     RDKit          3D

 23 25  0  0  0  0  0  0  0  0999 V2000
    9.0568    9.0134   23.0978 C   0  0  0  0  0  0  0  0  0  0  0  0
    9.0425   10.3532   23.6357 N   0  0  0  0  0  0  0  0  0  0  0  0
    9.8897   11.2579   23.1361 N   0  0  0  0  0  0  0  0  0  0  0  0
    9.7021   12.3633   23.8774 C   0  0  0  0  0  0  0  0  0  0  0  0
   10.5195   13.5697   23.6335 C   0  0  0  0  0  0  0  0  0  0  0  0
   10.6187   14.4194   24.4256 O   0  0  0  0  0  0  0  0  0  0  0  0
   11.1277   13.4410   22.2308 N   0  0  0  0  0  0  0  0  0  0  0  0
   11.9045   14.3633   21.4689 C   0  0  0  0  0  0  0  0  0  0  0  0
   10.9793   15.1969   20.6852 C   0  0  0  0  0  0  0  0  0  0  0  0
   10.7387   15.2190   19.3328 C   0  0  0  0  0  0  0  0  0  0  0  0
    9.8062   16.1784   19.0872 O   0  0  0  0  0  0  0  0  0  0  0  0
    9.5443   16.7202   20.3212 C   0  0  0  0  0  0  0  0  0  0  0  0
    8.5287   17.8020   20.3965 C   0  0  0  0  0  0  0  0  0  0  0  0
    8.2320   18.3248   19.1717 F   0  0  0  0  0  0  0  0  0  0  0  0
    8.9293   18.8424   21.1692 F   0  0  0  0  0  0  0  0  0  0  0  0
   10.1978   16.1344   21.3045 N   0  0  0  0  0  0  0  0  0  0  0  0
    8.6649   12.1637   24.8265 C   0  0  0  0  0  0  0  0  0  0  0  0
    8.0343   12.9488   25.8090 C   0  0  0  0  0  0  0  0  0  0  0  0
    7.0049   12.3783   26.5626 C   0  0  0  0  0  0  0  0  0  0  0  0
    6.1646   13.4063   27.9099 Br  0  0  0  0  0  0  0  0  0  0  0  0
    6.5964   11.0645   26.3526 C   0  0  0  0  0  0  0  0  0  0  0  0
    7.2125   10.2754   25.3797 C   0  0  0  0  0  0  0  0  0  0  0  0
    8.2442   10.8482   24.6332 C   0  0  0  0  0  0  0  0  0  0  0  0
  1  2  1  0
  2  3  1  0
  3  4  2  0
  4  5  1  0
  5  6  2  0
  5  7  1  0
  7  8  1  0
  8  9  1  0
  9 10  2  0
 10 11  1  0
 11 12  1  0
 12 13  1  0
 13 14  1  0
 13 15  1  0
 12 16  2  0
  4 17  1  0
 17 18  2  0
 18 19  1  0
 19 20  1  0
 19 21  2  0
 21 22  1  0
 22 23  2  0
 23  2  1  0
 16  9  1  0
 23 17  1  0
M  END
>  <energy_score>  (1443) 
-16.429827

>  <inchikey>  (1443) 
KRPRVPKVWCIGSU-UHFFFAOYSA-N

>  <smiles>  (1443) 
Cn1nc(C(=O)NCc2coc(C(F)F)n2)c2cc(Br)ccc21

>  <ref_pdb>  (1443) 
A0514a

>  <alias>  (1443) 
KRPRVPKVWCIGSU-UHFFFAOYSA-N-P177-P126-P177-601502

>  <HIPPO Pose ID>  (1443) 
502863

>  <name>  (1443) 
KRPRVPKVWCIGSU-UHFFFAOYSA-N-P177-P126-P177-601502

>  <HIPPO Compound ID>  (1443) 
299249

>  <ref_mols>  (1443) 
A3403a,A2290a

>  <distance_score>  (1443) 
0.63923

>  <inspiration_score>  (1443) 
None

$$$$
IUUBQGWCAGHBSR-UHFFFAOYSA-N-P177-P126-P177-601502
     RDKit          3D

 23 25  0  0  0  0  0  0  0  0999 V2000
    8.0573   18.5706   19.4697 C   0  0  0  0  0  0  0  0  0  0  0  0
    8.4627   17.7704   20.6908 C   0  0  0  0  0  0  0  0  0  0  0  0
    9.5137   16.7467   20.5275 C   0  0  0  0  0  0  0  0  0  0  0  0
   10.1207   16.1067   21.5031 N   0  0  0  0  0  0  0  0  0  0  0  0
   10.9626   15.2406   20.8740 C   0  0  0  0  0  0  0  0  0  0  0  0
   11.8976   14.3929   21.6308 C   0  0  0  0  0  0  0  0  0  0  0  0
   11.1422   13.4469   22.3767 N   0  0  0  0  0  0  0  0  0  0  0  0
   10.4869   13.5614   23.7573 C   0  0  0  0  0  0  0  0  0  0  0  0
   10.5236   14.4220   24.5424 O   0  0  0  0  0  0  0  0  0  0  0  0
    9.6727   12.3496   23.9621 C   0  0  0  0  0  0  0  0  0  0  0  0
    9.8779   11.2577   23.2059 N   0  0  0  0  0  0  0  0  0  0  0  0
    9.0233   10.3433   23.6740 N   0  0  0  0  0  0  0  0  0  0  0  0
    9.0498    9.0139   23.1108 C   0  0  0  0  0  0  0  0  0  0  0  0
    8.2083   10.8211   24.6678 C   0  0  0  0  0  0  0  0  0  0  0  0
    7.1695   10.2352   25.3943 C   0  0  0  0  0  0  0  0  0  0  0  0
    6.5367   11.0110   26.3664 C   0  0  0  0  0  0  0  0  0  0  0  0
    6.9346   12.3214   26.5910 C   0  0  0  0  0  0  0  0  0  0  0  0
    6.3211   13.0330   27.5464 F   0  0  0  0  0  0  0  0  0  0  0  0
    7.9681   12.9076   25.8647 C   0  0  0  0  0  0  0  0  0  0  0  0
    8.6184   12.1365   24.8856 C   0  0  0  0  0  0  0  0  0  0  0  0
   10.7954   15.3586   19.5174 C   0  0  0  0  0  0  0  0  0  0  0  0
   11.4634   14.7496   18.3735 C   0  0  0  0  0  0  0  0  0  0  0  0
    9.8445   16.3084   19.2765 O   0  0  0  0  0  0  0  0  0  0  0  0
  1  2  1  0
  2  3  1  0
  3  4  2  0
  4  5  1  0
  5  6  1  0
  6  7  1  0
  7  8  1  0
  8  9  2  0
  8 10  1  0
 10 11  2  0
 11 12  1  0
 12 13  1  0
 12 14  1  0
 14 15  2  0
 15 16  1  0
 16 17  2  0
 17 18  1  0
 17 19  1  0
 19 20  2  0
  5 21  2  0
 21 22  1  0
 21 23  1  0
 23  3  1  0
 20 10  1  0
 20 14  1  0
M  END
>  <energy_score>  (1444) 
-31.115209

>  <inchikey>  (1444) 
IUUBQGWCAGHBSR-UHFFFAOYSA-N

>  <smiles>  (1444) 
CCc1nc(CNC(=O)c2nn(C)c3ccc(F)cc23)c(C)o1

>  <ref_pdb>  (1444) 
A0514a

>  <alias>  (1444) 
IUUBQGWCAGHBSR-UHFFFAOYSA-N-P177-P126-P177-601502

>  <HIPPO Pose ID>  (1444) 
502865

>  <name>  (1444) 
IUUBQGWCAGHBSR-UHFFFAOYSA-N-P177-P126-P177-601502

>  <HIPPO Compound ID>  (1444) 
299250

>  <ref_mols>  (1444) 
A3403a,A2290a

>  <distance_score>  (1444) 
0.690227

>  <inspiration_score>  (1444) 
None

$$$$
GFBUDSZHUNTCBQ-UHFFFAOYSA-N-P126-P126-P177-601502
     RDKit          3D

 23 25  0  0  0  0  0  0  0  0999 V2000
   12.0881   15.9903   17.2572 C   0  0  0  0  0  0  0  0  0  0  0  0
   12.5136   14.9249   18.0623 O   0  0  0  0  0  0  0  0  0  0  0  0
   11.5298   14.1854   18.6965 C   0  0  0  0  0  0  0  0  0  0  0  0
   10.7830   14.9504   19.6819 C   0  0  0  0  0  0  0  0  0  0  0  0
    9.7700   15.7710   19.2755 O   0  0  0  0  0  0  0  0  0  0  0  0
    9.3603   16.3532   20.4280 C   0  0  0  0  0  0  0  0  0  0  0  0
    9.9274   15.8712   21.5038 N   0  0  0  0  0  0  0  0  0  0  0  0
   10.9116   15.0523   21.0413 C   0  0  0  0  0  0  0  0  0  0  0  0
   11.9096   14.4355   21.9384 C   0  0  0  0  0  0  0  0  0  0  0  0
   11.2425   13.3689   22.6037 N   0  0  0  0  0  0  0  0  0  0  0  0
   10.6439   13.2936   24.0076 C   0  0  0  0  0  0  0  0  0  0  0  0
   10.6647   14.0644   24.8799 O   0  0  0  0  0  0  0  0  0  0  0  0
    9.8991   12.0346   24.1042 C   0  0  0  0  0  0  0  0  0  0  0  0
   10.2226   10.9879   23.3268 N   0  0  0  0  0  0  0  0  0  0  0  0
    9.3882   10.0113   23.7147 N   0  0  0  0  0  0  0  0  0  0  0  0
    9.4938    8.7266   23.0643 C   0  0  0  0  0  0  0  0  0  0  0  0
    8.5033   10.4034   24.6913 C   0  0  0  0  0  0  0  0  0  0  0  0
    7.4859    9.7306   25.3768 C   0  0  0  0  0  0  0  0  0  0  0  0
    6.7277   10.4531   26.3013 C   0  0  0  0  0  0  0  0  0  0  0  0
    6.9865   11.7981   26.5267 C   0  0  0  0  0  0  0  0  0  0  0  0
    6.2516   12.4597   27.4308 F   0  0  0  0  0  0  0  0  0  0  0  0
    8.0104   12.4651   25.8599 C   0  0  0  0  0  0  0  0  0  0  0  0
    8.7906   11.7443   24.9366 C   0  0  0  0  0  0  0  0  0  0  0  0
  1  2  1  0
  2  3  1  0
  3  4  1  0
  4  5  1  0
  5  6  1  0
  6  7  2  0
  7  8  1  0
  8  9  1  0
  9 10  1  0
 10 11  1  0
 11 12  2  0
 11 13  1  0
 13 14  2  0
 14 15  1  0
 15 16  1  0
 15 17  1  0
 17 18  2  0
 18 19  1  0
 19 20  2  0
 20 21  1  0
 20 22  1  0
 22 23  2  0
  8  4  2  0
 23 13  1  0
 23 17  1  0
M  END
>  <energy_score>  (1445) 
-30.254172

>  <inchikey>  (1445) 
GFBUDSZHUNTCBQ-UHFFFAOYSA-N

>  <smiles>  (1445) 
COCc1ocnc1CNC(=O)c1nn(C)c2ccc(F)cc12

>  <ref_pdb>  (1445) 
A0514a

>  <alias>  (1445) 
GFBUDSZHUNTCBQ-UHFFFAOYSA-N-P126-P126-P177-601502

>  <HIPPO Pose ID>  (1445) 
502866

>  <name>  (1445) 
GFBUDSZHUNTCBQ-UHFFFAOYSA-N-P126-P126-P177-601502

>  <HIPPO Compound ID>  (1445) 
299251

>  <ref_mols>  (1445) 
A3403a,A2290a

>  <distance_score>  (1445) 
0.771533

>  <inspiration_score>  (1445) 
None

$$$$
HZIQFBNKXYYPSN-UHFFFAOYSA-N-P126-P126-P177-601502
     RDKit          3D

 23 26  0  0  0  0  0  0  0  0999 V2000
    9.4705    8.8404   23.1142 C   0  0  0  0  0  0  0  0  0  0  0  0
    9.2462   10.1030   23.7791 N   0  0  0  0  0  0  0  0  0  0  0  0
    9.9689   11.1691   23.3921 N   0  0  0  0  0  0  0  0  0  0  0  0
    9.5623   12.1534   24.2129 C   0  0  0  0  0  0  0  0  0  0  0  0
   10.1602   13.4839   24.1626 C   0  0  0  0  0  0  0  0  0  0  0  0
   10.1717   14.1819   25.0930 O   0  0  0  0  0  0  0  0  0  0  0  0
   10.6876   13.7097   22.7498 N   0  0  0  0  0  0  0  0  0  0  0  0
   11.2532   14.8629   22.1507 C   0  0  0  0  0  0  0  0  0  0  0  0
   10.3717   15.4423   21.1052 C   0  0  0  0  0  0  0  0  0  0  0  0
    9.4680   16.4392   21.3405 N   0  0  0  0  0  0  0  0  0  0  0  0
    9.1270   16.8967   20.1661 C   0  0  0  0  0  0  0  0  0  0  0  0
    9.6258   16.1796   19.1344 O   0  0  0  0  0  0  0  0  0  0  0  0
   10.3955   15.2491   19.7536 C   0  0  0  0  0  0  0  0  0  0  0  0
   11.2669   14.2555   19.0678 C   0  0  0  0  0  0  0  0  0  0  0  0
   12.2413   14.6772   18.0820 C   0  0  0  0  0  0  0  0  0  0  0  0
   12.6964   14.1279   19.4132 C   0  0  0  0  0  0  0  0  0  0  0  0
    8.5196   11.7387   25.0665 C   0  0  0  0  0  0  0  0  0  0  0  0
    7.7122   12.3631   26.0344 C   0  0  0  0  0  0  0  0  0  0  0  0
    6.7524   11.5981   26.6865 C   0  0  0  0  0  0  0  0  0  0  0  0
    5.9841   12.1678   27.6248 F   0  0  0  0  0  0  0  0  0  0  0  0
    6.5889   10.2503   26.4041 C   0  0  0  0  0  0  0  0  0  0  0  0
    7.3885    9.6239   25.4442 C   0  0  0  0  0  0  0  0  0  0  0  0
    8.3436   10.3912   24.7757 C   0  0  0  0  0  0  0  0  0  0  0  0
  1  2  1  0
  2  3  1  0
  3  4  2  0
  4  5  1  0
  5  6  2  0
  5  7  1  0
  7  8  1  0
  8  9  1  0
  9 10  1  0
 10 11  2  0
 11 12  1  0
 12 13  1  0
 13 14  1  0
 14 15  1  0
 15 16  1  0
  4 17  1  0
 17 18  2  0
 18 19  1  0
 19 20  1  0
 19 21  2  0
 21 22  1  0
 22 23  2  0
 23  2  1  0
 13  9  2  0
 16 14  1  0
 23 17  1  0
M  END
>  <energy_score>  (1446) 
-0.045572

>  <inchikey>  (1446) 
HZIQFBNKXYYPSN-UHFFFAOYSA-N

>  <smiles>  (1446) 
Cn1nc(C(=O)NCc2ncoc2C2CC2)c2cc(F)ccc21

>  <ref_pdb>  (1446) 
A0514a

>  <alias>  (1446) 
HZIQFBNKXYYPSN-UHFFFAOYSA-N-P126-P126-P177-601502

>  <HIPPO Pose ID>  (1446) 
502868

>  <name>  (1446) 
HZIQFBNKXYYPSN-UHFFFAOYSA-N-P126-P126-P177-601502

>  <HIPPO Compound ID>  (1446) 
299252

>  <ref_mols>  (1446) 
A3403a,A2290a

>  <distance_score>  (1446) 
0.914626

>  <inspiration_score>  (1446) 
None

$$$$
IQEYXUPQQVWWDA-UHFFFAOYSA-N-P177-P126-P177-601502
     RDKit          3D

 23 25  0  0  0  0  0  0  0  0999 V2000
    9.0503    9.0206   23.1000 C   0  0  0  0  0  0  0  0  0  0  0  0
    9.0378   10.3599   23.6387 N   0  0  0  0  0  0  0  0  0  0  0  0
    9.8872   11.2624   23.1398 N   0  0  0  0  0  0  0  0  0  0  0  0
    9.7018   12.3688   23.8799 C   0  0  0  0  0  0  0  0  0  0  0  0
   10.5210   13.5737   23.6345 C   0  0  0  0  0  0  0  0  0  0  0  0
   10.6210   14.4242   24.4255 O   0  0  0  0  0  0  0  0  0  0  0  0
   11.1282   13.4431   22.2315 N   0  0  0  0  0  0  0  0  0  0  0  0
   11.9050   14.3641   21.4681 C   0  0  0  0  0  0  0  0  0  0  0  0
   10.9794   15.1973   20.6843 C   0  0  0  0  0  0  0  0  0  0  0  0
   10.7389   15.2197   19.3319 C   0  0  0  0  0  0  0  0  0  0  0  0
    9.8061   16.1789   19.0866 O   0  0  0  0  0  0  0  0  0  0  0  0
    9.5439   16.7204   20.3207 C   0  0  0  0  0  0  0  0  0  0  0  0
    8.5285   17.8023   20.3961 C   0  0  0  0  0  0  0  0  0  0  0  0
    8.2317   18.3249   19.1713 F   0  0  0  0  0  0  0  0  0  0  0  0
    8.9294   18.8426   21.1687 F   0  0  0  0  0  0  0  0  0  0  0  0
   10.1971   16.1340   21.3039 N   0  0  0  0  0  0  0  0  0  0  0  0
    8.6642   12.1721   24.8290 C   0  0  0  0  0  0  0  0  0  0  0  0
    8.0352   12.9581   25.8101 C   0  0  0  0  0  0  0  0  0  0  0  0
    7.0075   12.3877   26.5588 C   0  0  0  0  0  0  0  0  0  0  0  0
    6.4146   13.1159   27.5145 F   0  0  0  0  0  0  0  0  0  0  0  0
    6.5938   11.0782   26.3547 C   0  0  0  0  0  0  0  0  0  0  0  0
    7.2062   10.2851   25.3837 C   0  0  0  0  0  0  0  0  0  0  0  0
    8.2401   10.8561   24.6364 C   0  0  0  0  0  0  0  0  0  0  0  0
  1  2  1  0
  2  3  1  0
  3  4  2  0
  4  5  1  0
  5  6  2  0
  5  7  1  0
  7  8  1  0
  8  9  1  0
  9 10  2  0
 10 11  1  0
 11 12  1  0
 12 13  1  0
 13 14  1  0
 13 15  1  0
 12 16  2  0
  4 17  1  0
 17 18  2  0
 18 19  1  0
 19 20  1  0
 19 21  2  0
 21 22  1  0
 22 23  2  0
 23  2  1  0
 16  9  1  0
 23 17  1  0
M  END
>  <energy_score>  (1447) 
-25.054636

>  <inchikey>  (1447) 
IQEYXUPQQVWWDA-UHFFFAOYSA-N

>  <smiles>  (1447) 
Cn1nc(C(=O)NCc2coc(C(F)F)n2)c2cc(F)ccc21

>  <ref_pdb>  (1447) 
A0514a

>  <alias>  (1447) 
IQEYXUPQQVWWDA-UHFFFAOYSA-N-P177-P126-P177-601502

>  <HIPPO Pose ID>  (1447) 
502871

>  <name>  (1447) 
IQEYXUPQQVWWDA-UHFFFAOYSA-N-P177-P126-P177-601502

>  <HIPPO Compound ID>  (1447) 
299253

>  <ref_mols>  (1447) 
A3403a,A2290a

>  <distance_score>  (1447) 
0.643055

>  <inspiration_score>  (1447) 
None

$$$$
FQFPJRJSDBLNJV-UHFFFAOYSA-N-P126-P126-P177-601502
     RDKit          3D

 23 25  0  0  0  0  0  0  0  0999 V2000
    8.3785   18.2317   19.1512 C   0  0  0  0  0  0  0  0  0  0  0  0
    8.6191   17.5456   20.4865 C   0  0  0  0  0  0  0  0  0  0  0  0
    9.5471   16.3881   20.4598 C   0  0  0  0  0  0  0  0  0  0  0  0
   10.0458   15.7437   21.4934 N   0  0  0  0  0  0  0  0  0  0  0  0
   11.0111   14.9365   20.9681 C   0  0  0  0  0  0  0  0  0  0  0  0
   12.0005   14.2490   21.8237 C   0  0  0  0  0  0  0  0  0  0  0  0
   11.3108   13.2263   22.5284 N   0  0  0  0  0  0  0  0  0  0  0  0
   10.6670   13.2354   23.9154 C   0  0  0  0  0  0  0  0  0  0  0  0
   10.6619   14.0570   24.7403 O   0  0  0  0  0  0  0  0  0  0  0  0
    9.9008   11.9929   24.0532 C   0  0  0  0  0  0  0  0  0  0  0  0
   10.2008   10.9261   23.2942 N   0  0  0  0  0  0  0  0  0  0  0  0
    9.3642    9.9687   23.7139 N   0  0  0  0  0  0  0  0  0  0  0  0
    9.4448    8.6766   23.0783 C   0  0  0  0  0  0  0  0  0  0  0  0
    8.4935   10.3903   24.6893 C   0  0  0  0  0  0  0  0  0  0  0  0
    7.4747    9.7441   25.3955 C   0  0  0  0  0  0  0  0  0  0  0  0
    6.7297   10.4925   26.3112 C   0  0  0  0  0  0  0  0  0  0  0  0
    7.0020   11.8426   26.5106 C   0  0  0  0  0  0  0  0  0  0  0  0
    5.9746   12.8213   27.7606 Br  0  0  0  0  0  0  0  0  0  0  0  0
    8.0334   12.4812   25.8192 C   0  0  0  0  0  0  0  0  0  0  0  0
    8.7980   11.7324   24.9036 C   0  0  0  0  0  0  0  0  0  0  0  0
   10.9288   14.9946   19.6014 C   0  0  0  0  0  0  0  0  0  0  0  0
   11.7392   14.4306   18.5330 C   0  0  0  0  0  0  0  0  0  0  0  0
    9.9735   15.9071   19.2579 O   0  0  0  0  0  0  0  0  0  0  0  0
  1  2  1  0
  2  3  1  0
  3  4  2  0
  4  5  1  0
  5  6  1  0
  6  7  1  0
  7  8  1  0
  8  9  2  0
  8 10  1  0
 10 11  2  0
 11 12  1  0
 12 13  1  0
 12 14  1  0
 14 15  2  0
 15 16  1  0
 16 17  2  0
 17 18  1  0
 17 19  1  0
 19 20  2  0
  5 21  2  0
 21 22  1  0
 21 23  1  0
 23  3  1  0
 20 10  1  0
 20 14  1  0
M  END
>  <energy_score>  (1448) 
-27.030821

>  <inchikey>  (1448) 
FQFPJRJSDBLNJV-UHFFFAOYSA-N

>  <smiles>  (1448) 
CCc1nc(CNC(=O)c2nn(C)c3ccc(Br)cc23)c(C)o1

>  <ref_pdb>  (1448) 
A0514a

>  <alias>  (1448) 
FQFPJRJSDBLNJV-UHFFFAOYSA-N-P126-P126-P177-601502

>  <HIPPO Pose ID>  (1448) 
502874

>  <name>  (1448) 
FQFPJRJSDBLNJV-UHFFFAOYSA-N-P126-P126-P177-601502

>  <HIPPO Compound ID>  (1448) 
299255

>  <ref_mols>  (1448) 
A3403a,A2290a

>  <distance_score>  (1448) 
0.746124

>  <inspiration_score>  (1448) 
None

$$$$
VPXNOAMLZACMCT-UHFFFAOYSA-N-P126-P126-P177-601502
     RDKit          3D

 23 25  0  0  0  0  0  0  0  0999 V2000
   12.6678   13.7601   20.0655 C   0  0  0  0  0  0  0  0  0  0  0  0
   11.5209   14.2764   19.2246 C   0  0  0  0  0  0  0  0  0  0  0  0
   12.0753   14.8233   17.9758 C   0  0  0  0  0  0  0  0  0  0  0  0
   10.6422   15.1733   19.9360 C   0  0  0  0  0  0  0  0  0  0  0  0
    9.8052   15.9645   19.2062 O   0  0  0  0  0  0  0  0  0  0  0  0
    9.2281   16.7483   20.1407 C   0  0  0  0  0  0  0  0  0  0  0  0
    9.5392   16.4198   21.3629 N   0  0  0  0  0  0  0  0  0  0  0  0
   10.5216   15.4751   21.2608 C   0  0  0  0  0  0  0  0  0  0  0  0
   11.3441   14.9871   22.3961 C   0  0  0  0  0  0  0  0  0  0  0  0
   10.7670   13.8102   22.9434 N   0  0  0  0  0  0  0  0  0  0  0  0
   10.2546   13.5191   24.3488 C   0  0  0  0  0  0  0  0  0  0  0  0
   10.2888   14.1675   25.3140 O   0  0  0  0  0  0  0  0  0  0  0  0
    9.6307   12.1966   24.3289 C   0  0  0  0  0  0  0  0  0  0  0  0
   10.0400   11.2361   23.4799 N   0  0  0  0  0  0  0  0  0  0  0  0
    9.2927   10.1663   23.8147 N   0  0  0  0  0  0  0  0  0  0  0  0
    9.5254    8.9157   23.1291 C   0  0  0  0  0  0  0  0  0  0  0  0
    8.3695   10.4336   24.7982 C   0  0  0  0  0  0  0  0  0  0  0  0
    7.3979    9.6524   25.4275 C   0  0  0  0  0  0  0  0  0  0  0  0
    6.5794   10.2598   26.3835 C   0  0  0  0  0  0  0  0  0  0  0  0
    6.7405   11.6005   26.6999 C   0  0  0  0  0  0  0  0  0  0  0  0
    5.9518   12.1517   27.6325 F   0  0  0  0  0  0  0  0  0  0  0  0
    7.7210   12.3759   26.0920 C   0  0  0  0  0  0  0  0  0  0  0  0
    8.5512   11.7706   25.1313 C   0  0  0  0  0  0  0  0  0  0  0  0
  1  2  1  0
  2  3  1  0
  2  4  1  0
  4  5  1  0
  5  6  1  0
  6  7  2  0
  7  8  1  0
  8  9  1  0
  9 10  1  0
 10 11  1  0
 11 12  2  0
 11 13  1  0
 13 14  2  0
 14 15  1  0
 15 16  1  0
 15 17  1  0
 17 18  2  0
 18 19  1  0
 19 20  2  0
 20 21  1  0
 20 22  1  0
 22 23  2  0
  8  4  2  0
 23 13  1  0
 23 17  1  0
M  END
>  <energy_score>  (1449) 
-0.82386

>  <inchikey>  (1449) 
VPXNOAMLZACMCT-UHFFFAOYSA-N

>  <smiles>  (1449) 
CC(C)c1ocnc1CNC(=O)c1nn(C)c2ccc(F)cc12

>  <ref_pdb>  (1449) 
A0514a

>  <alias>  (1449) 
VPXNOAMLZACMCT-UHFFFAOYSA-N-P126-P126-P177-601502

>  <HIPPO Pose ID>  (1449) 
502880

>  <name>  (1449) 
VPXNOAMLZACMCT-UHFFFAOYSA-N-P126-P126-P177-601502

>  <HIPPO Compound ID>  (1449) 
299258

>  <ref_mols>  (1449) 
A3403a,A2290a

>  <distance_score>  (1449) 
1.015439

>  <inspiration_score>  (1449) 
None

$$$$
NNJMNMFGNKSCDG-UHFFFAOYSA-N-P177-P126-P177-601502
     RDKit          3D

 23 25  0  0  0  0  0  0  0  0999 V2000
    9.0608    9.0237   23.1160 C   0  0  0  0  0  0  0  0  0  0  0  0
    9.0085   10.3427   23.7021 N   0  0  0  0  0  0  0  0  0  0  0  0
    9.8508   11.2807   23.2564 N   0  0  0  0  0  0  0  0  0  0  0  0
    9.6085   12.3573   24.0237 C   0  0  0  0  0  0  0  0  0  0  0  0
   10.3773   13.5968   23.8393 C   0  0  0  0  0  0  0  0  0  0  0  0
   10.3789   14.4472   24.6347 O   0  0  0  0  0  0  0  0  0  0  0  0
   11.0282   13.5303   22.4567 N   0  0  0  0  0  0  0  0  0  0  0  0
   11.7335   14.5166   21.7216 C   0  0  0  0  0  0  0  0  0  0  0  0
   10.7570   15.2958   20.9343 C   0  0  0  0  0  0  0  0  0  0  0  0
    9.7989   16.0797   21.5252 N   0  0  0  0  0  0  0  0  0  0  0  0
    9.2240   16.6976   20.5223 C   0  0  0  0  0  0  0  0  0  0  0  0
    9.6805   16.3308   19.2911 O   0  0  0  0  0  0  0  0  0  0  0  0
   10.6629   15.4215   19.5707 C   0  0  0  0  0  0  0  0  0  0  0  0
   11.4384   14.8453   18.4745 C   0  0  0  0  0  0  0  0  0  0  0  0
   10.8418   13.7263   18.0042 F   0  0  0  0  0  0  0  0  0  0  0  0
   12.6492   14.4257   18.9268 F   0  0  0  0  0  0  0  0  0  0  0  0
    8.5549   12.1102   24.9359 C   0  0  0  0  0  0  0  0  0  0  0  0
    7.8807   12.8576   25.9174 C   0  0  0  0  0  0  0  0  0  0  0  0
    6.8541   12.2427   26.6277 C   0  0  0  0  0  0  0  0  0  0  0  0
    6.2170   12.9293   27.5859 F   0  0  0  0  0  0  0  0  0  0  0  0
    6.4871   10.9273   26.3837 C   0  0  0  0  0  0  0  0  0  0  0  0
    7.1443   10.1775   25.4071 C   0  0  0  0  0  0  0  0  0  0  0  0
    8.1763   10.7907   24.6963 C   0  0  0  0  0  0  0  0  0  0  0  0
  1  2  1  0
  2  3  1  0
  3  4  2  0
  4  5  1  0
  5  6  2  0
  5  7  1  0
  7  8  1  0
  8  9  1  0
  9 10  1  0
 10 11  2  0
 11 12  1  0
 12 13  1  0
 13 14  1  0
 14 15  1  0
 14 16  1  0
  4 17  1  0
 17 18  2  0
 18 19  1  0
 19 20  1  0
 19 21  2  0
 21 22  1  0
 22 23  2  0
 23  2  1  0
 13  9  2  0
 23 17  1  0
M  END
>  <energy_score>  (1450) 
-35.578479

>  <inchikey>  (1450) 
NNJMNMFGNKSCDG-UHFFFAOYSA-N

>  <smiles>  (1450) 
Cn1nc(C(=O)NCc2ncoc2C(F)F)c2cc(F)ccc21

>  <ref_pdb>  (1450) 
A0514a

>  <alias>  (1450) 
NNJMNMFGNKSCDG-UHFFFAOYSA-N-P177-P126-P177-601502

>  <HIPPO Pose ID>  (1450) 
502885

>  <name>  (1450) 
NNJMNMFGNKSCDG-UHFFFAOYSA-N-P177-P126-P177-601502

>  <HIPPO Compound ID>  (1450) 
299260

>  <ref_mols>  (1450) 
A3403a,A2290a

>  <distance_score>  (1450) 
0.744346

>  <inspiration_score>  (1450) 
None

$$$$
AAAFLQVTAXPMKX-UHFFFAOYSA-N-P126-P126-P177-601502
     RDKit          3D

 24 26  0  0  0  0  0  0  0  0999 V2000
    8.8917   17.4345   18.0787 C   0  0  0  0  0  0  0  0  0  0  0  0
    8.7830   18.0618   19.3784 N   0  0  0  0  0  0  0  0  0  0  0  0
    7.5917   18.8561   19.5487 C   0  0  0  0  0  0  0  0  0  0  0  0
    8.9033   17.1999   20.5640 C   0  0  0  0  0  0  0  0  0  0  0  0
    9.8771   16.0827   20.5335 C   0  0  0  0  0  0  0  0  0  0  0  0
   10.5181   15.5539   21.5513 N   0  0  0  0  0  0  0  0  0  0  0  0
   11.3842   14.6694   20.9724 C   0  0  0  0  0  0  0  0  0  0  0  0
   12.2937   13.8754   21.8044 C   0  0  0  0  0  0  0  0  0  0  0  0
   11.4614   12.9913   22.5454 N   0  0  0  0  0  0  0  0  0  0  0  0
   10.8042   13.1592   23.9159 C   0  0  0  0  0  0  0  0  0  0  0  0
   10.8974   14.0164   24.6985 O   0  0  0  0  0  0  0  0  0  0  0  0
    9.9200   12.0038   24.1064 C   0  0  0  0  0  0  0  0  0  0  0  0
   10.1392   10.8787   23.4023 N   0  0  0  0  0  0  0  0  0  0  0  0
    9.2470   10.0081   23.8845 N   0  0  0  0  0  0  0  0  0  0  0  0
    9.3419    8.6347   23.4661 C   0  0  0  0  0  0  0  0  0  0  0  0
    8.3921   10.5448   24.8157 C   0  0  0  0  0  0  0  0  0  0  0  0
    7.3235   10.0037   25.5438 C   0  0  0  0  0  0  0  0  0  0  0  0
    6.6418   10.8509   26.4196 C   0  0  0  0  0  0  0  0  0  0  0  0
    7.0216   12.1799   26.5550 C   0  0  0  0  0  0  0  0  0  0  0  0
    6.3584   12.9612   27.4183 F   0  0  0  0  0  0  0  0  0  0  0  0
    8.0917   12.7136   25.8394 C   0  0  0  0  0  0  0  0  0  0  0  0
    8.7962   11.8714   24.9606 C   0  0  0  0  0  0  0  0  0  0  0  0
   11.1818   14.6452   19.6169 C   0  0  0  0  0  0  0  0  0  0  0  0
   10.1764   15.5025   19.3373 O   0  0  0  0  0  0  0  0  0  0  0  0
  1  2  1  0
  2  3  1  0
  2  4  1  0
  4  5  1  0
  5  6  2  0
  6  7  1  0
  7  8  1  0
  8  9  1  0
  9 10  1  0
 10 11  2  0
 10 12  1  0
 12 13  2  0
 13 14  1  0
 14 15  1  0
 14 16  1  0
 16 17  2  0
 17 18  1  0
 18 19  2  0
 19 20  1  0
 19 21  1  0
 21 22  2  0
  7 23  2  0
 23 24  1  0
 24  5  1  0
 22 12  1  0
 22 16  1  0
M  END
>  <energy_score>  (1451) 
-28.481988

>  <inchikey>  (1451) 
AAAFLQVTAXPMKX-UHFFFAOYSA-N

>  <smiles>  (1451) 
CN(C)Cc1nc(CNC(=O)c2nn(C)c3ccc(F)cc23)co1

>  <ref_pdb>  (1451) 
A0514a

>  <alias>  (1451) 
AAAFLQVTAXPMKX-UHFFFAOYSA-N-P126-P126-P177-601502

>  <HIPPO Pose ID>  (1451) 
502888

>  <name>  (1451) 
AAAFLQVTAXPMKX-UHFFFAOYSA-N-P126-P126-P177-601502

>  <HIPPO Compound ID>  (1451) 
299262

>  <ref_mols>  (1451) 
A3403a,A2290a

>  <distance_score>  (1451) 
0.836255

>  <inspiration_score>  (1451) 
None

$$$$
OMKLADFEHHXZKJ-UHFFFAOYSA-N-P126-P126-P177-601502
     RDKit          3D

 24 26  0  0  0  0  0  0  0  0999 V2000
    9.4108    8.6425   23.1065 C   0  0  0  0  0  0  0  0  0  0  0  0
    9.3707    9.9068   23.7983 N   0  0  0  0  0  0  0  0  0  0  0  0
   10.2437   10.8518   23.4215 N   0  0  0  0  0  0  0  0  0  0  0  0
    9.9339   11.9133   24.1825 C   0  0  0  0  0  0  0  0  0  0  0  0
   10.5860   13.2018   23.9710 C   0  0  0  0  0  0  0  0  0  0  0  0
   10.6812   14.0065   24.8071 O   0  0  0  0  0  0  0  0  0  0  0  0
   10.9704   13.2572   22.4943 N   0  0  0  0  0  0  0  0  0  0  0  0
   11.4620   14.3317   21.7087 C   0  0  0  0  0  0  0  0  0  0  0  0
   10.2326   15.0907   21.3122 C   0  0  0  0  0  0  0  0  0  0  0  0
    9.0635   14.9459   22.0586 N   0  0  0  0  0  0  0  0  0  0  0  0
    8.2565   15.8593   21.5774 C   0  0  0  0  0  0  0  0  0  0  0  0
    8.7758   16.5796   20.5668 O   0  0  0  0  0  0  0  0  0  0  0  0
    9.8998   15.8831   20.2326 C   0  0  0  0  0  0  0  0  0  0  0  0
   10.1649   15.8648   18.7684 C   0  0  0  0  0  0  0  0  0  0  0  0
    8.8529   15.3595   18.1706 C   0  0  0  0  0  0  0  0  0  0  0  0
   11.3943   14.9778   18.4956 C   0  0  0  0  0  0  0  0  0  0  0  0
   10.1817   17.2381   18.1269 C   0  0  0  0  0  0  0  0  0  0  0  0
    8.8184   11.6578   25.0149 C   0  0  0  0  0  0  0  0  0  0  0  0
    8.0330   12.4171   25.9025 C   0  0  0  0  0  0  0  0  0  0  0  0
    6.9723   11.7920   26.5509 C   0  0  0  0  0  0  0  0  0  0  0  0
    6.2364   12.4894   27.4270 F   0  0  0  0  0  0  0  0  0  0  0  0
    6.6747   10.4552   26.3296 C   0  0  0  0  0  0  0  0  0  0  0  0
    7.4290    9.7008   25.4270 C   0  0  0  0  0  0  0  0  0  0  0  0
    8.4896   10.3280   24.7662 C   0  0  0  0  0  0  0  0  0  0  0  0
  1  2  1  0
  2  3  1  0
  3  4  2  0
  4  5  1  0
  5  6  2  0
  5  7  1  0
  7  8  1  0
  8  9  1  0
  9 10  1  0
 10 11  2  0
 11 12  1  0
 12 13  1  0
 13 14  1  0
 14 15  1  0
 14 16  1  0
 14 17  1  0
  4 18  1  0
 18 19  2  0
 19 20  1  0
 20 21  1  0
 20 22  2  0
 22 23  1  0
 23 24  2  0
 24  2  1  0
 13  9  2  0
 24 18  1  0
M  END
>  <energy_score>  (1452) 
-9.77872

>  <inchikey>  (1452) 
OMKLADFEHHXZKJ-UHFFFAOYSA-N

>  <smiles>  (1452) 
Cn1nc(C(=O)NCc2ncoc2C(C)(C)C)c2cc(F)ccc21

>  <ref_pdb>  (1452) 
A0514a

>  <alias>  (1452) 
OMKLADFEHHXZKJ-UHFFFAOYSA-N-P126-P126-P177-601502

>  <HIPPO Pose ID>  (1452) 
502894

>  <name>  (1452) 
OMKLADFEHHXZKJ-UHFFFAOYSA-N-P126-P126-P177-601502

>  <HIPPO Compound ID>  (1452) 
299265

>  <ref_mols>  (1452) 
A3403a,A2290a

>  <distance_score>  (1452) 
1.197261

>  <inspiration_score>  (1452) 
None

$$$$
TWQUCOYSYRVAAK-UHFFFAOYSA-N-P177-P126-P177-601502
     RDKit          3D

 24 26  0  0  0  0  0  0  0  0999 V2000
    9.0527    9.0143   23.0956 C   0  0  0  0  0  0  0  0  0  0  0  0
    9.0522   10.3561   23.6282 N   0  0  0  0  0  0  0  0  0  0  0  0
    9.9099   11.2453   23.1246 N   0  0  0  0  0  0  0  0  0  0  0  0
    9.7436   12.3579   23.8594 C   0  0  0  0  0  0  0  0  0  0  0  0
   10.5950   13.5418   23.6108 C   0  0  0  0  0  0  0  0  0  0  0  0
   10.7161   14.3939   24.3976 O   0  0  0  0  0  0  0  0  0  0  0  0
   11.2088   13.3831   22.2123 N   0  0  0  0  0  0  0  0  0  0  0  0
   12.0214   14.2755   21.4482 C   0  0  0  0  0  0  0  0  0  0  0  0
   11.1249   15.1587   20.6943 C   0  0  0  0  0  0  0  0  0  0  0  0
   10.8085   15.1885   19.3575 C   0  0  0  0  0  0  0  0  0  0  0  0
    9.8530   16.1410   19.1743 O   0  0  0  0  0  0  0  0  0  0  0  0
    9.6566   16.6635   20.4311 C   0  0  0  0  0  0  0  0  0  0  0  0
    8.5165   17.5892   20.6312 C   0  0  0  0  0  0  0  0  0  0  0  0
    8.8236   18.6671   21.3888 F   0  0  0  0  0  0  0  0  0  0  0  0
    7.5440   16.8748   21.2547 F   0  0  0  0  0  0  0  0  0  0  0  0
    8.0160   18.0673   19.4600 F   0  0  0  0  0  0  0  0  0  0  0  0
   10.4210   16.1180   21.3568 N   0  0  0  0  0  0  0  0  0  0  0  0
    8.6999   12.1801   24.8067 C   0  0  0  0  0  0  0  0  0  0  0  0
    8.0795   12.9783   25.7832 C   0  0  0  0  0  0  0  0  0  0  0  0
    7.0485   12.4217   26.5381 C   0  0  0  0  0  0  0  0  0  0  0  0
    6.4649   13.1607   27.4912 F   0  0  0  0  0  0  0  0  0  0  0  0
    6.6231   11.1137   26.3459 C   0  0  0  0  0  0  0  0  0  0  0  0
    7.2253   10.3080   25.3791 C   0  0  0  0  0  0  0  0  0  0  0  0
    8.2612   10.8663   24.6241 C   0  0  0  0  0  0  0  0  0  0  0  0
  1  2  1  0
  2  3  1  0
  3  4  2  0
  4  5  1  0
  5  6  2  0
  5  7  1  0
  7  8  1  0
  8  9  1  0
  9 10  2  0
 10 11  1  0
 11 12  1  0
 12 13  1  0
 13 14  1  0
 13 15  1  0
 13 16  1  0
 12 17  2  0
  4 18  1  0
 18 19  2  0
 19 20  1  0
 20 21  1  0
 20 22  2  0
 22 23  1  0
 23 24  2  0
 24  2  1  0
 17  9  1  0
 24 18  1  0
M  END
>  <energy_score>  (1453) 
-8.443044

>  <inchikey>  (1453) 
TWQUCOYSYRVAAK-UHFFFAOYSA-N

>  <smiles>  (1453) 
Cn1nc(C(=O)NCc2coc(C(F)(F)F)n2)c2cc(F)ccc21

>  <ref_pdb>  (1453) 
A0514a

>  <alias>  (1453) 
TWQUCOYSYRVAAK-UHFFFAOYSA-N-P177-P126-P177-601502

>  <HIPPO Pose ID>  (1453) 
502899

>  <name>  (1453) 
TWQUCOYSYRVAAK-UHFFFAOYSA-N-P177-P126-P177-601502

>  <HIPPO Compound ID>  (1453) 
299267

>  <ref_mols>  (1453) 
A3403a,A2290a

>  <distance_score>  (1453) 
0.642318

>  <inspiration_score>  (1453) 
None

$$$$
ZAFDCNLACOFECS-UHFFFAOYSA-N-P177-P126-P177-601502
     RDKit          3D

 24 26  0  0  0  0  0  0  0  0999 V2000
    9.0505    9.0197   23.0934 C   0  0  0  0  0  0  0  0  0  0  0  0
    9.0531   10.3625   23.6233 N   0  0  0  0  0  0  0  0  0  0  0  0
    9.9118   11.2517   23.1184 N   0  0  0  0  0  0  0  0  0  0  0  0
    9.7484   12.3630   23.8562 C   0  0  0  0  0  0  0  0  0  0  0  0
   10.5951   13.5518   23.6060 C   0  0  0  0  0  0  0  0  0  0  0  0
   10.6558   14.4367   24.3634 O   0  0  0  0  0  0  0  0  0  0  0  0
   11.2500   13.3735   22.2276 N   0  0  0  0  0  0  0  0  0  0  0  0
   12.0372   14.2774   21.4493 C   0  0  0  0  0  0  0  0  0  0  0  0
   11.1263   15.1503   20.7000 C   0  0  0  0  0  0  0  0  0  0  0  0
   10.8084   15.1802   19.3634 C   0  0  0  0  0  0  0  0  0  0  0  0
    9.8516   16.1314   19.1810 O   0  0  0  0  0  0  0  0  0  0  0  0
    9.6551   16.6531   20.4383 C   0  0  0  0  0  0  0  0  0  0  0  0
    8.5168   17.5817   20.6378 C   0  0  0  0  0  0  0  0  0  0  0  0
    7.5419   16.8708   21.2609 F   0  0  0  0  0  0  0  0  0  0  0  0
    8.8264   18.6602   21.3934 F   0  0  0  0  0  0  0  0  0  0  0  0
    8.0188   18.0601   19.4654 F   0  0  0  0  0  0  0  0  0  0  0  0
   10.4200   16.1069   21.3633 N   0  0  0  0  0  0  0  0  0  0  0  0
    8.7051   12.1837   24.8052 C   0  0  0  0  0  0  0  0  0  0  0  0
    8.0858   12.9813   25.7848 C   0  0  0  0  0  0  0  0  0  0  0  0
    7.0504   12.4275   26.5434 C   0  0  0  0  0  0  0  0  0  0  0  0
    6.2272   13.4731   27.8880 Br  0  0  0  0  0  0  0  0  0  0  0  0
    6.6238   11.1177   26.3417 C   0  0  0  0  0  0  0  0  0  0  0  0
    7.2268   10.3155   25.3716 C   0  0  0  0  0  0  0  0  0  0  0  0
    8.2646   10.8724   24.6202 C   0  0  0  0  0  0  0  0  0  0  0  0
  1  2  1  0
  2  3  1  0
  3  4  2  0
  4  5  1  0
  5  6  2  0
  5  7  1  0
  7  8  1  0
  8  9  1  0
  9 10  2  0
 10 11  1  0
 11 12  1  0
 12 13  1  0
 13 14  1  0
 13 15  1  0
 13 16  1  0
 12 17  2  0
  4 18  1  0
 18 19  2  0
 19 20  1  0
 20 21  1  0
 20 22  2  0
 22 23  1  0
 23 24  2  0
 24  2  1  0
 17  9  1  0
 24 18  1  0
M  END
>  <energy_score>  (1454) 
-4.32809

>  <inchikey>  (1454) 
ZAFDCNLACOFECS-UHFFFAOYSA-N

>  <smiles>  (1454) 
Cn1nc(C(=O)NCc2coc(C(F)(F)F)n2)c2cc(Br)ccc21

>  <ref_pdb>  (1454) 
A0514a

>  <alias>  (1454) 
ZAFDCNLACOFECS-UHFFFAOYSA-N-P177-P126-P177-601502

>  <HIPPO Pose ID>  (1454) 
502901

>  <name>  (1454) 
ZAFDCNLACOFECS-UHFFFAOYSA-N-P177-P126-P177-601502

>  <HIPPO Compound ID>  (1454) 
299268

>  <ref_mols>  (1454) 
A3403a,A2290a

>  <distance_score>  (1454) 
0.64368

>  <inspiration_score>  (1454) 
None

$$$$
KEFWWFCYPKJAPC-UHFFFAOYSA-N-P177-P126-P177-601502
     RDKit          3D

 24 26  0  0  0  0  0  0  0  0999 V2000
   11.5348   14.7086   18.3601 C   0  0  0  0  0  0  0  0  0  0  0  0
   10.9197   15.2234   19.5720 C   0  0  0  0  0  0  0  0  0  0  0  0
    9.8383   16.0393   19.4278 O   0  0  0  0  0  0  0  0  0  0  0  0
    9.5308   16.3451   20.7150 C   0  0  0  0  0  0  0  0  0  0  0  0
    8.3441   17.1488   20.9938 C   0  0  0  0  0  0  0  0  0  0  0  0
    8.7507   18.5931   21.0762 C   0  0  0  0  0  0  0  0  0  0  0  0
    7.5687   16.4847   22.1448 C   0  0  0  0  0  0  0  0  0  0  0  0
   10.3340   15.8533   21.6232 N   0  0  0  0  0  0  0  0  0  0  0  0
   11.1715   15.0686   20.9123 C   0  0  0  0  0  0  0  0  0  0  0  0
   12.0859   14.1775   21.6239 C   0  0  0  0  0  0  0  0  0  0  0  0
   11.2672   13.2886   22.3799 N   0  0  0  0  0  0  0  0  0  0  0  0
   10.6402   13.4498   23.7694 C   0  0  0  0  0  0  0  0  0  0  0  0
   10.7532   14.3031   24.5555 O   0  0  0  0  0  0  0  0  0  0  0  0
    9.7540   12.2898   23.9791 C   0  0  0  0  0  0  0  0  0  0  0  0
    9.9056   11.1848   23.2277 N   0  0  0  0  0  0  0  0  0  0  0  0
    9.0128   10.3162   23.7047 N   0  0  0  0  0  0  0  0  0  0  0  0
    8.9898    8.9830   23.1566 C   0  0  0  0  0  0  0  0  0  0  0  0
    8.2162   10.8360   24.6896 C   0  0  0  0  0  0  0  0  0  0  0  0
    7.1526   10.3000   25.4182 C   0  0  0  0  0  0  0  0  0  0  0  0
    6.5488   11.1107   26.3811 C   0  0  0  0  0  0  0  0  0  0  0  0
    6.9975   12.4103   26.5967 C   0  0  0  0  0  0  0  0  0  0  0  0
    6.1687   13.4696   27.9267 Br  0  0  0  0  0  0  0  0  0  0  0  0
    8.0604   12.9432   25.8632 C   0  0  0  0  0  0  0  0  0  0  0  0
    8.6822   12.1344   24.8954 C   0  0  0  0  0  0  0  0  0  0  0  0
  1  2  1  0
  2  3  1  0
  3  4  1  0
  4  5  1  0
  5  6  1  0
  5  7  1  0
  4  8  2  0
  8  9  1  0
  9 10  1  0
 10 11  1  0
 11 12  1  0
 12 13  2  0
 12 14  1  0
 14 15  2  0
 15 16  1  0
 16 17  1  0
 16 18  1  0
 18 19  2  0
 19 20  1  0
 20 21  2  0
 21 22  1  0
 21 23  1  0
 23 24  2  0
  9  2  2  0
 24 14  1  0
 24 18  1  0
M  END
>  <energy_score>  (1455) 
-8.517688

>  <inchikey>  (1455) 
KEFWWFCYPKJAPC-UHFFFAOYSA-N

>  <smiles>  (1455) 
Cc1oc(C(C)C)nc1CNC(=O)c1nn(C)c2ccc(Br)cc12

>  <ref_pdb>  (1455) 
A0514a

>  <alias>  (1455) 
KEFWWFCYPKJAPC-UHFFFAOYSA-N-P177-P126-P177-601502

>  <HIPPO Pose ID>  (1455) 
502903

>  <name>  (1455) 
KEFWWFCYPKJAPC-UHFFFAOYSA-N-P177-P126-P177-601502

>  <HIPPO Compound ID>  (1455) 
299269

>  <ref_mols>  (1455) 
A3403a,A2290a

>  <distance_score>  (1455) 
0.769137

>  <inspiration_score>  (1455) 
None

$$$$
UDERYSJPOTXBRN-UHFFFAOYSA-N-P177-P126-P177-601502
     RDKit          3D

 24 26  0  0  0  0  0  0  0  0999 V2000
    8.9947    8.9561   23.1212 C   0  0  0  0  0  0  0  0  0  0  0  0
    8.9845   10.2556   23.7466 N   0  0  0  0  0  0  0  0  0  0  0  0
    9.8923   11.1520   23.3562 N   0  0  0  0  0  0  0  0  0  0  0  0
    9.7079   12.2001   24.1746 C   0  0  0  0  0  0  0  0  0  0  0  0
   10.5973   13.3568   24.1043 C   0  0  0  0  0  0  0  0  0  0  0  0
   10.7280   14.1011   24.9897 O   0  0  0  0  0  0  0  0  0  0  0  0
   11.1631   13.3945   22.6869 N   0  0  0  0  0  0  0  0  0  0  0  0
   11.9237   14.3864   22.0273 C   0  0  0  0  0  0  0  0  0  0  0  0
   10.9732   15.4331   21.5914 C   0  0  0  0  0  0  0  0  0  0  0  0
    9.8671   15.7619   22.3561 N   0  0  0  0  0  0  0  0  0  0  0  0
    9.2436   16.6796   21.6513 C   0  0  0  0  0  0  0  0  0  0  0  0
    9.8475   16.9820   20.4886 O   0  0  0  0  0  0  0  0  0  0  0  0
   10.7407   15.9503   20.3367 C   0  0  0  0  0  0  0  0  0  0  0  0
   10.7034   15.3223   18.9961 C   0  0  0  0  0  0  0  0  0  0  0  0
    9.2905   15.5805   18.5398 C   0  0  0  0  0  0  0  0  0  0  0  0
   11.7792   15.5165   17.9939 C   0  0  0  0  0  0  0  0  0  0  0  0
   10.8266   13.8657   19.1992 C   0  0  0  0  0  0  0  0  0  0  0  0
    8.5956   12.0077   25.0225 C   0  0  0  0  0  0  0  0  0  0  0  0
    7.9338   12.7748   25.9981 C   0  0  0  0  0  0  0  0  0  0  0  0
    6.8557   12.2050   26.6739 C   0  0  0  0  0  0  0  0  0  0  0  0
    5.9716   13.1959   28.0198 Br  0  0  0  0  0  0  0  0  0  0  0  0
    6.4385   10.9086   26.3949 C   0  0  0  0  0  0  0  0  0  0  0  0
    7.0820   10.1480   25.4158 C   0  0  0  0  0  0  0  0  0  0  0  0
    8.1534   10.7200   24.7344 C   0  0  0  0  0  0  0  0  0  0  0  0
  1  2  1  0
  2  3  1  0
  3  4  2  0
  4  5  1  0
  5  6  2  0
  5  7  1  0
  7  8  1  0
  8  9  1  0
  9 10  1  0
 10 11  2  0
 11 12  1  0
 12 13  1  0
 13 14  1  0
 14 15  1  0
 14 16  1  0
 14 17  1  0
  4 18  1  0
 18 19  2  0
 19 20  1  0
 20 21  1  0
 20 22  2  0
 22 23  1  0
 23 24  2  0
 24  2  1  0
 13  9  2  0
 24 18  1  0
M  END
>  <energy_score>  (1456) 
-6.326442

>  <inchikey>  (1456) 
UDERYSJPOTXBRN-UHFFFAOYSA-N

>  <smiles>  (1456) 
Cn1nc(C(=O)NCc2ncoc2C(C)(C)C)c2cc(Br)ccc21

>  <ref_pdb>  (1456) 
A0514a

>  <alias>  (1456) 
UDERYSJPOTXBRN-UHFFFAOYSA-N-P177-P126-P177-601502

>  <HIPPO Pose ID>  (1456) 
502905

>  <name>  (1456) 
UDERYSJPOTXBRN-UHFFFAOYSA-N-P177-P126-P177-601502

>  <HIPPO Compound ID>  (1456) 
299270

>  <ref_mols>  (1456) 
A3403a,A2290a

>  <distance_score>  (1456) 
1.083692

>  <inspiration_score>  (1456) 
None

$$$$
HZGMGOIBAMJEDY-UHFFFAOYSA-N-P177-P126-P177-601502
     RDKit          3D

 24 26  0  0  0  0  0  0  0  0999 V2000
    9.0963    9.0444   23.0991 C   0  0  0  0  0  0  0  0  0  0  0  0
    9.0192   10.3597   23.6916 N   0  0  0  0  0  0  0  0  0  0  0  0
    9.8450   11.3198   23.2551 N   0  0  0  0  0  0  0  0  0  0  0  0
    9.5781   12.3816   24.0359 C   0  0  0  0  0  0  0  0  0  0  0  0
   10.3200   13.6407   23.8786 C   0  0  0  0  0  0  0  0  0  0  0  0
   10.2893   14.4765   24.6884 O   0  0  0  0  0  0  0  0  0  0  0  0
   10.9966   13.6124   22.5076 N   0  0  0  0  0  0  0  0  0  0  0  0
   11.6936   14.6258   21.8029 C   0  0  0  0  0  0  0  0  0  0  0  0
   10.7372   15.3455   20.9409 C   0  0  0  0  0  0  0  0  0  0  0  0
    9.7746   16.1702   21.4622 N   0  0  0  0  0  0  0  0  0  0  0  0
    9.2276   16.7327   20.4134 C   0  0  0  0  0  0  0  0  0  0  0  0
    9.6988   16.2806   19.2170 O   0  0  0  0  0  0  0  0  0  0  0  0
   10.6729   15.3848   19.5706 C   0  0  0  0  0  0  0  0  0  0  0  0
   11.4659   14.7228   18.5386 C   0  0  0  0  0  0  0  0  0  0  0  0
   12.5675   14.1366   19.0736 F   0  0  0  0  0  0  0  0  0  0  0  0
   10.7861   13.7208   17.9448 F   0  0  0  0  0  0  0  0  0  0  0  0
   11.9157   15.5587   17.5833 F   0  0  0  0  0  0  0  0  0  0  0  0
    8.5270   12.1043   24.9421 C   0  0  0  0  0  0  0  0  0  0  0  0
    7.8360   12.8290   25.9308 C   0  0  0  0  0  0  0  0  0  0  0  0
    6.8168   12.1898   26.6374 C   0  0  0  0  0  0  0  0  0  0  0  0
    5.8931   13.1301   27.9934 Br  0  0  0  0  0  0  0  0  0  0  0  0
    6.4802   10.8670   26.3739 C   0  0  0  0  0  0  0  0  0  0  0  0
    7.1570   10.1429   25.3902 C   0  0  0  0  0  0  0  0  0  0  0  0
    8.1764   10.7822   24.6875 C   0  0  0  0  0  0  0  0  0  0  0  0
  1  2  1  0
  2  3  1  0
  3  4  2  0
  4  5  1  0
  5  6  2  0
  5  7  1  0
  7  8  1  0
  8  9  1  0
  9 10  1  0
 10 11  2  0
 11 12  1  0
 12 13  1  0
 13 14  1  0
 14 15  1  0
 14 16  1  0
 14 17  1  0
  4 18  1  0
 18 19  2  0
 19 20  1  0
 20 21  1  0
 20 22  2  0
 22 23  1  0
 23 24  2  0
 24  2  1  0
 13  9  2  0
 24 18  1  0
M  END
>  <energy_score>  (1457) 
-34.408464

>  <inchikey>  (1457) 
HZGMGOIBAMJEDY-UHFFFAOYSA-N

>  <smiles>  (1457) 
Cn1nc(C(=O)NCc2ncoc2C(F)(F)F)c2cc(Br)ccc21

>  <ref_pdb>  (1457) 
A0514a

>  <alias>  (1457) 
HZGMGOIBAMJEDY-UHFFFAOYSA-N-P177-P126-P177-601502

>  <HIPPO Pose ID>  (1457) 
502907

>  <name>  (1457) 
HZGMGOIBAMJEDY-UHFFFAOYSA-N-P177-P126-P177-601502

>  <HIPPO Compound ID>  (1457) 
299271

>  <ref_mols>  (1457) 
A3403a,A2290a

>  <distance_score>  (1457) 
0.74686

>  <inspiration_score>  (1457) 
None

$$$$
YWVVPMBAVUTYBJ-UHFFFAOYSA-N-P126-P126-P177-601502
     RDKit          3D

 24 27  0  0  0  0  0  0  0  0999 V2000
   11.7111   14.3995   18.5921 C   0  0  0  0  0  0  0  0  0  0  0  0
   10.8239   14.9726   19.5950 C   0  0  0  0  0  0  0  0  0  0  0  0
    9.8601   15.8226   19.1526 O   0  0  0  0  0  0  0  0  0  0  0  0
    9.3841   16.4069   20.2936 C   0  0  0  0  0  0  0  0  0  0  0  0
    8.8200   17.8570   20.3004 C   0  0  0  0  0  0  0  0  0  0  0  0
    7.6265   18.5398   19.7506 C   0  0  0  0  0  0  0  0  0  0  0  0
    8.7796   18.4172   18.8646 C   0  0  0  0  0  0  0  0  0  0  0  0
    9.8162   15.8184   21.3891 N   0  0  0  0  0  0  0  0  0  0  0  0
   10.8267   14.9946   20.9638 C   0  0  0  0  0  0  0  0  0  0  0  0
   11.8058   14.4011   21.8985 C   0  0  0  0  0  0  0  0  0  0  0  0
   11.1484   13.3450   22.5802 N   0  0  0  0  0  0  0  0  0  0  0  0
   10.5695   13.2832   23.9918 C   0  0  0  0  0  0  0  0  0  0  0  0
   10.6034   14.0614   24.8566 O   0  0  0  0  0  0  0  0  0  0  0  0
    9.8446   12.0174   24.1103 C   0  0  0  0  0  0  0  0  0  0  0  0
   10.1796   10.9685   23.3405 N   0  0  0  0  0  0  0  0  0  0  0  0
    9.3531    9.9887   23.7340 N   0  0  0  0  0  0  0  0  0  0  0  0
    9.4587    8.7075   23.0784 C   0  0  0  0  0  0  0  0  0  0  0  0
    8.4691   10.3792   24.7116 C   0  0  0  0  0  0  0  0  0  0  0  0
    7.4573    9.7054   25.4002 C   0  0  0  0  0  0  0  0  0  0  0  0
    6.6924   10.4251   26.3225 C   0  0  0  0  0  0  0  0  0  0  0  0
    6.9381   11.7763   26.5454 C   0  0  0  0  0  0  0  0  0  0  0  0
    5.8825   12.7165   27.8014 Br  0  0  0  0  0  0  0  0  0  0  0  0
    7.9621   12.4436   25.8718 C   0  0  0  0  0  0  0  0  0  0  0  0
    8.7459   11.7220   24.9509 C   0  0  0  0  0  0  0  0  0  0  0  0
  1  2  1  0
  2  3  1  0
  3  4  1  0
  4  5  1  0
  5  6  1  0
  6  7  1  0
  4  8  2  0
  8  9  1  0
  9 10  1  0
 10 11  1  0
 11 12  1  0
 12 13  2  0
 12 14  1  0
 14 15  2  0
 15 16  1  0
 16 17  1  0
 16 18  1  0
 18 19  2  0
 19 20  1  0
 20 21  2  0
 21 22  1  0
 21 23  1  0
 23 24  2  0
  9  2  2  0
 24 14  1  0
  7  5  1  0
 24 18  1  0
M  END
>  <energy_score>  (1458) 
-3.4573

>  <inchikey>  (1458) 
YWVVPMBAVUTYBJ-UHFFFAOYSA-N

>  <smiles>  (1458) 
Cc1oc(C2CC2)nc1CNC(=O)c1nn(C)c2ccc(Br)cc12

>  <ref_pdb>  (1458) 
A0514a

>  <alias>  (1458) 
YWVVPMBAVUTYBJ-UHFFFAOYSA-N-P126-P126-P177-601502

>  <HIPPO Pose ID>  (1458) 
502910

>  <name>  (1458) 
YWVVPMBAVUTYBJ-UHFFFAOYSA-N-P126-P126-P177-601502

>  <HIPPO Compound ID>  (1458) 
299273

>  <ref_mols>  (1458) 
A3403a,A2290a

>  <distance_score>  (1458) 
0.728686

>  <inspiration_score>  (1458) 
None

$$$$
LJGAGAIBBGNHNG-UHFFFAOYSA-N-P177-P126-P177-601502
     RDKit          3D

 24 26  0  0  0  0  0  0  0  0999 V2000
    8.7528   18.6360   21.2004 C   0  0  0  0  0  0  0  0  0  0  0  0
    8.6260   17.7785   19.9919 C   0  0  0  0  0  0  0  0  0  0  0  0
    9.5071   16.6010   20.0731 C   0  0  0  0  0  0  0  0  0  0  0  0
   10.0803   16.0718   21.1307 N   0  0  0  0  0  0  0  0  0  0  0  0
   10.9400   15.1412   20.6115 C   0  0  0  0  0  0  0  0  0  0  0  0
   11.8712   14.4059   21.4829 C   0  0  0  0  0  0  0  0  0  0  0  0
   11.1297   13.4620   22.2517 N   0  0  0  0  0  0  0  0  0  0  0  0
   10.4687   13.5976   23.6291 C   0  0  0  0  0  0  0  0  0  0  0  0
   10.4878   14.4774   24.3934 O   0  0  0  0  0  0  0  0  0  0  0  0
    9.6772   12.3737   23.8713 C   0  0  0  0  0  0  0  0  0  0  0  0
    9.8979   11.2674   23.1425 N   0  0  0  0  0  0  0  0  0  0  0  0
    9.0558   10.3510   23.6259 N   0  0  0  0  0  0  0  0  0  0  0  0
    9.0911    9.0137   23.0808 C   0  0  0  0  0  0  0  0  0  0  0  0
    8.2365   10.8351   24.6130 C   0  0  0  0  0  0  0  0  0  0  0  0
    7.2064   10.2412   25.3448 C   0  0  0  0  0  0  0  0  0  0  0  0
    6.5521   11.0172   26.3018 C   0  0  0  0  0  0  0  0  0  0  0  0
    6.9306   12.3471   26.5096 C   0  0  0  0  0  0  0  0  0  0  0  0
    6.2515   13.1269   27.5481 N   0  0  0  0  0  0  0  0  0  0  0  0
    5.1636   12.7037   27.9663 O   0  0  0  0  0  0  0  0  0  0  0  0
    6.8302   14.1341   27.9791 O   0  0  0  0  0  0  0  0  0  0  0  0
    7.9682   12.9406   25.7732 C   0  0  0  0  0  0  0  0  0  0  0  0
    8.6288   12.1598   24.8059 C   0  0  0  0  0  0  0  0  0  0  0  0
   10.7965   15.0972   19.2454 C   0  0  0  0  0  0  0  0  0  0  0  0
    9.8620   16.0189   18.8906 O   0  0  0  0  0  0  0  0  0  0  0  0
  1  2  1  0
  2  3  1  0
  3  4  2  0
  4  5  1  0
  5  6  1  0
  6  7  1  0
  7  8  1  0
  8  9  2  0
  8 10  1  0
 10 11  2  0
 11 12  1  0
 12 13  1  0
 12 14  1  0
 14 15  2  0
 15 16  1  0
 16 17  2  0
 17 18  1  0
 18 19  2  0
 18 20  1  0
 17 21  1  0
 21 22  2  0
  5 23  2  0
 23 24  1  0
 24  3  1  0
 22 10  1  0
 22 14  1  0
M  CHG  2  18   1  20  -1
M  END
>  <energy_score>  (1459) 
-20.918153

>  <inchikey>  (1459) 
LJGAGAIBBGNHNG-UHFFFAOYSA-N

>  <smiles>  (1459) 
CCc1nc(CNC(=O)c2nn(C)c3ccc([N+](=O)[O-])cc23)co1

>  <ref_pdb>  (1459) 
A0514a

>  <alias>  (1459) 
LJGAGAIBBGNHNG-UHFFFAOYSA-N-P177-P126-P177-601502

>  <HIPPO Pose ID>  (1459) 
502921

>  <name>  (1459) 
LJGAGAIBBGNHNG-UHFFFAOYSA-N-P177-P126-P177-601502

>  <HIPPO Compound ID>  (1459) 
299278

>  <ref_mols>  (1459) 
A3403a,A2290a

>  <distance_score>  (1459) 
0.62301

>  <inspiration_score>  (1459) 
None

$$$$
HHCFVUFUMJCUKH-UHFFFAOYSA-N-P177-P126-P177-601502
     RDKit          3D

 24 26  0  0  0  0  0  0  0  0999 V2000
    4.5592   13.6051   28.9898 C   0  0  0  0  0  0  0  0  0  0  0  0
    5.2096   12.8114   27.9968 O   0  0  0  0  0  0  0  0  0  0  0  0
    6.4398   13.2680   27.6526 C   0  0  0  0  0  0  0  0  0  0  0  0
    7.0107   14.2316   28.1386 O   0  0  0  0  0  0  0  0  0  0  0  0
    7.0314   12.4213   26.5861 C   0  0  0  0  0  0  0  0  0  0  0  0
    6.5959   11.1115   26.3580 C   0  0  0  0  0  0  0  0  0  0  0  0
    7.1982   10.3121   25.3826 C   0  0  0  0  0  0  0  0  0  0  0  0
    8.2438   10.8649   24.6404 C   0  0  0  0  0  0  0  0  0  0  0  0
    8.6949   12.1693   24.8395 C   0  0  0  0  0  0  0  0  0  0  0  0
    8.0848   12.9607   25.8299 C   0  0  0  0  0  0  0  0  0  0  0  0
    9.7348   12.3516   23.8889 C   0  0  0  0  0  0  0  0  0  0  0  0
   10.5779   13.5407   23.6441 C   0  0  0  0  0  0  0  0  0  0  0  0
   10.7117   14.3795   24.4427 O   0  0  0  0  0  0  0  0  0  0  0  0
   11.1565   13.4129   22.2288 N   0  0  0  0  0  0  0  0  0  0  0  0
   11.9406   14.3252   21.4613 C   0  0  0  0  0  0  0  0  0  0  0  0
   11.0197   15.1720   20.6905 C   0  0  0  0  0  0  0  0  0  0  0  0
   10.7537   15.2008   19.3418 C   0  0  0  0  0  0  0  0  0  0  0  0
    9.8130   16.1602   19.1203 O   0  0  0  0  0  0  0  0  0  0  0  0
    9.5771   16.6773   20.3622 C   0  0  0  0  0  0  0  0  0  0  0  0
    8.5674   17.7322   20.4833 C   0  0  0  0  0  0  0  0  0  0  0  0
   10.2606   16.1123   21.3277 N   0  0  0  0  0  0  0  0  0  0  0  0
    9.8986   11.2440   23.1456 N   0  0  0  0  0  0  0  0  0  0  0  0
    9.0350   10.3553   23.6441 N   0  0  0  0  0  0  0  0  0  0  0  0
    9.0309    9.0145   23.1090 C   0  0  0  0  0  0  0  0  0  0  0  0
  1  2  1  0
  2  3  1  0
  3  4  2  0
  3  5  1  0
  5  6  2  0
  6  7  1  0
  7  8  2  0
  8  9  1  0
  9 10  2  0
  9 11  1  0
 11 12  1  0
 12 13  2  0
 12 14  1  0
 14 15  1  0
 15 16  1  0
 16 17  2  0
 17 18  1  0
 18 19  1  0
 19 20  1  0
 19 21  2  0
 11 22  2  0
 22 23  1  0
 23 24  1  0
 10  5  1  0
 21 16  1  0
 23  8  1  0
M  END
>  <energy_score>  (1460) 
-27.54378

>  <inchikey>  (1460) 
HHCFVUFUMJCUKH-UHFFFAOYSA-N

>  <smiles>  (1460) 
COC(=O)c1ccc2c(c1)c(C(=O)NCc1coc(C)n1)nn2C

>  <ref_pdb>  (1460) 
A0514a

>  <alias>  (1460) 
HHCFVUFUMJCUKH-UHFFFAOYSA-N-P177-P126-P177-601502

>  <HIPPO Pose ID>  (1460) 
502935

>  <name>  (1460) 
HHCFVUFUMJCUKH-UHFFFAOYSA-N-P177-P126-P177-601502

>  <HIPPO Compound ID>  (1460) 
299285

>  <ref_mols>  (1460) 
A3403a,A2290a

>  <distance_score>  (1460) 
0.652984

>  <inspiration_score>  (1460) 
None

$$$$
MZYUUOQSECFMQW-UHFFFAOYSA-N-P177-P126-P177-601502
     RDKit          3D

 24 26  0  0  0  0  0  0  0  0999 V2000
    4.4513   13.4301   29.0097 C   0  0  0  0  0  0  0  0  0  0  0  0
    5.1248   12.6707   28.0054 O   0  0  0  0  0  0  0  0  0  0  0  0
    6.3456   13.1627   27.6763 C   0  0  0  0  0  0  0  0  0  0  0  0
    6.8900   14.1319   28.1807 O   0  0  0  0  0  0  0  0  0  0  0  0
    6.9636   12.3478   26.6004 C   0  0  0  0  0  0  0  0  0  0  0  0
    6.5688   11.0286   26.3570 C   0  0  0  0  0  0  0  0  0  0  0  0
    7.1971   10.2593   25.3739 C   0  0  0  0  0  0  0  0  0  0  0  0
    8.2256   10.8503   24.6384 C   0  0  0  0  0  0  0  0  0  0  0  0
    8.6340   12.1653   24.8517 C   0  0  0  0  0  0  0  0  0  0  0  0
    8.0004   12.9269   25.8511 C   0  0  0  0  0  0  0  0  0  0  0  0
    9.6640   12.3911   23.9011 C   0  0  0  0  0  0  0  0  0  0  0  0
   10.4587   13.6148   23.6731 C   0  0  0  0  0  0  0  0  0  0  0  0
   10.5573   14.4443   24.4858 O   0  0  0  0  0  0  0  0  0  0  0  0
   11.0587   13.5261   22.2650 N   0  0  0  0  0  0  0  0  0  0  0  0
   11.8240   14.4713   21.5234 C   0  0  0  0  0  0  0  0  0  0  0  0
   10.9218   15.2113   20.6259 C   0  0  0  0  0  0  0  0  0  0  0  0
   10.7642   15.0929   19.2671 C   0  0  0  0  0  0  0  0  0  0  0  0
    9.8567   16.0192   18.8688 O   0  0  0  0  0  0  0  0  0  0  0  0
    9.5331   16.6931   20.0135 C   0  0  0  0  0  0  0  0  0  0  0  0
    8.3981   18.2184   20.0081 Br  0  0  0  0  0  0  0  0  0  0  0  0
   10.1160   16.2205   21.0931 N   0  0  0  0  0  0  0  0  0  0  0  0
    9.8695   11.2966   23.1479 N   0  0  0  0  0  0  0  0  0  0  0  0
    9.0337   10.3742   23.6385 N   0  0  0  0  0  0  0  0  0  0  0  0
    9.0691    9.0369   23.0937 C   0  0  0  0  0  0  0  0  0  0  0  0
  1  2  1  0
  2  3  1  0
  3  4  2  0
  3  5  1  0
  5  6  2  0
  6  7  1  0
  7  8  2  0
  8  9  1  0
  9 10  2  0
  9 11  1  0
 11 12  1  0
 12 13  2  0
 12 14  1  0
 14 15  1  0
 15 16  1  0
 16 17  2  0
 17 18  1  0
 18 19  1  0
 19 20  1  0
 19 21  2  0
 11 22  2  0
 22 23  1  0
 23 24  1  0
 10  5  1  0
 21 16  1  0
 23  8  1  0
M  END
>  <energy_score>  (1461) 
-15.318948

>  <inchikey>  (1461) 
MZYUUOQSECFMQW-UHFFFAOYSA-N

>  <smiles>  (1461) 
COC(=O)c1ccc2c(c1)c(C(=O)NCc1coc(Br)n1)nn2C

>  <ref_pdb>  (1461) 
A0514a

>  <alias>  (1461) 
MZYUUOQSECFMQW-UHFFFAOYSA-N-P177-P126-P177-601502

>  <HIPPO Pose ID>  (1461) 
502937

>  <name>  (1461) 
MZYUUOQSECFMQW-UHFFFAOYSA-N-P177-P126-P177-601502

>  <HIPPO Compound ID>  (1461) 
299286

>  <ref_mols>  (1461) 
A3403a,A2290a

>  <distance_score>  (1461) 
0.644489

>  <inspiration_score>  (1461) 
None

$$$$
LXGAXRSTEYEREJ-UHFFFAOYSA-N-P177-P126-P177-601502
     RDKit          3D

 24 26  0  0  0  0  0  0  0  0999 V2000
    4.4697   13.4733   28.9915 C   0  0  0  0  0  0  0  0  0  0  0  0
    5.1406   12.7053   27.9920 O   0  0  0  0  0  0  0  0  0  0  0  0
    6.3633   13.1911   27.6603 C   0  0  0  0  0  0  0  0  0  0  0  0
    6.9108   14.1611   28.1596 O   0  0  0  0  0  0  0  0  0  0  0  0
    6.9781   12.3679   26.5887 C   0  0  0  0  0  0  0  0  0  0  0  0
    6.5778   11.0489   26.3527 C   0  0  0  0  0  0  0  0  0  0  0  0
    7.2023   10.2719   25.3732 C   0  0  0  0  0  0  0  0  0  0  0  0
    8.2329   10.8554   24.6344 C   0  0  0  0  0  0  0  0  0  0  0  0
    8.6474   12.1701   24.8401 C   0  0  0  0  0  0  0  0  0  0  0  0
    8.0168   12.9392   25.8359 C   0  0  0  0  0  0  0  0  0  0  0  0
    9.6797   12.3865   23.8883 C   0  0  0  0  0  0  0  0  0  0  0  0
   10.4781   13.6077   23.6486 C   0  0  0  0  0  0  0  0  0  0  0  0
   10.5079   14.4827   24.4179 O   0  0  0  0  0  0  0  0  0  0  0  0
   11.1333   13.4742   22.2676 N   0  0  0  0  0  0  0  0  0  0  0  0
   11.8808   14.4159   21.5019 C   0  0  0  0  0  0  0  0  0  0  0  0
   10.9527   15.1838   20.6553 C   0  0  0  0  0  0  0  0  0  0  0  0
   10.7569   15.1208   19.2970 C   0  0  0  0  0  0  0  0  0  0  0  0
    9.8346   16.0603   18.9631 O   0  0  0  0  0  0  0  0  0  0  0  0
    9.5383   16.6766   20.1464 C   0  0  0  0  0  0  0  0  0  0  0  0
    8.5083   18.0315   20.2622 Cl  0  0  0  0  0  0  0  0  0  0  0  0
   10.1538   16.1634   21.1870 N   0  0  0  0  0  0  0  0  0  0  0  0
    9.8754   11.2875   23.1390 N   0  0  0  0  0  0  0  0  0  0  0  0
    9.0380   10.3711   23.6364 N   0  0  0  0  0  0  0  0  0  0  0  0
    9.0665    9.0318   23.0966 C   0  0  0  0  0  0  0  0  0  0  0  0
  1  2  1  0
  2  3  1  0
  3  4  2  0
  3  5  1  0
  5  6  2  0
  6  7  1  0
  7  8  2  0
  8  9  1  0
  9 10  2  0
  9 11  1  0
 11 12  1  0
 12 13  2  0
 12 14  1  0
 14 15  1  0
 15 16  1  0
 16 17  2  0
 17 18  1  0
 18 19  1  0
 19 20  1  0
 19 21  2  0
 11 22  2  0
 22 23  1  0
 23 24  1  0
 10  5  1  0
 21 16  1  0
 23  8  1  0
M  END
>  <energy_score>  (1462) 
-17.368474

>  <inchikey>  (1462) 
LXGAXRSTEYEREJ-UHFFFAOYSA-N

>  <smiles>  (1462) 
COC(=O)c1ccc2c(c1)c(C(=O)NCc1coc(Cl)n1)nn2C

>  <ref_pdb>  (1462) 
A0514a

>  <alias>  (1462) 
LXGAXRSTEYEREJ-UHFFFAOYSA-N-P177-P126-P177-601502

>  <HIPPO Pose ID>  (1462) 
502939

>  <name>  (1462) 
LXGAXRSTEYEREJ-UHFFFAOYSA-N-P177-P126-P177-601502

>  <HIPPO Compound ID>  (1462) 
299287

>  <ref_mols>  (1462) 
A3403a,A2290a

>  <distance_score>  (1462) 
0.642875

>  <inspiration_score>  (1462) 
None

$$$$
RULLFZUALRVUEE-UHFFFAOYSA-N-P177-P126-P177-601502
     RDKit          3D

 24 26  0  0  0  0  0  0  0  0999 V2000
    4.2920   13.2968   28.9892 C   0  0  0  0  0  0  0  0  0  0  0  0
    4.9963   12.5552   27.9927 O   0  0  0  0  0  0  0  0  0  0  0  0
    6.2289   13.0520   27.7154 C   0  0  0  0  0  0  0  0  0  0  0  0
    6.7568   14.0077   28.2607 O   0  0  0  0  0  0  0  0  0  0  0  0
    6.8790   12.2595   26.6419 C   0  0  0  0  0  0  0  0  0  0  0  0
    6.4977   10.9430   26.3688 C   0  0  0  0  0  0  0  0  0  0  0  0
    7.1495   10.1942   25.3852 C   0  0  0  0  0  0  0  0  0  0  0  0
    8.1894   10.7981   24.6804 C   0  0  0  0  0  0  0  0  0  0  0  0
    8.5891   12.1083   24.9304 C   0  0  0  0  0  0  0  0  0  0  0  0
    7.9303   12.8530   25.9270 C   0  0  0  0  0  0  0  0  0  0  0  0
    9.6415   12.3501   24.0120 C   0  0  0  0  0  0  0  0  0  0  0  0
   10.4271   13.5809   23.8255 C   0  0  0  0  0  0  0  0  0  0  0  0
   10.4433   14.4290   24.6235 O   0  0  0  0  0  0  0  0  0  0  0  0
   11.0667   13.5123   22.4365 N   0  0  0  0  0  0  0  0  0  0  0  0
   11.7763   14.4956   21.6975 C   0  0  0  0  0  0  0  0  0  0  0  0
   10.8015   15.2745   20.9118 C   0  0  0  0  0  0  0  0  0  0  0  0
    9.8527   16.0678   21.5046 N   0  0  0  0  0  0  0  0  0  0  0  0
    9.2674   16.6713   20.4987 C   0  0  0  0  0  0  0  0  0  0  0  0
    9.7053   16.2823   19.2682 O   0  0  0  0  0  0  0  0  0  0  0  0
   10.6919   15.3819   19.5477 C   0  0  0  0  0  0  0  0  0  0  0  0
   11.4324   14.7989   18.4304 C   0  0  0  0  0  0  0  0  0  0  0  0
    9.8638   11.2746   23.2368 N   0  0  0  0  0  0  0  0  0  0  0  0
    9.0154   10.3446   23.6841 N   0  0  0  0  0  0  0  0  0  0  0  0
    9.0588    9.0248   23.0998 C   0  0  0  0  0  0  0  0  0  0  0  0
  1  2  1  0
  2  3  1  0
  3  4  2  0
  3  5  1  0
  5  6  2  0
  6  7  1  0
  7  8  2  0
  8  9  1  0
  9 10  2  0
  9 11  1  0
 11 12  1  0
 12 13  2  0
 12 14  1  0
 14 15  1  0
 15 16  1  0
 16 17  1  0
 17 18  2  0
 18 19  1  0
 19 20  1  0
 20 21  1  0
 11 22  2  0
 22 23  1  0
 23 24  1  0
 10  5  1  0
 20 16  2  0
 23  8  1  0
M  END
>  <energy_score>  (1463) 
-11.386139

>  <inchikey>  (1463) 
RULLFZUALRVUEE-UHFFFAOYSA-N

>  <smiles>  (1463) 
COC(=O)c1ccc2c(c1)c(C(=O)NCc1ncoc1C)nn2C

>  <ref_pdb>  (1463) 
A0514a

>  <alias>  (1463) 
RULLFZUALRVUEE-UHFFFAOYSA-N-P177-P126-P177-601502

>  <HIPPO Pose ID>  (1463) 
502943

>  <name>  (1463) 
RULLFZUALRVUEE-UHFFFAOYSA-N-P177-P126-P177-601502

>  <HIPPO Compound ID>  (1463) 
299289

>  <ref_mols>  (1463) 
A3403a,A2290a

>  <distance_score>  (1463) 
0.731445

>  <inspiration_score>  (1463) 
None

$$$$
JHOWVHKEJBIEBL-UHFFFAOYSA-N-P126-P126-P177-601502
     RDKit          3D

 24 27  0  0  0  0  0  0  0  0999 V2000
   10.2816   14.2393   24.3900 O   0  0  0  0  0  0  0  0  0  0  0  0
   10.2992   13.3685   23.6170 C   0  0  0  0  0  0  0  0  0  0  0  0
   10.8285   13.3261   22.1775 N   0  0  0  0  0  0  0  0  0  0  0  0
   11.3496   14.3433   21.3695 C   0  0  0  0  0  0  0  0  0  0  0  0
   10.3297   15.2646   20.6477 C   0  0  0  0  0  0  0  0  0  0  0  0
   10.2857   15.5152   19.3023 C   0  0  0  0  0  0  0  0  0  0  0  0
    9.4944   16.6038   19.1019 O   0  0  0  0  0  0  0  0  0  0  0  0
    9.0547   16.9064   20.3536 C   0  0  0  0  0  0  0  0  0  0  0  0
    9.4610   16.0822   21.2901 N   0  0  0  0  0  0  0  0  0  0  0  0
   12.5795   13.9791   20.5828 C   0  0  0  0  0  0  0  0  0  0  0  0
   12.6881   14.9094   21.7357 C   0  0  0  0  0  0  0  0  0  0  0  0
    9.7605   12.0487   23.9060 C   0  0  0  0  0  0  0  0  0  0  0  0
   10.2043   11.0012   23.2018 N   0  0  0  0  0  0  0  0  0  0  0  0
    9.4793    9.9511   23.6408 N   0  0  0  0  0  0  0  0  0  0  0  0
    9.6118    8.6675   22.9406 C   0  0  0  0  0  0  0  0  0  0  0  0
   10.0417    8.8465   21.6680 F   0  0  0  0  0  0  0  0  0  0  0  0
    8.4276    8.0340   22.8759 F   0  0  0  0  0  0  0  0  0  0  0  0
   10.4958    7.8291   23.5219 F   0  0  0  0  0  0  0  0  0  0  0  0
    8.5787   10.3152   24.6254 C   0  0  0  0  0  0  0  0  0  0  0  0
    7.6117    9.6035   25.3392 C   0  0  0  0  0  0  0  0  0  0  0  0
    6.8102   10.2966   26.2525 C   0  0  0  0  0  0  0  0  0  0  0  0
    6.9664   11.6645   26.4486 C   0  0  0  0  0  0  0  0  0  0  0  0
    7.9336   12.3736   25.7340 C   0  0  0  0  0  0  0  0  0  0  0  0
    8.7502   11.6850   24.8173 C   0  0  0  0  0  0  0  0  0  0  0  0
  1  2  2  0
  2  3  1  0
  3  4  1  0
  4  5  1  0
  5  6  2  0
  6  7  1  0
  7  8  1  0
  8  9  2  0
  4 10  1  0
 10 11  1  0
  2 12  1  0
 12 13  2  0
 13 14  1  0
 14 15  1  0
 15 16  1  0
 15 17  1  0
 15 18  1  0
 14 19  1  0
 19 20  2  0
 20 21  1  0
 21 22  2  0
 22 23  1  0
 23 24  2  0
 11  4  1  0
 24 12  1  0
  9  5  1  0
 24 19  1  0
M  END
>  <energy_score>  (1464) 
-9.624273

>  <inchikey>  (1464) 
JHOWVHKEJBIEBL-UHFFFAOYSA-N

>  <smiles>  (1464) 
O=C(NC1(c2cocn2)CC1)c1nn(C(F)(F)F)c2ccccc12

>  <ref_pdb>  (1464) 
A0514a

>  <alias>  (1464) 
JHOWVHKEJBIEBL-UHFFFAOYSA-N-P126-P126-P177-601502

>  <HIPPO Pose ID>  (1464) 
502944

>  <name>  (1464) 
JHOWVHKEJBIEBL-UHFFFAOYSA-N-P126-P126-P177-601502

>  <HIPPO Compound ID>  (1464) 
299290

>  <ref_mols>  (1464) 
A3403a,A2290a

>  <distance_score>  (1464) 
0.7484

>  <inspiration_score>  (1464) 
None

$$$$
DTGZBQUHJBLZGL-UHFFFAOYSA-N-P177-P126-P177-601502
     RDKit          3D

 24 26  0  0  0  0  0  0  0  0999 V2000
   11.9453   14.9281   18.0307 C   0  0  0  0  0  0  0  0  0  0  0  0
   10.6246   14.6863   18.6415 C   0  0  0  0  0  0  0  0  0  0  0  0
   10.3407   15.4832   19.8108 C   0  0  0  0  0  0  0  0  0  0  0  0
    9.4105   16.4657   19.6875 O   0  0  0  0  0  0  0  0  0  0  0  0
    9.2043   16.8511   20.9699 C   0  0  0  0  0  0  0  0  0  0  0  0
    9.9293   16.2021   21.8514 N   0  0  0  0  0  0  0  0  0  0  0  0
   10.7448   15.4007   21.1112 C   0  0  0  0  0  0  0  0  0  0  0  0
   11.7836   14.5431   21.7095 C   0  0  0  0  0  0  0  0  0  0  0  0
   11.1136   13.5421   22.4587 N   0  0  0  0  0  0  0  0  0  0  0  0
   10.5169   13.5860   23.8690 C   0  0  0  0  0  0  0  0  0  0  0  0
   10.5453   14.4259   24.6757 O   0  0  0  0  0  0  0  0  0  0  0  0
    9.7481   12.3471   24.0490 C   0  0  0  0  0  0  0  0  0  0  0  0
   10.0055   11.2825   23.2750 N   0  0  0  0  0  0  0  0  0  0  0  0
    9.1438   10.3265   23.6809 N   0  0  0  0  0  0  0  0  0  0  0  0
    9.1330    9.0090   23.0323 C   0  0  0  0  0  0  0  0  0  0  0  0
    7.8639    8.6097   22.8192 F   0  0  0  0  0  0  0  0  0  0  0  0
    9.7515    9.0040   21.8279 F   0  0  0  0  0  0  0  0  0  0  0  0
    9.7219    8.0535   23.7878 F   0  0  0  0  0  0  0  0  0  0  0  0
    8.2936   10.7772   24.6703 C   0  0  0  0  0  0  0  0  0  0  0  0
    7.2349   10.1720   25.3497 C   0  0  0  0  0  0  0  0  0  0  0  0
    6.5491   10.9236   26.3069 C   0  0  0  0  0  0  0  0  0  0  0  0
    6.9051   12.2411   26.5736 C   0  0  0  0  0  0  0  0  0  0  0  0
    7.9663   12.8400   25.8910 C   0  0  0  0  0  0  0  0  0  0  0  0
    8.6721   12.0932   24.9303 C   0  0  0  0  0  0  0  0  0  0  0  0
  1  2  1  0
  2  3  1  0
  3  4  1  0
  4  5  1  0
  5  6  2  0
  6  7  1  0
  7  8  1  0
  8  9  1  0
  9 10  1  0
 10 11  2  0
 10 12  1  0
 12 13  2  0
 13 14  1  0
 14 15  1  0
 15 16  1  0
 15 17  1  0
 15 18  1  0
 14 19  1  0
 19 20  2  0
 20 21  1  0
 21 22  2  0
 22 23  1  0
 23 24  2  0
  7  3  2  0
 24 12  1  0
 24 19  1  0
M  END
>  <energy_score>  (1465) 
-21.924742

>  <inchikey>  (1465) 
DTGZBQUHJBLZGL-UHFFFAOYSA-N

>  <smiles>  (1465) 
CCc1ocnc1CNC(=O)c1nn(C(F)(F)F)c2ccccc12

>  <ref_pdb>  (1465) 
A0514a

>  <alias>  (1465) 
DTGZBQUHJBLZGL-UHFFFAOYSA-N-P177-P126-P177-601502

>  <HIPPO Pose ID>  (1465) 
502947

>  <name>  (1465) 
DTGZBQUHJBLZGL-UHFFFAOYSA-N-P177-P126-P177-601502

>  <HIPPO Compound ID>  (1465) 
299291

>  <ref_mols>  (1465) 
A3403a,A2290a

>  <distance_score>  (1465) 
0.806347

>  <inspiration_score>  (1465) 
None

$$$$
QNGRDHZNYWMEHV-UHFFFAOYSA-N-P126-P126-P177-601502
     RDKit          3D

 24 26  0  0  0  0  0  0  0  0999 V2000
    8.6181   14.4436   20.0489 O   0  0  0  0  0  0  0  0  0  0  0  0
    9.3228   15.1156   20.6701 C   0  0  0  0  0  0  0  0  0  0  0  0
   10.1120   14.8137   21.9286 N   0  0  0  0  0  0  0  0  0  0  0  0
   10.1319   13.7268   22.6960 N   0  0  0  0  0  0  0  0  0  0  0  0
    9.9206   13.5696   24.2018 C   0  0  0  0  0  0  0  0  0  0  0  0
    9.7716   14.3723   25.0316 O   0  0  0  0  0  0  0  0  0  0  0  0
    9.8270   12.1366   24.4570 C   0  0  0  0  0  0  0  0  0  0  0  0
   10.3491   11.2072   23.6389 N   0  0  0  0  0  0  0  0  0  0  0  0
    9.5961   10.0850   23.8762 N   0  0  0  0  0  0  0  0  0  0  0  0
    9.7708    8.8739   23.0516 C   0  0  0  0  0  0  0  0  0  0  0  0
   10.7742    8.0820   23.4944 F   0  0  0  0  0  0  0  0  0  0  0  0
    8.6439    8.1284   23.0210 F   0  0  0  0  0  0  0  0  0  0  0  0
   10.0738    9.1899   21.7718 F   0  0  0  0  0  0  0  0  0  0  0  0
    8.6210   10.3040   24.8353 C   0  0  0  0  0  0  0  0  0  0  0  0
    7.5939    9.5089   25.3473 C   0  0  0  0  0  0  0  0  0  0  0  0
    6.6851   10.0737   26.2488 C   0  0  0  0  0  0  0  0  0  0  0  0
    6.7897   11.4036   26.6288 C   0  0  0  0  0  0  0  0  0  0  0  0
    7.8197   12.1918   26.1223 C   0  0  0  0  0  0  0  0  0  0  0  0
    8.7633   11.6220   25.2407 C   0  0  0  0  0  0  0  0  0  0  0  0
    9.4031   16.5023   20.2469 C   0  0  0  0  0  0  0  0  0  0  0  0
    9.5204   16.9268   18.9410 C   0  0  0  0  0  0  0  0  0  0  0  0
    8.9013   18.1358   18.8349 O   0  0  0  0  0  0  0  0  0  0  0  0
    8.4616   18.3921   20.0973 C   0  0  0  0  0  0  0  0  0  0  0  0
    8.8108   17.4992   20.9942 N   0  0  0  0  0  0  0  0  0  0  0  0
  1  2  2  0
  2  3  1  0
  3  4  1  0
  4  5  1  0
  5  6  2  0
  5  7  1  0
  7  8  2  0
  8  9  1  0
  9 10  1  0
 10 11  1  0
 10 12  1  0
 10 13  1  0
  9 14  1  0
 14 15  2  0
 15 16  1  0
 16 17  2  0
 17 18  1  0
 18 19  2  0
  2 20  1  0
 20 21  2  0
 21 22  1  0
 22 23  1  0
 23 24  2  0
 19  7  1  0
 24 20  1  0
 19 14  1  0
M  END
>  <energy_score>  (1466) 
-21.757408

>  <inchikey>  (1466) 
QNGRDHZNYWMEHV-UHFFFAOYSA-N

>  <smiles>  (1466) 
O=C(NNC(=O)c1nn(C(F)(F)F)c2ccccc12)c1cocn1

>  <ref_pdb>  (1466) 
A0514a

>  <alias>  (1466) 
QNGRDHZNYWMEHV-UHFFFAOYSA-N-P126-P126-P177-601502

>  <HIPPO Pose ID>  (1466) 
502948

>  <name>  (1466) 
QNGRDHZNYWMEHV-UHFFFAOYSA-N-P126-P126-P177-601502

>  <HIPPO Compound ID>  (1466) 
299292

>  <ref_mols>  (1466) 
A3403a,A2290a

>  <distance_score>  (1466) 
1.43355

>  <inspiration_score>  (1466) 
None

$$$$
IYFPJDMNFXNJIC-UHFFFAOYSA-N-P177-P126-P177-601502
     RDKit          3D

 25 28  0  0  0  0  0  0  0  0999 V2000
    9.1913    9.1675   23.1085 C   0  0  0  0  0  0  0  0  0  0  0  0
    9.0141   10.4158   23.8175 N   0  0  0  0  0  0  0  0  0  0  0  0
    9.8203   11.4541   23.5435 N   0  0  0  0  0  0  0  0  0  0  0  0
    9.4308   12.4090   24.4089 C   0  0  0  0  0  0  0  0  0  0  0  0
   10.0617   13.7210   24.4524 C   0  0  0  0  0  0  0  0  0  0  0  0
    9.9945   14.4089   25.3850 O   0  0  0  0  0  0  0  0  0  0  0  0
   10.6646   13.9739   23.0845 N   0  0  0  0  0  0  0  0  0  0  0  0
   11.2259   15.1394   22.5341 C   0  0  0  0  0  0  0  0  0  0  0  0
   10.2817   15.7226   21.5810 C   0  0  0  0  0  0  0  0  0  0  0  0
    9.1401   16.3884   21.9303 N   0  0  0  0  0  0  0  0  0  0  0  0
    8.7851   16.9958   20.8238 C   0  0  0  0  0  0  0  0  0  0  0  0
    9.4791   16.6134   19.7235 O   0  0  0  0  0  0  0  0  0  0  0  0
   10.3838   15.7351   20.2303 C   0  0  0  0  0  0  0  0  0  0  0  0
   11.2901   14.8272   19.4434 C   0  0  0  0  0  0  0  0  0  0  0  0
   10.6062   14.4176   18.2000 C   0  0  0  0  0  0  0  0  0  0  0  0
   11.8360   15.2136   18.1244 C   0  0  0  0  0  0  0  0  0  0  0  0
    8.3307   12.0080   25.1877 C   0  0  0  0  0  0  0  0  0  0  0  0
    7.5209   12.6219   26.1619 C   0  0  0  0  0  0  0  0  0  0  0  0
    6.4922   11.8646   26.7270 C   0  0  0  0  0  0  0  0  0  0  0  0
    5.6357   12.4546   27.7562 N   0  0  0  0  0  0  0  0  0  0  0  0
    6.0879   13.4124   28.3982 O   0  0  0  0  0  0  0  0  0  0  0  0
    4.5270   11.9317   27.9485 O   0  0  0  0  0  0  0  0  0  0  0  0
    6.2867   10.5377   26.3549 C   0  0  0  0  0  0  0  0  0  0  0  0
    7.0854    9.9455   25.3760 C   0  0  0  0  0  0  0  0  0  0  0  0
    8.0914   10.7010   24.7936 C   0  0  0  0  0  0  0  0  0  0  0  0
  1  2  1  0
  2  3  1  0
  3  4  2  0
  4  5  1  0
  5  6  2  0
  5  7  1  0
  7  8  1  0
  8  9  1  0
  9 10  1  0
 10 11  2  0
 11 12  1  0
 12 13  1  0
 13 14  1  0
 14 15  1  0
 15 16  1  0
  4 17  1  0
 17 18  2  0
 18 19  1  0
 19 20  1  0
 20 21  2  0
 20 22  1  0
 19 23  2  0
 23 24  1  0
 24 25  2  0
 25  2  1  0
 13  9  2  0
 16 14  1  0
 25 17  1  0
M  CHG  2  20   1  22  -1
M  END
>  <energy_score>  (1467) 
-19.781684

>  <inchikey>  (1467) 
IYFPJDMNFXNJIC-UHFFFAOYSA-N

>  <smiles>  (1467) 
Cn1nc(C(=O)NCc2ncoc2C2CC2)c2cc([N+](=O)[O-])ccc21

>  <ref_pdb>  (1467) 
A0514a

>  <alias>  (1467) 
IYFPJDMNFXNJIC-UHFFFAOYSA-N-P177-P126-P177-601502

>  <HIPPO Pose ID>  (1467) 
502957

>  <name>  (1467) 
IYFPJDMNFXNJIC-UHFFFAOYSA-N-P177-P126-P177-601502

>  <HIPPO Compound ID>  (1467) 
299296

>  <ref_mols>  (1467) 
A3403a,A2290a

>  <distance_score>  (1467) 
1.151794

>  <inspiration_score>  (1467) 
None

$$$$
YDMWJZJSLDMQEE-UHFFFAOYSA-N-P177-P126-P177-601502
     RDKit          3D

 25 27  0  0  0  0  0  0  0  0999 V2000
    8.3398   14.2526   21.1334 C   0  0  0  0  0  0  0  0  0  0  0  0
    9.5726   13.6392   20.7385 O   0  0  0  0  0  0  0  0  0  0  0  0
   10.4932   14.2644   19.8012 C   0  0  0  0  0  0  0  0  0  0  0  0
   10.3602   15.6588   20.0370 C   0  0  0  0  0  0  0  0  0  0  0  0
    9.5201   16.4056   19.2900 O   0  0  0  0  0  0  0  0  0  0  0  0
    9.2731   17.4550   20.1133 C   0  0  0  0  0  0  0  0  0  0  0  0
    9.9700   17.4424   21.2246 N   0  0  0  0  0  0  0  0  0  0  0  0
   10.6440   16.2510   21.2261 C   0  0  0  0  0  0  0  0  0  0  0  0
   11.4324   15.6213   22.3302 C   0  0  0  0  0  0  0  0  0  0  0  0
   10.8657   14.3969   22.8565 N   0  0  0  0  0  0  0  0  0  0  0  0
   10.2776   14.0840   24.2375 C   0  0  0  0  0  0  0  0  0  0  0  0
   10.2231   14.7370   25.2011 O   0  0  0  0  0  0  0  0  0  0  0  0
    9.6376   12.7376   24.2178 C   0  0  0  0  0  0  0  0  0  0  0  0
   10.0496   11.7387   23.4139 N   0  0  0  0  0  0  0  0  0  0  0  0
    9.2288   10.7035   23.6907 N   0  0  0  0  0  0  0  0  0  0  0  0
    9.4105    9.4220   23.0379 C   0  0  0  0  0  0  0  0  0  0  0  0
    8.2973   10.9925   24.6561 C   0  0  0  0  0  0  0  0  0  0  0  0
    7.2928   10.2167   25.2404 C   0  0  0  0  0  0  0  0  0  0  0  0
    6.4914   10.8133   26.2126 C   0  0  0  0  0  0  0  0  0  0  0  0
    6.6963   12.1476   26.5726 C   0  0  0  0  0  0  0  0  0  0  0  0
    5.8381   12.7425   27.5998 N   0  0  0  0  0  0  0  0  0  0  0  0
    6.2724   13.7293   28.2090 O   0  0  0  0  0  0  0  0  0  0  0  0
    4.7461   12.1968   27.8208 O   0  0  0  0  0  0  0  0  0  0  0  0
    7.7165   12.9179   25.9935 C   0  0  0  0  0  0  0  0  0  0  0  0
    8.5352   12.3153   25.0182 C   0  0  0  0  0  0  0  0  0  0  0  0
  1  2  1  0
  2  3  1  0
  3  4  1  0
  4  5  1  0
  5  6  1  0
  6  7  2  0
  7  8  1  0
  8  9  1  0
  9 10  1  0
 10 11  1  0
 11 12  2  0
 11 13  1  0
 13 14  2  0
 14 15  1  0
 15 16  1  0
 15 17  1  0
 17 18  2  0
 18 19  1  0
 19 20  2  0
 20 21  1  0
 21 22  2  0
 21 23  1  0
 20 24  1  0
 24 25  2  0
  8  4  2  0
 25 13  1  0
 25 17  1  0
M  CHG  2  21   1  23  -1
M  END
>  <energy_score>  (1468) 
-1.608189

>  <inchikey>  (1468) 
YDMWJZJSLDMQEE-UHFFFAOYSA-N

>  <smiles>  (1468) 
COCc1ocnc1CNC(=O)c1nn(C)c2ccc([N+](=O)[O-])cc12

>  <ref_pdb>  (1468) 
A0514a

>  <alias>  (1468) 
YDMWJZJSLDMQEE-UHFFFAOYSA-N-P177-P126-P177-601502

>  <HIPPO Pose ID>  (1468) 
502959

>  <name>  (1468) 
YDMWJZJSLDMQEE-UHFFFAOYSA-N-P177-P126-P177-601502

>  <HIPPO Compound ID>  (1468) 
299297

>  <ref_mols>  (1468) 
A3403a,A2290a

>  <distance_score>  (1468) 
1.07322

>  <inspiration_score>  (1468) 
None

$$$$
CQJFEQDAISWKQH-UHFFFAOYSA-N-P177-P126-P177-601502
     RDKit          3D

 25 27  0  0  0  0  0  0  0  0999 V2000
   11.8396   15.0215   18.1687 C   0  0  0  0  0  0  0  0  0  0  0  0
   10.6844   14.9583   19.0958 C   0  0  0  0  0  0  0  0  0  0  0  0
    9.3621   15.4416   18.5611 C   0  0  0  0  0  0  0  0  0  0  0  0
   10.7964   15.6600   20.3790 C   0  0  0  0  0  0  0  0  0  0  0  0
    9.9638   16.7379   20.5215 O   0  0  0  0  0  0  0  0  0  0  0  0
    9.4194   16.5232   21.7274 C   0  0  0  0  0  0  0  0  0  0  0  0
   10.0710   15.6466   22.4579 N   0  0  0  0  0  0  0  0  0  0  0  0
   11.0837   15.2005   21.6298 C   0  0  0  0  0  0  0  0  0  0  0  0
   12.0002   14.1188   22.0139 C   0  0  0  0  0  0  0  0  0  0  0  0
   11.2043   13.1863   22.7054 N   0  0  0  0  0  0  0  0  0  0  0  0
   10.6089   13.2382   24.1101 C   0  0  0  0  0  0  0  0  0  0  0  0
   10.7405   14.0250   24.9575 O   0  0  0  0  0  0  0  0  0  0  0  0
    9.6959   12.1090   24.2076 C   0  0  0  0  0  0  0  0  0  0  0  0
    9.8505   11.0584   23.3891 N   0  0  0  0  0  0  0  0  0  0  0  0
    8.9363   10.1807   23.7887 N   0  0  0  0  0  0  0  0  0  0  0  0
    8.9345    8.8840   23.1608 C   0  0  0  0  0  0  0  0  0  0  0  0
    8.1085   10.6721   24.7671 C   0  0  0  0  0  0  0  0  0  0  0  0
    7.0229   10.1267   25.4456 C   0  0  0  0  0  0  0  0  0  0  0  0
    6.3767   10.9081   26.4049 C   0  0  0  0  0  0  0  0  0  0  0  0
    6.8145   12.2075   26.6682 C   0  0  0  0  0  0  0  0  0  0  0  0
    6.1307   12.9952   27.6964 N   0  0  0  0  0  0  0  0  0  0  0  0
    6.7503   13.9413   28.2016 O   0  0  0  0  0  0  0  0  0  0  0  0
    4.9895   12.6395   28.0268 O   0  0  0  0  0  0  0  0  0  0  0  0
    7.9195   12.7525   26.0031 C   0  0  0  0  0  0  0  0  0  0  0  0
    8.5736   11.9548   25.0463 C   0  0  0  0  0  0  0  0  0  0  0  0
  1  2  1  0
  2  3  1  0
  2  4  1  0
  4  5  1  0
  5  6  1  0
  6  7  2  0
  7  8  1  0
  8  9  1  0
  9 10  1  0
 10 11  1  0
 11 12  2  0
 11 13  1  0
 13 14  2  0
 14 15  1  0
 15 16  1  0
 15 17  1  0
 17 18  2  0
 18 19  1  0
 19 20  2  0
 20 21  1  0
 21 22  2  0
 21 23  1  0
 20 24  1  0
 24 25  2  0
  8  4  2  0
 25 13  1  0
 25 17  1  0
M  CHG  2  21   1  23  -1
M  END
>  <energy_score>  (1469) 
-16.996704

>  <inchikey>  (1469) 
CQJFEQDAISWKQH-UHFFFAOYSA-N

>  <smiles>  (1469) 
CC(C)c1ocnc1CNC(=O)c1nn(C)c2ccc([N+](=O)[O-])cc12

>  <ref_pdb>  (1469) 
A0514a

>  <alias>  (1469) 
CQJFEQDAISWKQH-UHFFFAOYSA-N-P177-P126-P177-601502

>  <HIPPO Pose ID>  (1469) 
502963

>  <name>  (1469) 
CQJFEQDAISWKQH-UHFFFAOYSA-N-P177-P126-P177-601502

>  <HIPPO Compound ID>  (1469) 
299299

>  <ref_mols>  (1469) 
A3403a,A2290a

>  <distance_score>  (1469) 
1.067946

>  <inspiration_score>  (1469) 
None

$$$$
LCEZLMDANHSNLT-UHFFFAOYSA-N-P177-P126-P177-601502
     RDKit          3D

 25 27  0  0  0  0  0  0  0  0999 V2000
    8.9906   17.2367   20.4907 C   0  0  0  0  0  0  0  0  0  0  0  0
   10.0536   16.3676   19.9528 C   0  0  0  0  0  0  0  0  0  0  0  0
   10.1184   16.1717   18.6078 O   0  0  0  0  0  0  0  0  0  0  0  0
   11.1856   15.3505   18.4482 C   0  0  0  0  0  0  0  0  0  0  0  0
   11.7059   14.8793   19.5443 N   0  0  0  0  0  0  0  0  0  0  0  0
   11.0681   15.6121   20.5042 C   0  0  0  0  0  0  0  0  0  0  0  0
   11.1017   15.2542   21.8739 C   0  0  0  0  0  0  0  0  0  0  0  0
   11.4015   15.9202   22.7665 O   0  0  0  0  0  0  0  0  0  0  0  0
   10.5593   13.8522   21.8403 N   0  0  0  0  0  0  0  0  0  0  0  0
   10.2089   13.0645   22.8005 N   0  0  0  0  0  0  0  0  0  0  0  0
    9.8026   13.3733   24.2380 C   0  0  0  0  0  0  0  0  0  0  0  0
    9.7900   14.3802   24.8191 O   0  0  0  0  0  0  0  0  0  0  0  0
    9.3291   12.1014   24.7010 C   0  0  0  0  0  0  0  0  0  0  0  0
    9.6460   11.0089   23.9850 N   0  0  0  0  0  0  0  0  0  0  0  0
    8.7092   10.1298   24.3025 N   0  0  0  0  0  0  0  0  0  0  0  0
    8.7175    8.9023   23.5554 C   0  0  0  0  0  0  0  0  0  0  0  0
    7.8299   10.6034   25.2447 C   0  0  0  0  0  0  0  0  0  0  0  0
    6.6894   10.0753   25.8310 C   0  0  0  0  0  0  0  0  0  0  0  0
    5.9984   10.8386   26.7751 C   0  0  0  0  0  0  0  0  0  0  0  0
    6.4042   12.1376   27.0699 C   0  0  0  0  0  0  0  0  0  0  0  0
    5.6492   12.9221   28.0497 N   0  0  0  0  0  0  0  0  0  0  0  0
    6.2198   13.8930   28.5657 O   0  0  0  0  0  0  0  0  0  0  0  0
    4.5007   12.5455   28.3249 O   0  0  0  0  0  0  0  0  0  0  0  0
    7.5252   12.6965   26.4552 C   0  0  0  0  0  0  0  0  0  0  0  0
    8.2542   11.8899   25.5651 C   0  0  0  0  0  0  0  0  0  0  0  0
  1  2  1  0
  2  3  1  0
  3  4  1  0
  4  5  2  0
  5  6  1  0
  6  7  1  0
  7  8  2  0
  7  9  1  0
  9 10  1  0
 10 11  1  0
 11 12  2  0
 11 13  1  0
 13 14  2  0
 14 15  1  0
 15 16  1  0
 15 17  1  0
 17 18  2  0
 18 19  1  0
 19 20  2  0
 20 21  1  0
 21 22  2  0
 21 23  1  0
 20 24  1  0
 24 25  2  0
  6  2  2  0
 25 13  1  0
 25 17  1  0
M  CHG  2  21   1  23  -1
M  END
>  <energy_score>  (1470) 
-6.206317

>  <inchikey>  (1470) 
LCEZLMDANHSNLT-UHFFFAOYSA-N

>  <smiles>  (1470) 
Cc1ocnc1C(=O)NNC(=O)c1nn(C)c2ccc([N+](=O)[O-])cc12

>  <ref_pdb>  (1470) 
A0514a

>  <alias>  (1470) 
LCEZLMDANHSNLT-UHFFFAOYSA-N-P177-P126-P177-601502

>  <HIPPO Pose ID>  (1470) 
502965

>  <name>  (1470) 
LCEZLMDANHSNLT-UHFFFAOYSA-N-P177-P126-P177-601502

>  <HIPPO Compound ID>  (1470) 
299300

>  <ref_mols>  (1470) 
A3403a,A2290a

>  <distance_score>  (1470) 
1.502666

>  <inspiration_score>  (1470) 
None

$$$$
RCNUDKAHEACRCO-UHFFFAOYSA-N-P177-P126-P177-601502
     RDKit          3D

 25 27  0  0  0  0  0  0  0  0999 V2000
    9.1049    9.0171   23.0841 C   0  0  0  0  0  0  0  0  0  0  0  0
    9.0435   10.3402   23.6605 N   0  0  0  0  0  0  0  0  0  0  0  0
    9.8799   11.2825   23.2122 N   0  0  0  0  0  0  0  0  0  0  0  0
    9.6310   12.3598   23.9751 C   0  0  0  0  0  0  0  0  0  0  0  0
   10.4042   13.5987   23.7980 C   0  0  0  0  0  0  0  0  0  0  0  0
   10.4508   14.4158   24.6265 O   0  0  0  0  0  0  0  0  0  0  0  0
   11.0294   13.5641   22.4015 N   0  0  0  0  0  0  0  0  0  0  0  0
   11.7603   14.5549   21.6919 C   0  0  0  0  0  0  0  0  0  0  0  0
   10.8017   15.3231   20.8769 C   0  0  0  0  0  0  0  0  0  0  0  0
    9.9011   16.1868   21.4459 N   0  0  0  0  0  0  0  0  0  0  0  0
    9.2938   16.7407   20.4261 C   0  0  0  0  0  0  0  0  0  0  0  0
    9.6723   16.2551   19.2108 O   0  0  0  0  0  0  0  0  0  0  0  0
   10.6437   15.3392   19.5138 C   0  0  0  0  0  0  0  0  0  0  0  0
   11.2967   14.6219   18.4213 C   0  0  0  0  0  0  0  0  0  0  0  0
   12.1572   13.6757   18.8863 F   0  0  0  0  0  0  0  0  0  0  0  0
   12.0424   15.4416   17.6506 F   0  0  0  0  0  0  0  0  0  0  0  0
    8.5700   12.1113   24.8818 C   0  0  0  0  0  0  0  0  0  0  0  0
    7.8830   12.8616   25.8551 C   0  0  0  0  0  0  0  0  0  0  0  0
    6.8416   12.2375   26.5580 C   0  0  0  0  0  0  0  0  0  0  0  0
    6.1284   12.9837   27.5969 N   0  0  0  0  0  0  0  0  0  0  0  0
    6.7012   13.9641   28.0931 O   0  0  0  0  0  0  0  0  0  0  0  0
    5.0158   12.5630   27.9469 O   0  0  0  0  0  0  0  0  0  0  0  0
    6.4904   10.9074   26.3157 C   0  0  0  0  0  0  0  0  0  0  0  0
    7.1732   10.1647   25.3520 C   0  0  0  0  0  0  0  0  0  0  0  0
    8.2024   10.7884   24.6472 C   0  0  0  0  0  0  0  0  0  0  0  0
  1  2  1  0
  2  3  1  0
  3  4  2  0
  4  5  1  0
  5  6  2  0
  5  7  1  0
  7  8  1  0
  8  9  1  0
  9 10  1  0
 10 11  2  0
 11 12  1  0
 12 13  1  0
 13 14  1  0
 14 15  1  0
 14 16  1  0
  4 17  1  0
 17 18  2  0
 18 19  1  0
 19 20  1  0
 20 21  2  0
 20 22  1  0
 19 23  2  0
 23 24  1  0
 24 25  2  0
 25  2  1  0
 13  9  2  0
 25 17  1  0
M  CHG  2  20   1  22  -1
M  END
>  <energy_score>  (1471) 
-38.354257

>  <inchikey>  (1471) 
RCNUDKAHEACRCO-UHFFFAOYSA-N

>  <smiles>  (1471) 
Cn1nc(C(=O)NCc2ncoc2C(F)F)c2cc([N+](=O)[O-])ccc21

>  <ref_pdb>  (1471) 
A0514a

>  <alias>  (1471) 
RCNUDKAHEACRCO-UHFFFAOYSA-N-P177-P126-P177-601502

>  <HIPPO Pose ID>  (1471) 
502967

>  <name>  (1471) 
RCNUDKAHEACRCO-UHFFFAOYSA-N-P177-P126-P177-601502

>  <HIPPO Compound ID>  (1471) 
299301

>  <ref_mols>  (1471) 
A3403a,A2290a

>  <distance_score>  (1471) 
0.692416

>  <inspiration_score>  (1471) 
None

$$$$
VUMTXOUVVNOIJP-UHFFFAOYSA-N-P177-P126-P177-601502
     RDKit          3D

 25 27  0  0  0  0  0  0  0  0999 V2000
    9.0733    9.0003   23.0777 C   0  0  0  0  0  0  0  0  0  0  0  0
    9.0761   10.3443   23.6049 N   0  0  0  0  0  0  0  0  0  0  0  0
    9.9350   11.2282   23.0981 N   0  0  0  0  0  0  0  0  0  0  0  0
    9.7804   12.3426   23.8307 C   0  0  0  0  0  0  0  0  0  0  0  0
   10.6380   13.5234   23.5786 C   0  0  0  0  0  0  0  0  0  0  0  0
   10.7023   14.4075   24.3366 O   0  0  0  0  0  0  0  0  0  0  0  0
   11.2731   13.3536   22.1888 N   0  0  0  0  0  0  0  0  0  0  0  0
   12.0404   14.2681   21.3983 C   0  0  0  0  0  0  0  0  0  0  0  0
   11.0938   15.1592   20.7168 C   0  0  0  0  0  0  0  0  0  0  0  0
   10.7178   15.2652   19.3988 C   0  0  0  0  0  0  0  0  0  0  0  0
    9.7358   16.2116   19.3160 O   0  0  0  0  0  0  0  0  0  0  0  0
    9.5867   16.6396   20.6118 C   0  0  0  0  0  0  0  0  0  0  0  0
    8.4846   17.5643   20.9440 C   0  0  0  0  0  0  0  0  0  0  0  0
    7.7796   17.0069   21.9708 F   0  0  0  0  0  0  0  0  0  0  0  0
    8.9361   18.7751   21.3604 F   0  0  0  0  0  0  0  0  0  0  0  0
   10.3943   16.0507   21.4646 N   0  0  0  0  0  0  0  0  0  0  0  0
    8.7250   12.1761   24.7707 C   0  0  0  0  0  0  0  0  0  0  0  0
    8.1002   12.9868   25.7371 C   0  0  0  0  0  0  0  0  0  0  0  0
    7.0484   12.4354   26.4870 C   0  0  0  0  0  0  0  0  0  0  0  0
    6.4095   13.2458   27.5277 N   0  0  0  0  0  0  0  0  0  0  0  0
    7.0364   14.2234   27.9588 O   0  0  0  0  0  0  0  0  0  0  0  0
    5.3041   12.8726   27.9474 O   0  0  0  0  0  0  0  0  0  0  0  0
    6.6203   11.1172   26.2944 C   0  0  0  0  0  0  0  0  0  0  0  0
    7.2375   10.3095   25.3391 C   0  0  0  0  0  0  0  0  0  0  0  0
    8.2806   10.8639   24.5924 C   0  0  0  0  0  0  0  0  0  0  0  0
  1  2  1  0
  2  3  1  0
  3  4  2  0
  4  5  1  0
  5  6  2  0
  5  7  1  0
  7  8  1  0
  8  9  1  0
  9 10  2  0
 10 11  1  0
 11 12  1  0
 12 13  1  0
 13 14  1  0
 13 15  1  0
 12 16  2  0
  4 17  1  0
 17 18  2  0
 18 19  1  0
 19 20  1  0
 20 21  2  0
 20 22  1  0
 19 23  2  0
 23 24  1  0
 24 25  2  0
 25  2  1  0
 16  9  1  0
 25 17  1  0
M  CHG  2  20   1  22  -1
M  END
>  <energy_score>  (1472) 
-12.01523

>  <inchikey>  (1472) 
VUMTXOUVVNOIJP-UHFFFAOYSA-N

>  <smiles>  (1472) 
Cn1nc(C(=O)NCc2coc(C(F)F)n2)c2cc([N+](=O)[O-])ccc21

>  <ref_pdb>  (1472) 
A0514a

>  <alias>  (1472) 
VUMTXOUVVNOIJP-UHFFFAOYSA-N-P177-P126-P177-601502

>  <HIPPO Pose ID>  (1472) 
502971

>  <name>  (1472) 
VUMTXOUVVNOIJP-UHFFFAOYSA-N-P177-P126-P177-601502

>  <HIPPO Compound ID>  (1472) 
299303

>  <ref_mols>  (1472) 
A3403a,A2290a

>  <distance_score>  (1472) 
0.620142

>  <inspiration_score>  (1472) 
None

$$$$
KQBPAGXAIPAUKC-UHFFFAOYSA-N-P177-P126-P177-601502
     RDKit          3D

 25 27  0  0  0  0  0  0  0  0999 V2000
    8.5130   17.9751   20.2770 C   0  0  0  0  0  0  0  0  0  0  0  0
    9.3495   16.7707   20.2370 C   0  0  0  0  0  0  0  0  0  0  0  0
    9.7186   15.9846   21.2243 N   0  0  0  0  0  0  0  0  0  0  0  0
   10.5831   15.1059   20.6248 C   0  0  0  0  0  0  0  0  0  0  0  0
   11.4922   14.2252   21.3670 C   0  0  1  0  0  0  0  0  0  0  0  0
   12.4749   15.0431   22.1142 C   0  0  0  0  0  0  0  0  0  0  0  0
   10.7867   13.3362   22.2134 N   0  0  0  0  0  0  0  0  0  0  0  0
   10.1378   13.5675   23.5799 C   0  0  0  0  0  0  0  0  0  0  0  0
   10.1425   14.5063   24.2696 O   0  0  0  0  0  0  0  0  0  0  0  0
    9.4383   12.3237   23.9147 C   0  0  0  0  0  0  0  0  0  0  0  0
    9.7170   11.2038   23.2257 N   0  0  0  0  0  0  0  0  0  0  0  0
    8.9139   10.2734   23.7362 N   0  0  0  0  0  0  0  0  0  0  0  0
    8.9790    8.9395   23.1908 C   0  0  0  0  0  0  0  0  0  0  0  0
    8.0895   10.7553   24.7207 C   0  0  0  0  0  0  0  0  0  0  0  0
    7.0832   10.1552   25.4739 C   0  0  0  0  0  0  0  0  0  0  0  0
    6.4148   10.9324   26.4206 C   0  0  0  0  0  0  0  0  0  0  0  0
    6.7511   12.2775   26.5927 C   0  0  0  0  0  0  0  0  0  0  0  0
    6.0515   13.0626   27.6125 N   0  0  0  0  0  0  0  0  0  0  0  0
    6.6066   14.0910   28.0245 O   0  0  0  0  0  0  0  0  0  0  0  0
    4.9700   12.6255   28.0332 O   0  0  0  0  0  0  0  0  0  0  0  0
    7.7587   12.8845   25.8302 C   0  0  0  0  0  0  0  0  0  0  0  0
    8.4318   12.0974   24.8783 C   0  0  0  0  0  0  0  0  0  0  0  0
   10.6525   15.3669   19.2857 C   0  0  0  0  0  0  0  0  0  0  0  0
   11.5092   14.8419   18.2302 C   0  0  0  0  0  0  0  0  0  0  0  0
    9.8258   16.4042   19.0108 O   0  0  0  0  0  0  0  0  0  0  0  0
  1  2  1  0
  2  3  2  0
  3  4  1  0
  4  5  1  0
  5  6  1  1
  5  7  1  0
  7  8  1  0
  8  9  2  0
  8 10  1  0
 10 11  2  0
 11 12  1  0
 12 13  1  0
 12 14  1  0
 14 15  2  0
 15 16  1  0
 16 17  2  0
 17 18  1  0
 18 19  2  0
 18 20  1  0
 17 21  1  0
 21 22  2  0
  4 23  2  0
 23 24  1  0
 23 25  1  0
 25  2  1  0
 22 10  1  0
 22 14  1  0
M  CHG  2  18   1  20  -1
M  END
>  <energy_score>  (1473) 
-21.772357

>  <inchikey>  (1473) 
KQBPAGXAIPAUKC-UHFFFAOYSA-N

>  <smiles>  (1473) 
Cc1nc(C(C)NC(=O)c2nn(C)c3ccc([N+](=O)[O-])cc23)c(C)o1

>  <ref_pdb>  (1473) 
A0514a

>  <alias>  (1473) 
KQBPAGXAIPAUKC-UHFFFAOYSA-N-P177-P126-P177-601502

>  <HIPPO Pose ID>  (1473) 
502975

>  <name>  (1473) 
KQBPAGXAIPAUKC-UHFFFAOYSA-N-P177-P126-P177-601502

>  <HIPPO Compound ID>  (1473) 
299305

>  <ref_mols>  (1473) 
A3403a,A2290a

>  <distance_score>  (1473) 
0.72973

>  <inspiration_score>  (1473) 
None

$$$$
USRPJRJYGWEPRE-UHFFFAOYSA-N-P126-P126-P177-601502
     RDKit          3D

 25 27  0  0  0  0  0  0  0  0999 V2000
    8.3827   18.2476   19.1053 C   0  0  0  0  0  0  0  0  0  0  0  0
    8.6092   17.5715   20.4466 C   0  0  0  0  0  0  0  0  0  0  0  0
    9.5368   16.4149   20.4335 C   0  0  0  0  0  0  0  0  0  0  0  0
   10.0440   15.7961   21.4766 N   0  0  0  0  0  0  0  0  0  0  0  0
   11.0178   14.9931   20.9643 C   0  0  0  0  0  0  0  0  0  0  0  0
   12.0250   14.3558   21.8346 C   0  0  0  0  0  0  0  0  0  0  0  0
   11.3559   13.3212   22.5368 N   0  0  0  0  0  0  0  0  0  0  0  0
   10.7595   13.2998   23.9454 C   0  0  0  0  0  0  0  0  0  0  0  0
   10.7867   14.1014   24.7893 O   0  0  0  0  0  0  0  0  0  0  0  0
   10.0336   12.0365   24.0783 C   0  0  0  0  0  0  0  0  0  0  0  0
   10.4068   10.9888   23.3314 N   0  0  0  0  0  0  0  0  0  0  0  0
    9.5620    9.9917   23.6756 N   0  0  0  0  0  0  0  0  0  0  0  0
    9.6371    8.7137   22.9566 C   0  0  0  0  0  0  0  0  0  0  0  0
   10.5177    7.8457   23.5048 F   0  0  0  0  0  0  0  0  0  0  0  0
   10.0284    8.8895   21.6735 F   0  0  0  0  0  0  0  0  0  0  0  0
    8.4364    8.1037   22.9333 F   0  0  0  0  0  0  0  0  0  0  0  0
    8.6508   10.3838   24.6394 C   0  0  0  0  0  0  0  0  0  0  0  0
    7.6184    9.7109   25.3028 C   0  0  0  0  0  0  0  0  0  0  0  0
    6.8250   10.4317   26.2008 C   0  0  0  0  0  0  0  0  0  0  0  0
    7.0520   11.7850   26.4294 C   0  0  0  0  0  0  0  0  0  0  0  0
    8.0962   12.4476   25.7792 C   0  0  0  0  0  0  0  0  0  0  0  0
    8.9153   11.7307   24.8863 C   0  0  0  0  0  0  0  0  0  0  0  0
   10.9224   15.0106   19.5974 C   0  0  0  0  0  0  0  0  0  0  0  0
   11.7336   14.4286   18.5389 C   0  0  0  0  0  0  0  0  0  0  0  0
    9.9578   15.9091   19.2393 O   0  0  0  0  0  0  0  0  0  0  0  0
  1  2  1  0
  2  3  1  0
  3  4  2  0
  4  5  1  0
  5  6  1  0
  6  7  1  0
  7  8  1  0
  8  9  2  0
  8 10  1  0
 10 11  2  0
 11 12  1  0
 12 13  1  0
 13 14  1  0
 13 15  1  0
 13 16  1  0
 12 17  1  0
 17 18  2  0
 18 19  1  0
 19 20  2  0
 20 21  1  0
 21 22  2  0
  5 23  2  0
 23 24  1  0
 23 25  1  0
 25  3  1  0
 22 10  1  0
 22 17  1  0
M  END
>  <energy_score>  (1474) 
-46.431819

>  <inchikey>  (1474) 
USRPJRJYGWEPRE-UHFFFAOYSA-N

>  <smiles>  (1474) 
CCc1nc(CNC(=O)c2nn(C(F)(F)F)c3ccccc23)c(C)o1

>  <ref_pdb>  (1474) 
A0514a

>  <alias>  (1474) 
USRPJRJYGWEPRE-UHFFFAOYSA-N-P126-P126-P177-601502

>  <HIPPO Pose ID>  (1474) 
502984

>  <name>  (1474) 
USRPJRJYGWEPRE-UHFFFAOYSA-N-P126-P126-P177-601502

>  <HIPPO Compound ID>  (1474) 
299310

>  <ref_mols>  (1474) 
A3403a,A2290a

>  <distance_score>  (1474) 
0.715948

>  <inspiration_score>  (1474) 
None

$$$$
OJRQUQXFBZCTKZ-UHFFFAOYSA-N-P177-P126-P177-601502
     RDKit          3D

 25 27  0  0  0  0  0  0  0  0999 V2000
   10.3771   14.5750   24.5471 O   0  0  0  0  0  0  0  0  0  0  0  0
   10.4176   13.7073   23.7715 C   0  0  0  0  0  0  0  0  0  0  0  0
   11.1071   13.6266   22.4065 N   0  0  0  0  0  0  0  0  0  0  0  0
   11.8083   14.6164   21.6659 C   0  0  0  0  0  0  0  0  0  0  0  0
   10.8225   15.3534   20.8552 C   0  0  0  0  0  0  0  0  0  0  0  0
    9.9195   16.2147   21.4224 N   0  0  0  0  0  0  0  0  0  0  0  0
    9.2914   16.7445   20.4029 C   0  0  0  0  0  0  0  0  0  0  0  0
    9.6589   16.2435   19.1903 O   0  0  0  0  0  0  0  0  0  0  0  0
   10.6445   15.3439   19.4951 C   0  0  0  0  0  0  0  0  0  0  0  0
   11.2958   14.6189   18.4077 C   0  0  0  0  0  0  0  0  0  0  0  0
   12.1496   13.6696   18.8789 F   0  0  0  0  0  0  0  0  0  0  0  0
   12.0488   15.4327   17.6381 F   0  0  0  0  0  0  0  0  0  0  0  0
    9.6756   12.4522   23.9758 C   0  0  0  0  0  0  0  0  0  0  0  0
    9.9673   11.3591   23.2528 N   0  0  0  0  0  0  0  0  0  0  0  0
    9.1905   10.3788   23.7707 N   0  0  0  0  0  0  0  0  0  0  0  0
    9.4595    8.9702   23.4509 C   0  0  0  0  0  0  0  0  0  0  0  0
   10.7545    8.6342   23.6526 F   0  0  0  0  0  0  0  0  0  0  0  0
    8.7398    8.1581   24.2523 F   0  0  0  0  0  0  0  0  0  0  0  0
    9.1550    8.6610   22.1723 F   0  0  0  0  0  0  0  0  0  0  0  0
    8.2735   10.8650   24.6829 C   0  0  0  0  0  0  0  0  0  0  0  0
    7.2231   10.2655   25.3864 C   0  0  0  0  0  0  0  0  0  0  0  0
    6.5147   11.0421   26.3057 C   0  0  0  0  0  0  0  0  0  0  0  0
    6.8371   12.3783   26.5116 C   0  0  0  0  0  0  0  0  0  0  0  0
    7.8791   12.9741   25.7974 C   0  0  0  0  0  0  0  0  0  0  0  0
    8.6049   12.2053   24.8689 C   0  0  0  0  0  0  0  0  0  0  0  0
  1  2  2  0
  2  3  1  0
  3  4  1  0
  4  5  1  0
  5  6  1  0
  6  7  2  0
  7  8  1  0
  8  9  1  0
  9 10  1  0
 10 11  1  0
 10 12  1  0
  2 13  1  0
 13 14  2  0
 14 15  1  0
 15 16  1  0
 16 17  1  0
 16 18  1  0
 16 19  1  0
 15 20  1  0
 20 21  2  0
 21 22  1  0
 22 23  2  0
 23 24  1  0
 24 25  2  0
  9  5  2  0
 25 13  1  0
 25 20  1  0
M  END
>  <energy_score>  (1475) 
-9.776

>  <inchikey>  (1475) 
OJRQUQXFBZCTKZ-UHFFFAOYSA-N

>  <smiles>  (1475) 
O=C(NCc1ncoc1C(F)F)c1nn(C(F)(F)F)c2ccccc12

>  <ref_pdb>  (1475) 
A0514a

>  <alias>  (1475) 
OJRQUQXFBZCTKZ-UHFFFAOYSA-N-P177-P126-P177-601502

>  <HIPPO Pose ID>  (1475) 
502995

>  <name>  (1475) 
OJRQUQXFBZCTKZ-UHFFFAOYSA-N-P177-P126-P177-601502

>  <HIPPO Compound ID>  (1475) 
299315

>  <ref_mols>  (1475) 
A3403a,A2290a

>  <distance_score>  (1475) 
0.740601

>  <inspiration_score>  (1475) 
None

$$$$
BNGCHZAMUFCOTG-UHFFFAOYSA-N-P126-P126-P177-601502
     RDKit          3D

 25 27  0  0  0  0  0  0  0  0999 V2000
   11.2524   14.9143   18.8711 C   0  0  0  0  0  0  0  0  0  0  0  0
   10.2095   15.9087   19.2175 C   0  0  0  0  0  0  0  0  0  0  0  0
   10.0001   16.9366   18.3301 O   0  0  0  0  0  0  0  0  0  0  0  0
    9.0933   17.7384   18.9365 C   0  0  0  0  0  0  0  0  0  0  0  0
    8.7406   17.3546   20.1349 N   0  0  0  0  0  0  0  0  0  0  0  0
    9.3721   16.1379   20.2893 C   0  0  0  0  0  0  0  0  0  0  0  0
    8.9654   15.1848   21.3062 C   0  0  0  0  0  0  0  0  0  0  0  0
    7.7936   15.0479   21.4785 O   0  0  0  0  0  0  0  0  0  0  0  0
   10.0704   14.4972   21.8700 N   0  0  0  0  0  0  0  0  0  0  0  0
   10.1161   13.4553   22.6765 N   0  0  0  0  0  0  0  0  0  0  0  0
   10.0692   13.3709   24.0924 C   0  0  0  0  0  0  0  0  0  0  0  0
   10.0598   14.2252   24.9289 O   0  0  0  0  0  0  0  0  0  0  0  0
    9.9186   11.9621   24.4035 C   0  0  0  0  0  0  0  0  0  0  0  0
   10.4413   11.0207   23.6047 N   0  0  0  0  0  0  0  0  0  0  0  0
    9.6767    9.9159   23.8398 N   0  0  0  0  0  0  0  0  0  0  0  0
    9.8454    8.7262   22.9901 C   0  0  0  0  0  0  0  0  0  0  0  0
    8.7088    8.0046   22.9070 F   0  0  0  0  0  0  0  0  0  0  0  0
   10.8286    7.8990   23.4165 F   0  0  0  0  0  0  0  0  0  0  0  0
   10.1684    9.0790   21.7214 F   0  0  0  0  0  0  0  0  0  0  0  0
    8.6871   10.1594   24.7773 C   0  0  0  0  0  0  0  0  0  0  0  0
    7.6421    9.3840   25.2758 C   0  0  0  0  0  0  0  0  0  0  0  0
    6.7233    9.9612   26.1583 C   0  0  0  0  0  0  0  0  0  0  0  0
    6.8369   11.2920   26.5318 C   0  0  0  0  0  0  0  0  0  0  0  0
    7.8842   12.0672   26.0364 C   0  0  0  0  0  0  0  0  0  0  0  0
    8.8369   11.4794   25.1771 C   0  0  0  0  0  0  0  0  0  0  0  0
  1  2  1  0
  2  3  1  0
  3  4  1  0
  4  5  2  0
  5  6  1  0
  6  7  1  0
  7  8  2  0
  7  9  1  0
  9 10  1  0
 10 11  1  0
 11 12  2  0
 11 13  1  0
 13 14  2  0
 14 15  1  0
 15 16  1  0
 16 17  1  0
 16 18  1  0
 16 19  1  0
 15 20  1  0
 20 21  2  0
 21 22  1  0
 22 23  2  0
 23 24  1  0
 24 25  2  0
  6  2  2  0
 25 13  1  0
 25 20  1  0
M  END
>  <energy_score>  (1476) 
-19.168446

>  <inchikey>  (1476) 
BNGCHZAMUFCOTG-UHFFFAOYSA-N

>  <smiles>  (1476) 
Cc1ocnc1C(=O)NNC(=O)c1nn(C(F)(F)F)c2ccccc12

>  <ref_pdb>  (1476) 
A0514a

>  <alias>  (1476) 
BNGCHZAMUFCOTG-UHFFFAOYSA-N-P126-P126-P177-601502

>  <HIPPO Pose ID>  (1476) 
502996

>  <name>  (1476) 
BNGCHZAMUFCOTG-UHFFFAOYSA-N-P126-P126-P177-601502

>  <HIPPO Compound ID>  (1476) 
299316

>  <ref_mols>  (1476) 
A3403a,A2290a

>  <distance_score>  (1476) 
1.49535

>  <inspiration_score>  (1476) 
None

$$$$
OWIBAEFFDAMNBK-UHFFFAOYSA-N-P126-P126-P177-601502
     RDKit          3D

 25 27  0  0  0  0  0  0  0  0999 V2000
    7.9779   18.5914   19.7743 C   0  0  0  0  0  0  0  0  0  0  0  0
    8.8975   17.8028   18.9040 C   0  0  0  0  0  0  0  0  0  0  0  0
    9.5252   16.6573   19.6039 C   0  0  0  0  0  0  0  0  0  0  0  0
    9.7710   16.3535   20.8682 N   0  0  0  0  0  0  0  0  0  0  0  0
   10.6845   15.3065   20.7922 C   0  0  0  0  0  0  0  0  0  0  0  0
   11.4923   14.8055   21.9288 C   0  0  0  0  0  0  0  0  0  0  0  0
   10.8322   13.6924   22.5267 N   0  0  0  0  0  0  0  0  0  0  0  0
   10.3987   13.4538   23.9726 C   0  0  0  0  0  0  0  0  0  0  0  0
   10.4396   14.1573   24.8989 O   0  0  0  0  0  0  0  0  0  0  0  0
    9.7663   12.1353   24.0630 C   0  0  0  0  0  0  0  0  0  0  0  0
   10.1435   11.1132   23.2777 N   0  0  0  0  0  0  0  0  0  0  0  0
    9.3888   10.0813   23.6944 N   0  0  0  0  0  0  0  0  0  0  0  0
    9.5730    8.7949   23.0653 C   0  0  0  0  0  0  0  0  0  0  0  0
    8.4829   10.4223   24.6709 C   0  0  0  0  0  0  0  0  0  0  0  0
    7.5027    9.6912   25.3487 C   0  0  0  0  0  0  0  0  0  0  0  0
    6.6816   10.3659   26.2558 C   0  0  0  0  0  0  0  0  0  0  0  0
    6.8625   11.7321   26.4843 C   0  0  0  0  0  0  0  0  0  0  0  0
    5.9957   12.4143   27.4447 N   0  0  0  0  0  0  0  0  0  0  0  0
    4.8750   11.9274   27.6559 O   0  0  0  0  0  0  0  0  0  0  0  0
    6.4570   13.4086   28.0225 O   0  0  0  0  0  0  0  0  0  0  0  0
    7.8727   12.4566   25.8369 C   0  0  0  0  0  0  0  0  0  0  0  0
    8.6908   11.7756   24.9136 C   0  0  0  0  0  0  0  0  0  0  0  0
   10.8737   15.0144   19.4680 C   0  0  0  0  0  0  0  0  0  0  0  0
   11.8123   14.2437   18.6838 C   0  0  0  0  0  0  0  0  0  0  0  0
   10.0693   15.7953   18.7301 O   0  0  0  0  0  0  0  0  0  0  0  0
  1  2  1  0
  2  3  1  0
  3  4  2  0
  4  5  1  0
  5  6  1  0
  6  7  1  0
  7  8  1  0
  8  9  2  0
  8 10  1  0
 10 11  2  0
 11 12  1  0
 12 13  1  0
 12 14  1  0
 14 15  2  0
 15 16  1  0
 16 17  2  0
 17 18  1  0
 18 19  2  0
 18 20  1  0
 17 21  1  0
 21 22  2  0
  5 23  2  0
 23 24  1  0
 23 25  1  0
 25  3  1  0
 22 10  1  0
 22 14  1  0
M  CHG  2  18   1  20  -1
M  END
>  <energy_score>  (1477) 
-31.175064

>  <inchikey>  (1477) 
OWIBAEFFDAMNBK-UHFFFAOYSA-N

>  <smiles>  (1477) 
CCc1nc(CNC(=O)c2nn(C)c3ccc([N+](=O)[O-])cc23)c(C)o1

>  <ref_pdb>  (1477) 
A0514a

>  <alias>  (1477) 
OWIBAEFFDAMNBK-UHFFFAOYSA-N-P126-P126-P177-601502

>  <HIPPO Pose ID>  (1477) 
503006

>  <name>  (1477) 
OWIBAEFFDAMNBK-UHFFFAOYSA-N-P126-P126-P177-601502

>  <HIPPO Compound ID>  (1477) 
299321

>  <ref_mols>  (1477) 
A3403a,A2290a

>  <distance_score>  (1477) 
0.746249

>  <inspiration_score>  (1477) 
None

$$$$
NTBJRVIQFRMSQP-UHFFFAOYSA-N-P177-P126-P177-601502
     RDKit          3D

 25 28  0  0  0  0  0  0  0  0999 V2000
    8.9553    8.9908   23.1731 C   0  0  0  0  0  0  0  0  0  0  0  0
    8.9446   10.3141   23.7466 N   0  0  0  0  0  0  0  0  0  0  0  0
    9.8188   11.2094   23.2883 N   0  0  0  0  0  0  0  0  0  0  0  0
    9.6235   12.3061   24.0434 C   0  0  0  0  0  0  0  0  0  0  0  0
   10.4743   13.4881   23.8379 C   0  0  0  0  0  0  0  0  0  0  0  0
   10.5167   14.3821   24.5824 O   0  0  0  0  0  0  0  0  0  0  0  0
   11.1920   13.2721   22.5059 N   0  0  0  0  0  0  0  0  0  0  0  0
   12.0324   14.1347   21.7633 C   0  0  0  0  0  0  0  0  0  0  0  0
   11.2160   14.8655   20.8019 C   0  0  0  0  0  0  0  0  0  0  0  0
   11.1849   14.7655   19.4347 C   0  0  0  0  0  0  0  0  0  0  0  0
   10.2470   15.6228   18.9801 O   0  0  0  0  0  0  0  0  0  0  0  0
    9.8078   16.2605   20.1107 C   0  0  0  0  0  0  0  0  0  0  0  0
    8.9842   17.3953   20.0305 C   0  0  0  0  0  0  0  0  0  0  0  0
    8.2805   17.7884   18.9339 C   0  0  0  0  0  0  0  0  0  0  0  0
    7.7023   19.0482   19.0035 C   0  0  0  0  0  0  0  0  0  0  0  0
    8.0493   19.6021   20.1849 C   0  0  0  0  0  0  0  0  0  0  0  0
    8.8159   18.5203   21.2364 S   0  0  0  0  0  0  0  0  0  0  0  0
   10.3272   15.8031   21.2251 N   0  0  0  0  0  0  0  0  0  0  0  0
    8.5615   12.1132   24.9570 C   0  0  0  0  0  0  0  0  0  0  0  0
    7.9207   12.8972   25.9327 C   0  0  0  0  0  0  0  0  0  0  0  0
    6.8767   12.3285   26.6642 C   0  0  0  0  0  0  0  0  0  0  0  0
    6.0214   13.3489   28.0074 Br  0  0  0  0  0  0  0  0  0  0  0  0
    6.4656   11.0190   26.4368 C   0  0  0  0  0  0  0  0  0  0  0  0
    7.0892   10.2355   25.4639 C   0  0  0  0  0  0  0  0  0  0  0  0
    8.1357   10.8036   24.7383 C   0  0  0  0  0  0  0  0  0  0  0  0
  1  2  1  0
  2  3  1  0
  3  4  2  0
  4  5  1  0
  5  6  2  0
  5  7  1  0
  7  8  1  0
  8  9  1  0
  9 10  2  0
 10 11  1  0
 11 12  1  0
 12 13  1  0
 13 14  2  0
 14 15  1  0
 15 16  2  0
 16 17  1  0
 12 18  2  0
  4 19  1  0
 19 20  2  0
 20 21  1  0
 21 22  1  0
 21 23  2  0
 23 24  1  0
 24 25  2  0
 25  2  1  0
 18  9  1  0
 25 19  1  0
 17 13  1  0
M  END
>  <energy_score>  (1478) 
-8.388389

>  <inchikey>  (1478) 
NTBJRVIQFRMSQP-UHFFFAOYSA-N

>  <smiles>  (1478) 
Cn1nc(C(=O)NCc2coc(-c3cccs3)n2)c2cc(Br)ccc21

>  <ref_pdb>  (1478) 
A0514a

>  <alias>  (1478) 
NTBJRVIQFRMSQP-UHFFFAOYSA-N-P177-P126-P177-601502

>  <HIPPO Pose ID>  (1478) 
503009

>  <name>  (1478) 
NTBJRVIQFRMSQP-UHFFFAOYSA-N-P177-P126-P177-601502

>  <HIPPO Compound ID>  (1478) 
299322

>  <ref_mols>  (1478) 
A3403a,A2290a

>  <distance_score>  (1478) 
0.744899

>  <inspiration_score>  (1478) 
None

$$$$
XROBYZCVCIAKRA-UHFFFAOYSA-N-P177-P126-P177-601502
     RDKit          3D

 25 28  0  0  0  0  0  0  0  0999 V2000
    8.9510    8.9892   23.1860 C   0  0  0  0  0  0  0  0  0  0  0  0
    8.9415   10.3143   23.7558 N   0  0  0  0  0  0  0  0  0  0  0  0
    9.8169   11.2084   23.2955 N   0  0  0  0  0  0  0  0  0  0  0  0
    9.6212   12.3076   24.0469 C   0  0  0  0  0  0  0  0  0  0  0  0
   10.4733   13.4884   23.8396 C   0  0  0  0  0  0  0  0  0  0  0  0
   10.5181   14.3824   24.5840 O   0  0  0  0  0  0  0  0  0  0  0  0
   11.1897   13.2707   22.5072 N   0  0  0  0  0  0  0  0  0  0  0  0
   12.0314   14.1316   21.7638 C   0  0  0  0  0  0  0  0  0  0  0  0
   11.2162   14.8639   20.8026 C   0  0  0  0  0  0  0  0  0  0  0  0
   11.1857   14.7647   19.4353 C   0  0  0  0  0  0  0  0  0  0  0  0
   10.2483   15.6226   18.9807 O   0  0  0  0  0  0  0  0  0  0  0  0
    9.8088   16.2600   20.1112 C   0  0  0  0  0  0  0  0  0  0  0  0
    8.9850   17.3947   20.0309 C   0  0  0  0  0  0  0  0  0  0  0  0
    8.2814   17.7876   18.9342 C   0  0  0  0  0  0  0  0  0  0  0  0
    7.7028   19.0473   19.0036 C   0  0  0  0  0  0  0  0  0  0  0  0
    8.0496   19.6015   20.1849 C   0  0  0  0  0  0  0  0  0  0  0  0
    8.8161   18.5199   21.2366 S   0  0  0  0  0  0  0  0  0  0  0  0
   10.3279   15.8022   21.2257 N   0  0  0  0  0  0  0  0  0  0  0  0
    8.5578   12.1189   24.9594 C   0  0  0  0  0  0  0  0  0  0  0  0
    7.9161   12.9054   25.9308 C   0  0  0  0  0  0  0  0  0  0  0  0
    6.8739   12.3370   26.6578 C   0  0  0  0  0  0  0  0  0  0  0  0
    6.2686   13.0616   27.6086 F   0  0  0  0  0  0  0  0  0  0  0  0
    6.4601   11.0306   26.4396 C   0  0  0  0  0  0  0  0  0  0  0  0
    7.0826   10.2416   25.4714 C   0  0  0  0  0  0  0  0  0  0  0  0
    8.1309   10.8078   24.7447 C   0  0  0  0  0  0  0  0  0  0  0  0
  1  2  1  0
  2  3  1  0
  3  4  2  0
  4  5  1  0
  5  6  2  0
  5  7  1  0
  7  8  1  0
  8  9  1  0
  9 10  2  0
 10 11  1  0
 11 12  1  0
 12 13  1  0
 13 14  2  0
 14 15  1  0
 15 16  2  0
 16 17  1  0
 12 18  2  0
  4 19  1  0
 19 20  2  0
 20 21  1  0
 21 22  1  0
 21 23  2  0
 23 24  1  0
 24 25  2  0
 25  2  1  0
 18  9  1  0
 25 19  1  0
 17 13  1  0
M  END
>  <energy_score>  (1479) 
-4.075846

>  <inchikey>  (1479) 
XROBYZCVCIAKRA-UHFFFAOYSA-N

>  <smiles>  (1479) 
Cn1nc(C(=O)NCc2coc(-c3cccs3)n2)c2cc(F)ccc21

>  <ref_pdb>  (1479) 
A0514a

>  <alias>  (1479) 
XROBYZCVCIAKRA-UHFFFAOYSA-N-P177-P126-P177-601502

>  <HIPPO Pose ID>  (1479) 
503013

>  <name>  (1479) 
XROBYZCVCIAKRA-UHFFFAOYSA-N-P177-P126-P177-601502

>  <HIPPO Compound ID>  (1479) 
299324

>  <ref_mols>  (1479) 
A3403a,A2290a

>  <distance_score>  (1479) 
0.747993

>  <inspiration_score>  (1479) 
None

$$$$
SBGDIGLWCCNIQC-UHFFFAOYSA-N-P177-P126-P177-601502
     RDKit          3D

 25 27  0  0  0  0  0  0  0  0999 V2000
   11.3250   14.2191   18.2599 C   0  0  0  0  0  0  0  0  0  0  0  0
   11.2767   15.5645   18.8307 C   0  0  0  0  0  0  0  0  0  0  0  0
   10.3304   15.7481   19.9096 C   0  0  0  0  0  0  0  0  0  0  0  0
    9.3169   16.6293   19.7453 O   0  0  0  0  0  0  0  0  0  0  0  0
    8.7619   16.6858   20.9861 C   0  0  0  0  0  0  0  0  0  0  0  0
    9.3077   15.8939   21.8806 N   0  0  0  0  0  0  0  0  0  0  0  0
   10.3849   15.3637   21.2216 C   0  0  0  0  0  0  0  0  0  0  0  0
   11.4612   14.6072   21.8948 C   0  0  0  0  0  0  0  0  0  0  0  0
   10.8407   13.5717   22.6228 N   0  0  0  0  0  0  0  0  0  0  0  0
   10.3343   13.5365   24.0601 C   0  0  0  0  0  0  0  0  0  0  0  0
   10.4131   14.3290   24.9077 O   0  0  0  0  0  0  0  0  0  0  0  0
    9.5831   12.2915   24.2061 C   0  0  0  0  0  0  0  0  0  0  0  0
    9.8395   11.2419   23.4055 N   0  0  0  0  0  0  0  0  0  0  0  0
    8.9698   10.3040   23.7927 N   0  0  0  0  0  0  0  0  0  0  0  0
    9.0152    9.0121   23.1511 C   0  0  0  0  0  0  0  0  0  0  0  0
    8.1211   10.7294   24.7835 C   0  0  0  0  0  0  0  0  0  0  0  0
    7.0651   10.1135   25.4474 C   0  0  0  0  0  0  0  0  0  0  0  0
    6.3848   10.8362   26.4317 C   0  0  0  0  0  0  0  0  0  0  0  0
    6.7482   12.1477   26.7420 C   0  0  0  0  0  0  0  0  0  0  0  0
    6.0612   12.9159   27.8096 C   0  0  0  0  0  0  0  0  0  0  0  0
    6.5699   13.8590   28.3937 O   0  0  0  0  0  0  0  0  0  0  0  0
    4.8186   12.4154   28.0296 O   0  0  0  0  0  0  0  0  0  0  0  0
    4.0797   13.1329   29.0187 C   0  0  0  0  0  0  0  0  0  0  0  0
    7.8175   12.7566   26.0711 C   0  0  0  0  0  0  0  0  0  0  0  0
    8.5090   12.0301   25.0837 C   0  0  0  0  0  0  0  0  0  0  0  0
  1  2  1  0
  2  3  1  0
  3  4  1  0
  4  5  1  0
  5  6  2  0
  6  7  1  0
  7  8  1  0
  8  9  1  0
  9 10  1  0
 10 11  2  0
 10 12  1  0
 12 13  2  0
 13 14  1  0
 14 15  1  0
 14 16  1  0
 16 17  2  0
 17 18  1  0
 18 19  2  0
 19 20  1  0
 20 21  2  0
 20 22  1  0
 22 23  1  0
 19 24  1  0
 24 25  2  0
  7  3  2  0
 25 12  1  0
 25 16  1  0
M  END
>  <energy_score>  (1480) 
-36.256998

>  <inchikey>  (1480) 
SBGDIGLWCCNIQC-UHFFFAOYSA-N

>  <smiles>  (1480) 
CCc1ocnc1CNC(=O)c1nn(C)c2ccc(C(=O)OC)cc12

>  <ref_pdb>  (1480) 
A0514a

>  <alias>  (1480) 
SBGDIGLWCCNIQC-UHFFFAOYSA-N-P177-P126-P177-601502

>  <HIPPO Pose ID>  (1480) 
503017

>  <name>  (1480) 
SBGDIGLWCCNIQC-UHFFFAOYSA-N-P177-P126-P177-601502

>  <HIPPO Compound ID>  (1480) 
299326

>  <ref_mols>  (1480) 
A3403a,A2290a

>  <distance_score>  (1480) 
1.0037

>  <inspiration_score>  (1480) 
None

$$$$
AODLDJIKCKWMCG-UHFFFAOYSA-N-P126-P126-P177-601502
     RDKit          3D

 25 28  0  0  0  0  0  0  0  0999 V2000
    5.4372   14.5687   28.4266 C   0  0  0  0  0  0  0  0  0  0  0  0
    6.2929   13.7860   27.5936 O   0  0  0  0  0  0  0  0  0  0  0  0
    5.9010   12.4959   27.4501 C   0  0  0  0  0  0  0  0  0  0  0  0
    4.9546   11.9693   28.0146 O   0  0  0  0  0  0  0  0  0  0  0  0
    6.8103   11.7755   26.5179 C   0  0  0  0  0  0  0  0  0  0  0  0
    6.6296   10.3996   26.3503 C   0  0  0  0  0  0  0  0  0  0  0  0
    7.4194    9.6673   25.4570 C   0  0  0  0  0  0  0  0  0  0  0  0
    8.3951   10.3453   24.7260 C   0  0  0  0  0  0  0  0  0  0  0  0
    8.6080   11.7089   24.8918 C   0  0  0  0  0  0  0  0  0  0  0  0
    7.8120   12.4409   25.7949 C   0  0  0  0  0  0  0  0  0  0  0  0
    9.6276   12.0229   23.9680 C   0  0  0  0  0  0  0  0  0  0  0  0
   10.1931   13.3332   23.6811 C   0  0  0  0  0  0  0  0  0  0  0  0
   10.2554   14.1763   24.4826 O   0  0  0  0  0  0  0  0  0  0  0  0
   10.5922   13.3367   22.2010 N   0  0  0  0  0  0  0  0  0  0  0  0
   11.2244   14.3209   21.4311 C   0  0  0  0  0  0  0  0  0  0  0  0
   10.2915   15.2743   20.6396 C   0  0  0  0  0  0  0  0  0  0  0  0
   10.3035   15.4704   19.2856 C   0  0  0  0  0  0  0  0  0  0  0  0
    9.5473   16.5699   19.0139 O   0  0  0  0  0  0  0  0  0  0  0  0
    9.0875   16.9482   20.2378 C   0  0  0  0  0  0  0  0  0  0  0  0
    9.4513   16.1652   21.2246 N   0  0  0  0  0  0  0  0  0  0  0  0
   12.5241   13.9397   20.7793 C   0  0  0  0  0  0  0  0  0  0  0  0
   12.5238   14.8853   21.9232 C   0  0  0  0  0  0  0  0  0  0  0  0
   10.0192   10.9508   23.2615 N   0  0  0  0  0  0  0  0  0  0  0  0
    9.2690    9.9489   23.7411 N   0  0  0  0  0  0  0  0  0  0  0  0
    9.3908    8.6572   23.1118 C   0  0  0  0  0  0  0  0  0  0  0  0
  1  2  1  0
  2  3  1  0
  3  4  2  0
  3  5  1  0
  5  6  2  0
  6  7  1  0
  7  8  2  0
  8  9  1  0
  9 10  2  0
  9 11  1  0
 11 12  1  0
 12 13  2  0
 12 14  1  0
 14 15  1  0
 15 16  1  0
 16 17  2  0
 17 18  1  0
 18 19  1  0
 19 20  2  0
 15 21  1  0
 21 22  1  0
 11 23  2  0
 23 24  1  0
 24 25  1  0
 10  5  1  0
 22 15  1  0
 24  8  1  0
 20 16  1  0
M  END
>  <energy_score>  (1481) 
-19.462889

>  <inchikey>  (1481) 
AODLDJIKCKWMCG-UHFFFAOYSA-N

>  <smiles>  (1481) 
COC(=O)c1ccc2c(c1)c(C(=O)NC1(c3cocn3)CC1)nn2C

>  <ref_pdb>  (1481) 
A0514a

>  <alias>  (1481) 
AODLDJIKCKWMCG-UHFFFAOYSA-N-P126-P126-P177-601502

>  <HIPPO Pose ID>  (1481) 
503022

>  <name>  (1481) 
AODLDJIKCKWMCG-UHFFFAOYSA-N-P126-P126-P177-601502

>  <HIPPO Compound ID>  (1481) 
299329

>  <ref_mols>  (1481) 
A3403a,A2290a

>  <distance_score>  (1481) 
0.790797

>  <inspiration_score>  (1481) 
None

$$$$
HERFLEJNIDWHEU-UHFFFAOYSA-N-P177-P126-P177-601502
     RDKit          3D

 26 28  0  0  0  0  0  0  0  0999 V2000
   11.5245   14.6795   18.4470 C   0  0  0  0  0  0  0  0  0  0  0  0
   10.9757   15.2480   19.6690 C   0  0  0  0  0  0  0  0  0  0  0  0
    9.9611   16.1378   19.5348 O   0  0  0  0  0  0  0  0  0  0  0  0
    9.7157   16.5334   20.8193 C   0  0  0  0  0  0  0  0  0  0  0  0
    8.4608   17.2625   21.0903 C   0  0  0  0  0  0  0  0  0  0  0  0
    7.5032   16.1660   21.6157 C   0  0  0  0  0  0  0  0  0  0  0  0
    8.0851   18.1457   19.8947 C   0  0  0  0  0  0  0  0  0  0  0  0
   10.4792   15.9697   21.7215 N   0  0  0  0  0  0  0  0  0  0  0  0
   11.2414   15.1066   21.0070 C   0  0  0  0  0  0  0  0  0  0  0  0
   12.1191   14.1711   21.7024 C   0  0  0  0  0  0  0  0  0  0  0  0
   11.2930   13.2780   22.4405 N   0  0  0  0  0  0  0  0  0  0  0  0
   10.6031   13.4508   23.7981 C   0  0  0  0  0  0  0  0  0  0  0  0
   10.6604   14.3223   24.5697 O   0  0  0  0  0  0  0  0  0  0  0  0
    9.7209   12.2863   23.9863 C   0  0  0  0  0  0  0  0  0  0  0  0
    9.8912   11.1898   23.2297 N   0  0  0  0  0  0  0  0  0  0  0  0
    9.0049   10.3065   23.6873 N   0  0  0  0  0  0  0  0  0  0  0  0
    9.0029    8.9787   23.1228 C   0  0  0  0  0  0  0  0  0  0  0  0
    8.1934   10.8117   24.6700 C   0  0  0  0  0  0  0  0  0  0  0  0
    7.1332   10.2541   25.3860 C   0  0  0  0  0  0  0  0  0  0  0  0
    6.4991   11.0477   26.3428 C   0  0  0  0  0  0  0  0  0  0  0  0
    6.9254   12.3603   26.5660 C   0  0  0  0  0  0  0  0  0  0  0  0
    6.2623   13.1606   27.5999 N   0  0  0  0  0  0  0  0  0  0  0  0
    6.8618   14.1581   28.0256 O   0  0  0  0  0  0  0  0  0  0  0  0
    5.1630   12.7667   28.0164 O   0  0  0  0  0  0  0  0  0  0  0  0
    7.9971   12.9160   25.8501 C   0  0  0  0  0  0  0  0  0  0  0  0
    8.6386   12.1161   24.8865 C   0  0  0  0  0  0  0  0  0  0  0  0
  1  2  1  0
  2  3  1  0
  3  4  1  0
  4  5  1  0
  5  6  1  0
  5  7  1  0
  4  8  2  0
  8  9  1  0
  9 10  1  0
 10 11  1  0
 11 12  1  0
 12 13  2  0
 12 14  1  0
 14 15  2  0
 15 16  1  0
 16 17  1  0
 16 18  1  0
 18 19  2  0
 19 20  1  0
 20 21  2  0
 21 22  1  0
 22 23  2  0
 22 24  1  0
 21 25  1  0
 25 26  2  0
  9  2  2  0
 26 14  1  0
 26 18  1  0
M  CHG  2  22   1  24  -1
M  END
>  <energy_score>  (1482) 
-51.289669

>  <inchikey>  (1482) 
HERFLEJNIDWHEU-UHFFFAOYSA-N

>  <smiles>  (1482) 
Cc1oc(C(C)C)nc1CNC(=O)c1nn(C)c2ccc([N+](=O)[O-])cc12

>  <ref_pdb>  (1482) 
A0514a

>  <alias>  (1482) 
HERFLEJNIDWHEU-UHFFFAOYSA-N-P177-P126-P177-601502

>  <HIPPO Pose ID>  (1482) 
503041

>  <name>  (1482) 
HERFLEJNIDWHEU-UHFFFAOYSA-N-P177-P126-P177-601502

>  <HIPPO Compound ID>  (1482) 
299338

>  <ref_mols>  (1482) 
A3403a,A2290a

>  <distance_score>  (1482) 
0.735363

>  <inspiration_score>  (1482) 
None

$$$$
JAVATXZJOCJFNK-UHFFFAOYSA-N-P177-P126-P177-601502
     RDKit          3D

 26 28  0  0  0  0  0  0  0  0999 V2000
    9.1516    9.3198   23.1871 C   0  0  0  0  0  0  0  0  0  0  0  0
    8.9130   10.5335   23.9396 N   0  0  0  0  0  0  0  0  0  0  0  0
    9.6808   11.6162   23.7227 N   0  0  0  0  0  0  0  0  0  0  0  0
    9.2459   12.5078   24.6372 C   0  0  0  0  0  0  0  0  0  0  0  0
    9.8339   13.8296   24.7712 C   0  0  0  0  0  0  0  0  0  0  0  0
    9.8771   14.4088   25.7744 O   0  0  0  0  0  0  0  0  0  0  0  0
   10.3328   14.2091   23.3985 N   0  0  0  0  0  0  0  0  0  0  0  0
   10.9040   15.4033   22.9325 C   0  0  0  0  0  0  0  0  0  0  0  0
   10.1275   16.0607   21.8596 C   0  0  0  0  0  0  0  0  0  0  0  0
    8.8773   16.6118   21.9831 N   0  0  0  0  0  0  0  0  0  0  0  0
    8.6940   17.2408   20.8447 C   0  0  0  0  0  0  0  0  0  0  0  0
    9.6037   16.9533   19.8837 O   0  0  0  0  0  0  0  0  0  0  0  0
   10.4765   16.1469   20.5394 C   0  0  0  0  0  0  0  0  0  0  0  0
   11.2208   15.1582   19.7724 C   0  0  0  0  0  0  0  0  0  0  0  0
   12.5879   14.7813   20.2906 C   0  0  0  0  0  0  0  0  0  0  0  0
   10.3169   13.9950   20.0157 C   0  0  0  0  0  0  0  0  0  0  0  0
   11.1949   15.3704   18.2861 C   0  0  0  0  0  0  0  0  0  0  0  0
    8.1588   12.0338   25.3790 C   0  0  0  0  0  0  0  0  0  0  0  0
    7.3251   12.5778   26.3716 C   0  0  0  0  0  0  0  0  0  0  0  0
    6.3220   11.7610   26.8918 C   0  0  0  0  0  0  0  0  0  0  0  0
    5.4342   12.2747   27.9338 N   0  0  0  0  0  0  0  0  0  0  0  0
    5.8607   13.1937   28.6464 O   0  0  0  0  0  0  0  0  0  0  0  0
    4.3235   11.7361   28.0582 O   0  0  0  0  0  0  0  0  0  0  0  0
    6.1714   10.4459   26.4606 C   0  0  0  0  0  0  0  0  0  0  0  0
    6.9944    9.9263   25.4599 C   0  0  0  0  0  0  0  0  0  0  0  0
    7.9732   10.7410   24.9190 C   0  0  0  0  0  0  0  0  0  0  0  0
  1  2  1  0
  2  3  1  0
  3  4  2  0
  4  5  1  0
  5  6  2  0
  5  7  1  0
  7  8  1  0
  8  9  1  0
  9 10  1  0
 10 11  2  0
 11 12  1  0
 12 13  1  0
 13 14  1  0
 14 15  1  0
 14 16  1  0
 14 17  1  0
  4 18  1  0
 18 19  2  0
 19 20  1  0
 20 21  1  0
 21 22  2  0
 21 23  1  0
 20 24  2  0
 24 25  1  0
 25 26  2  0
 26  2  1  0
 13  9  2  0
 26 18  1  0
M  CHG  2  21   1  23  -1
M  END
>  <energy_score>  (1483) 
-2.323564

>  <inchikey>  (1483) 
JAVATXZJOCJFNK-UHFFFAOYSA-N

>  <smiles>  (1483) 
Cn1nc(C(=O)NCc2ncoc2C(C)(C)C)c2cc([N+](=O)[O-])ccc21

>  <ref_pdb>  (1483) 
A0514a

>  <alias>  (1483) 
JAVATXZJOCJFNK-UHFFFAOYSA-N-P177-P126-P177-601502

>  <HIPPO Pose ID>  (1483) 
503043

>  <name>  (1483) 
JAVATXZJOCJFNK-UHFFFAOYSA-N-P177-P126-P177-601502

>  <HIPPO Compound ID>  (1483) 
299339

>  <ref_mols>  (1483) 
A3403a,A2290a

>  <distance_score>  (1483) 
1.431956

>  <inspiration_score>  (1483) 
None

$$$$
QTRPXANGCJGRDD-UHFFFAOYSA-N-P177-P126-P177-601502
     RDKit          3D

 26 28  0  0  0  0  0  0  0  0999 V2000
    9.1271    9.0383   23.0842 C   0  0  0  0  0  0  0  0  0  0  0  0
    9.0358   10.3518   23.6796 N   0  0  0  0  0  0  0  0  0  0  0  0
    9.8574   11.3189   23.2539 N   0  0  0  0  0  0  0  0  0  0  0  0
    9.5682   12.3809   24.0250 C   0  0  0  0  0  0  0  0  0  0  0  0
   10.2987   13.6463   23.8710 C   0  0  0  0  0  0  0  0  0  0  0  0
   10.2483   14.4837   24.6780 O   0  0  0  0  0  0  0  0  0  0  0  0
   10.9925   13.6224   22.5087 N   0  0  0  0  0  0  0  0  0  0  0  0
   11.6863   14.6423   21.8099 C   0  0  0  0  0  0  0  0  0  0  0  0
   10.7308   15.3539   20.9405 C   0  0  0  0  0  0  0  0  0  0  0  0
    9.7653   16.1791   21.4556 N   0  0  0  0  0  0  0  0  0  0  0  0
    9.2227   16.7387   20.4031 C   0  0  0  0  0  0  0  0  0  0  0  0
    9.6975   16.2817   19.2101 O   0  0  0  0  0  0  0  0  0  0  0  0
   10.6702   15.3867   19.5699 C   0  0  0  0  0  0  0  0  0  0  0  0
   11.4663   14.7211   18.5422 C   0  0  0  0  0  0  0  0  0  0  0  0
   11.9205   15.5555   17.5876 F   0  0  0  0  0  0  0  0  0  0  0  0
   10.7874   13.7192   17.9481 F   0  0  0  0  0  0  0  0  0  0  0  0
   12.5652   14.1351   19.0832 F   0  0  0  0  0  0  0  0  0  0  0  0
    8.5056   12.0970   24.9169 C   0  0  0  0  0  0  0  0  0  0  0  0
    7.7892   12.8212   25.8890 C   0  0  0  0  0  0  0  0  0  0  0  0
    6.7580   12.1644   26.5752 C   0  0  0  0  0  0  0  0  0  0  0  0
    6.0103   12.8828   27.6088 N   0  0  0  0  0  0  0  0  0  0  0  0
    4.8988   12.4365   27.9303 O   0  0  0  0  0  0  0  0  0  0  0  0
    6.5536   13.8677   28.1286 O   0  0  0  0  0  0  0  0  0  0  0  0
    6.4474   10.8276   26.3192 C   0  0  0  0  0  0  0  0  0  0  0  0
    7.1592   10.1131   25.3552 C   0  0  0  0  0  0  0  0  0  0  0  0
    8.1766   10.7685   24.6648 C   0  0  0  0  0  0  0  0  0  0  0  0
  1  2  1  0
  2  3  1  0
  3  4  2  0
  4  5  1  0
  5  6  2  0
  5  7  1  0
  7  8  1  0
  8  9  1  0
  9 10  1  0
 10 11  2  0
 11 12  1  0
 12 13  1  0
 13 14  1  0
 14 15  1  0
 14 16  1  0
 14 17  1  0
  4 18  1  0
 18 19  2  0
 19 20  1  0
 20 21  1  0
 21 22  2  0
 21 23  1  0
 20 24  2  0
 24 25  1  0
 25 26  2  0
 26  2  1  0
 13  9  2  0
 26 18  1  0
M  CHG  2  21   1  23  -1
M  END
>  <energy_score>  (1484) 
-45.423436

>  <inchikey>  (1484) 
QTRPXANGCJGRDD-UHFFFAOYSA-N

>  <smiles>  (1484) 
Cn1nc(C(=O)NCc2ncoc2C(F)(F)F)c2cc([N+](=O)[O-])ccc21

>  <ref_pdb>  (1484) 
A0514a

>  <alias>  (1484) 
QTRPXANGCJGRDD-UHFFFAOYSA-N-P177-P126-P177-601502

>  <HIPPO Pose ID>  (1484) 
503045

>  <name>  (1484) 
QTRPXANGCJGRDD-UHFFFAOYSA-N-P177-P126-P177-601502

>  <HIPPO Compound ID>  (1484) 
299340

>  <ref_mols>  (1484) 
A3403a,A2290a

>  <distance_score>  (1484) 
0.736618

>  <inspiration_score>  (1484) 
None

$$$$
KMTCIZWSPSUROP-UHFFFAOYSA-N-P177-P126-P177-601502
     RDKit          3D

 26 29  0  0  0  0  0  0  0  0999 V2000
   11.4870   14.6958   18.3696 C   0  0  0  0  0  0  0  0  0  0  0  0
   10.8056   15.3842   19.4571 C   0  0  0  0  0  0  0  0  0  0  0  0
    9.9145   16.3606   19.1316 O   0  0  0  0  0  0  0  0  0  0  0  0
    9.5634   16.8997   20.3391 C   0  0  0  0  0  0  0  0  0  0  0  0
    8.5336   18.0328   20.5368 C   0  0  0  0  0  0  0  0  0  0  0  0
    7.6133   18.2679   19.3796 C   0  0  0  0  0  0  0  0  0  0  0  0
    8.4096   19.3789   19.8540 C   0  0  0  0  0  0  0  0  0  0  0  0
   10.0977   16.2783   21.3690 N   0  0  0  0  0  0  0  0  0  0  0  0
   10.9159   15.3320   20.8217 C   0  0  0  0  0  0  0  0  0  0  0  0
   11.7792   14.4790   21.6529 C   0  0  0  0  0  0  0  0  0  0  0  0
   10.9431   13.5580   22.3393 N   0  0  0  0  0  0  0  0  0  0  0  0
   10.3781   13.5960   23.7602 C   0  0  0  0  0  0  0  0  0  0  0  0
   10.4415   14.4242   24.5765 O   0  0  0  0  0  0  0  0  0  0  0  0
    9.6170   12.3550   23.9644 C   0  0  0  0  0  0  0  0  0  0  0  0
    9.8720   11.2704   23.2144 N   0  0  0  0  0  0  0  0  0  0  0  0
    9.0380   10.3311   23.6664 N   0  0  0  0  0  0  0  0  0  0  0  0
    9.0983    9.0097   23.0868 C   0  0  0  0  0  0  0  0  0  0  0  0
    8.1988   10.7822   24.6535 C   0  0  0  0  0  0  0  0  0  0  0  0
    7.1739   10.1604   25.3657 C   0  0  0  0  0  0  0  0  0  0  0  0
    6.4914   10.9088   26.3253 C   0  0  0  0  0  0  0  0  0  0  0  0
    6.8372   12.2433   26.5552 C   0  0  0  0  0  0  0  0  0  0  0  0
    6.1197   12.9961   27.5868 N   0  0  0  0  0  0  0  0  0  0  0  0
    6.6807   13.9919   28.0640 O   0  0  0  0  0  0  0  0  0  0  0  0
    5.0154   12.5632   27.9486 O   0  0  0  0  0  0  0  0  0  0  0  0
    7.8741   12.8654   25.8449 C   0  0  0  0  0  0  0  0  0  0  0  0
    8.5622   12.1089   24.8776 C   0  0  0  0  0  0  0  0  0  0  0  0
  1  2  1  0
  2  3  1  0
  3  4  1  0
  4  5  1  0
  5  6  1  0
  6  7  1  0
  4  8  2  0
  8  9  1  0
  9 10  1  0
 10 11  1  0
 11 12  1  0
 12 13  2  0
 12 14  1  0
 14 15  2  0
 15 16  1  0
 16 17  1  0
 16 18  1  0
 18 19  2  0
 19 20  1  0
 20 21  2  0
 21 22  1  0
 22 23  2  0
 22 24  1  0
 21 25  1  0
 25 26  2  0
  9  2  2  0
 26 14  1  0
  7  5  1  0
 26 18  1  0
M  CHG  2  22   1  24  -1
M  END
>  <energy_score>  (1485) 
-49.149113

>  <inchikey>  (1485) 
KMTCIZWSPSUROP-UHFFFAOYSA-N

>  <smiles>  (1485) 
Cc1oc(C2CC2)nc1CNC(=O)c1nn(C)c2ccc([N+](=O)[O-])cc12

>  <ref_pdb>  (1485) 
A0514a

>  <alias>  (1485) 
KMTCIZWSPSUROP-UHFFFAOYSA-N-P177-P126-P177-601502

>  <HIPPO Pose ID>  (1485) 
503047

>  <name>  (1485) 
KMTCIZWSPSUROP-UHFFFAOYSA-N-P177-P126-P177-601502

>  <HIPPO Compound ID>  (1485) 
299341

>  <ref_mols>  (1485) 
A3403a,A2290a

>  <distance_score>  (1485) 
0.668604

>  <inspiration_score>  (1485) 
None

$$$$
JLXJYOOBLQSPMI-UHFFFAOYSA-N-P177-P126-P177-601502
     RDKit          3D

 26 29  0  0  0  0  0  0  0  0999 V2000
   12.3423   14.3752   21.8723 C   0  0  0  0  0  0  0  0  0  0  0  0
   11.0201   14.9977   22.2151 C   0  0  2  0  0  0  0  0  0  0  0  0
   10.2316   14.0671   22.9597 N   0  0  0  0  0  0  0  0  0  0  0  0
    9.8538   14.0462   24.4436 C   0  0  0  0  0  0  0  0  0  0  0  0
   10.1859   14.7408   25.3172 O   0  0  0  0  0  0  0  0  0  0  0  0
    9.0113   12.8688   24.6959 C   0  0  0  0  0  0  0  0  0  0  0  0
    9.0213   11.8110   23.8648 N   0  0  0  0  0  0  0  0  0  0  0  0
    8.2005   10.9281   24.4620 N   0  0  0  0  0  0  0  0  0  0  0  0
    7.8345    9.7282   23.7720 C   0  0  0  0  0  0  0  0  0  0  0  0
    8.8370    8.6094   23.7431 C   0  0  2  0  0  0  0  0  0  0  0  0
   10.2217    9.0474   23.5200 C   0  0  0  0  0  0  0  0  0  0  0  0
   10.1073    9.3749   22.1500 N   0  0  0  0  0  0  0  0  0  0  0  0
    9.3258    8.4483   21.5671 C   0  0  0  0  0  0  0  0  0  0  0  0
    9.3262    8.1498   20.3866 O   0  0  0  0  0  0  0  0  0  0  0  0
    8.6095    7.8473   22.5367 O   0  0  0  0  0  0  0  0  0  0  0  0
    7.6019   11.3850   25.5941 C   0  0  0  0  0  0  0  0  0  0  0  0
    6.6332   10.8217   26.4289 C   0  0  0  0  0  0  0  0  0  0  0  0
    6.1903   11.5953   27.4966 C   0  0  0  0  0  0  0  0  0  0  0  0
    6.6957   12.8755   27.7101 C   0  0  0  0  0  0  0  0  0  0  0  0
    7.6597   13.4240   26.8588 C   0  0  0  0  0  0  0  0  0  0  0  0
    8.1161   12.6609   25.7753 C   0  0  0  0  0  0  0  0  0  0  0  0
   10.3055   15.5441   21.0443 C   0  0  0  0  0  0  0  0  0  0  0  0
   10.4361   15.2839   19.6988 C   0  0  0  0  0  0  0  0  0  0  0  0
    9.7026   16.2074   19.0198 O   0  0  0  0  0  0  0  0  0  0  0  0
    9.1642   16.9835   19.9995 C   0  0  0  0  0  0  0  0  0  0  0  0
    9.4474   16.5995   21.2151 N   0  0  0  0  0  0  0  0  0  0  0  0
  2  1  1  6
  2  3  1  0
  3  4  1  0
  4  5  2  0
  4  6  1  0
  6  7  2  0
  7  8  1  0
  8  9  1  0
 10  9  1  6
 10 11  1  0
 11 12  1  0
 12 13  1  0
 13 14  2  0
 13 15  1  0
  8 16  1  0
 16 17  2  0
 17 18  1  0
 18 19  2  0
 19 20  1  0
 20 21  2  0
  2 22  1  0
 22 23  2  0
 23 24  1  0
 24 25  1  0
 25 26  2  0
 21  6  1  0
 26 22  1  0
 15 10  1  0
 21 16  1  0
M  END
>  <energy_score>  (1486) 
-10.690703

>  <inchikey>  (1486) 
JLXJYOOBLQSPMI-UHFFFAOYSA-N

>  <smiles>  (1486) 
CC(NC(=O)c1nn(CC2CNC(=O)O2)c2ccccc12)c1cocn1

>  <ref_pdb>  (1486) 
A0514a

>  <alias>  (1486) 
JLXJYOOBLQSPMI-UHFFFAOYSA-N-P177-P126-P177-601502

>  <HIPPO Pose ID>  (1486) 
503051

>  <name>  (1486) 
JLXJYOOBLQSPMI-UHFFFAOYSA-N-P177-P126-P177-601502

>  <HIPPO Compound ID>  (1486) 
299343

>  <ref_mols>  (1486) 
A3403a,A2290a

>  <distance_score>  (1486) 
1.534356

>  <inspiration_score>  (1486) 
None

$$$$
ACNFQTIYCROSJT-UHFFFAOYSA-N-P126-P126-P177-601502
     RDKit          3D

 26 29  0  0  0  0  0  0  0  0999 V2000
    9.3507    8.7188   23.1434 C   0  0  0  0  0  0  0  0  0  0  0  0
    9.2633    9.9857   23.8277 N   0  0  0  0  0  0  0  0  0  0  0  0
   10.1438   10.9373   23.4923 N   0  0  0  0  0  0  0  0  0  0  0  0
    9.8229   11.9828   24.2757 C   0  0  0  0  0  0  0  0  0  0  0  0
   10.6333   13.2016   24.2331 C   0  0  0  0  0  0  0  0  0  0  0  0
   10.5462   14.0450   25.0295 O   0  0  0  0  0  0  0  0  0  0  0  0
   11.4684   13.1260   22.9593 N   0  0  0  0  0  0  0  0  0  0  0  0
   12.2961   14.0945   22.3427 C   0  0  0  0  0  0  0  0  0  0  0  0
   11.5651   14.5894   21.1789 C   0  0  0  0  0  0  0  0  0  0  0  0
   11.8094   14.3980   19.8450 C   0  0  0  0  0  0  0  0  0  0  0  0
   10.8769   15.0802   19.1472 O   0  0  0  0  0  0  0  0  0  0  0  0
   10.1569   15.7169   20.1121 C   0  0  0  0  0  0  0  0  0  0  0  0
    9.3629   16.8250   19.6775 C   0  0  0  0  0  0  0  0  0  0  0  0
    9.1809   17.1131   18.3388 C   0  0  0  0  0  0  0  0  0  0  0  0
    8.2832   18.0813   17.9698 C   0  0  0  0  0  0  0  0  0  0  0  0
    7.6961   18.8744   18.9320 C   0  0  0  0  0  0  0  0  0  0  0  0
    8.0502   18.7445   20.2414 C   0  0  0  0  0  0  0  0  0  0  0  0
    8.7998   17.6657   20.6210 C   0  0  0  0  0  0  0  0  0  0  0  0
   10.4594   15.3740   21.3430 N   0  0  0  0  0  0  0  0  0  0  0  0
    8.6813   11.7169   25.0629 C   0  0  0  0  0  0  0  0  0  0  0  0
    7.9009   12.4462   25.9783 C   0  0  0  0  0  0  0  0  0  0  0  0
    6.8499   11.7962   26.6171 C   0  0  0  0  0  0  0  0  0  0  0  0
    6.1141   12.4644   27.5158 F   0  0  0  0  0  0  0  0  0  0  0  0
    6.5662   10.4606   26.3707 C   0  0  0  0  0  0  0  0  0  0  0  0
    7.3243    9.7318   25.4510 C   0  0  0  0  0  0  0  0  0  0  0  0
    8.3701   10.3857   24.7931 C   0  0  0  0  0  0  0  0  0  0  0  0
  1  2  1  0
  2  3  1  0
  3  4  2  0
  4  5  1  0
  5  6  2  0
  5  7  1  0
  7  8  1  0
  8  9  1  0
  9 10  2  0
 10 11  1  0
 11 12  1  0
 12 13  1  0
 13 14  2  0
 14 15  1  0
 15 16  2  0
 16 17  1  0
 17 18  2  0
 12 19  2  0
  4 20  1  0
 20 21  2  0
 21 22  1  0
 22 23  1  0
 22 24  2  0
 24 25  1  0
 25 26  2  0
 26  2  1  0
 19  9  1  0
 26 20  1  0
 18 13  1  0
M  END
>  <energy_score>  (1487) 
-6.196344

>  <inchikey>  (1487) 
ACNFQTIYCROSJT-UHFFFAOYSA-N

>  <smiles>  (1487) 
Cn1nc(C(=O)NCc2coc(-c3ccccc3)n2)c2cc(F)ccc21

>  <ref_pdb>  (1487) 
A0514a

>  <alias>  (1487) 
ACNFQTIYCROSJT-UHFFFAOYSA-N-P126-P126-P177-601502

>  <HIPPO Pose ID>  (1487) 
503056

>  <name>  (1487) 
ACNFQTIYCROSJT-UHFFFAOYSA-N-P126-P126-P177-601502

>  <HIPPO Compound ID>  (1487) 
299346

>  <ref_mols>  (1487) 
A3403a,A2290a

>  <distance_score>  (1487) 
1.012008

>  <inspiration_score>  (1487) 
None

$$$$
FPYUUHWSAQVHMK-UHFFFAOYSA-N-P177-P126-P177-601502
     RDKit          3D

 26 29  0  0  0  0  0  0  0  0999 V2000
   11.7897   14.3735   18.4645 C   0  0  0  0  0  0  0  0  0  0  0  0
   11.0355   15.0939   19.4478 C   0  0  0  0  0  0  0  0  0  0  0  0
   10.1482   15.9496   18.9288 O   0  0  0  0  0  0  0  0  0  0  0  0
    9.7688   16.6621   20.0019 C   0  0  0  0  0  0  0  0  0  0  0  0
    9.0291   17.9374   19.7657 C   0  0  0  0  0  0  0  0  0  0  0  0
    7.6359   17.9413   20.1082 C   0  0  0  0  0  0  0  0  0  0  0  0
    8.5651   18.8323   20.8448 C   0  0  0  0  0  0  0  0  0  0  0  0
   10.2038   16.2316   21.1623 N   0  0  0  0  0  0  0  0  0  0  0  0
   11.0407   15.2134   20.8090 C   0  0  0  0  0  0  0  0  0  0  0  0
   11.8516   14.4975   21.7912 C   0  0  0  0  0  0  0  0  0  0  0  0
   11.0047   13.5868   22.4654 N   0  0  0  0  0  0  0  0  0  0  0  0
   10.4045   13.6413   23.8703 C   0  0  0  0  0  0  0  0  0  0  0  0
   10.4451   14.4800   24.6771 O   0  0  0  0  0  0  0  0  0  0  0  0
    9.6675   12.3858   24.0590 C   0  0  0  0  0  0  0  0  0  0  0  0
    9.9673   11.3211   23.2984 N   0  0  0  0  0  0  0  0  0  0  0  0
    9.1204   10.3472   23.6962 N   0  0  0  0  0  0  0  0  0  0  0  0
    9.1344    9.0296   23.0442 C   0  0  0  0  0  0  0  0  0  0  0  0
    9.7476    9.0423   21.8380 F   0  0  0  0  0  0  0  0  0  0  0  0
    7.8720    8.6062   22.8382 F   0  0  0  0  0  0  0  0  0  0  0  0
    9.7454    8.0876   23.7974 F   0  0  0  0  0  0  0  0  0  0  0  0
    8.2607   10.7802   24.6866 C   0  0  0  0  0  0  0  0  0  0  0  0
    7.2168   10.1522   25.3668 C   0  0  0  0  0  0  0  0  0  0  0  0
    6.5171   10.8865   26.3275 C   0  0  0  0  0  0  0  0  0  0  0  0
    6.8445   12.2107   26.5965 C   0  0  0  0  0  0  0  0  0  0  0  0
    7.8885   12.8345   25.9107 C   0  0  0  0  0  0  0  0  0  0  0  0
    8.6065   12.1050   24.9462 C   0  0  0  0  0  0  0  0  0  0  0  0
  1  2  1  0
  2  3  1  0
  3  4  1  0
  4  5  1  0
  5  6  1  0
  6  7  1  0
  4  8  2  0
  8  9  1  0
  9 10  1  0
 10 11  1  0
 11 12  1  0
 12 13  2  0
 12 14  1  0
 14 15  2  0
 15 16  1  0
 16 17  1  0
 17 18  1  0
 17 19  1  0
 17 20  1  0
 16 21  1  0
 21 22  2  0
 22 23  1  0
 23 24  2  0
 24 25  1  0
 25 26  2  0
  9  2  2  0
 26 14  1  0
  7  5  1  0
 26 21  1  0
M  END
>  <energy_score>  (1488) 
-17.244752

>  <inchikey>  (1488) 
FPYUUHWSAQVHMK-UHFFFAOYSA-N

>  <smiles>  (1488) 
Cc1oc(C2CC2)nc1CNC(=O)c1nn(C(F)(F)F)c2ccccc12

>  <ref_pdb>  (1488) 
A0514a

>  <alias>  (1488) 
FPYUUHWSAQVHMK-UHFFFAOYSA-N-P177-P126-P177-601502

>  <HIPPO Pose ID>  (1488) 
503063

>  <name>  (1488) 
FPYUUHWSAQVHMK-UHFFFAOYSA-N-P177-P126-P177-601502

>  <HIPPO Compound ID>  (1488) 
299349

>  <ref_mols>  (1488) 
A3403a,A2290a

>  <distance_score>  (1488) 
0.69781

>  <inspiration_score>  (1488) 
None

$$$$
XOCZJRGSMWMOPV-UHFFFAOYSA-N-P177-P126-P177-601502
     RDKit          3D

 26 28  0  0  0  0  0  0  0  0999 V2000
    9.6965   13.9642   20.4716 C   0  0  0  0  0  0  0  0  0  0  0  0
   10.8474   14.8054   19.9073 C   0  0  0  0  0  0  0  0  0  0  0  0
   10.7667   14.9415   18.4132 C   0  0  0  0  0  0  0  0  0  0  0  0
   12.2162   14.2699   20.2822 C   0  0  0  0  0  0  0  0  0  0  0  0
   10.4942   16.0504   20.5686 C   0  0  0  0  0  0  0  0  0  0  0  0
    9.6549   16.9021   19.9144 O   0  0  0  0  0  0  0  0  0  0  0  0
    8.7952   17.2670   20.8953 C   0  0  0  0  0  0  0  0  0  0  0  0
    9.0063   16.6651   22.0426 N   0  0  0  0  0  0  0  0  0  0  0  0
   10.2639   16.1184   21.9127 C   0  0  0  0  0  0  0  0  0  0  0  0
   11.0878   15.4865   22.9805 C   0  0  0  0  0  0  0  0  0  0  0  0
   10.5665   14.2822   23.4981 N   0  0  0  0  0  0  0  0  0  0  0  0
    9.7976   14.0101   24.7715 C   0  0  0  0  0  0  0  0  0  0  0  0
    9.5262   14.7142   25.6521 O   0  0  0  0  0  0  0  0  0  0  0  0
    9.3179   12.6274   24.6799 C   0  0  0  0  0  0  0  0  0  0  0  0
    9.8271   11.7311   23.8058 N   0  0  0  0  0  0  0  0  0  0  0  0
    9.0451   10.6219   23.9713 N   0  0  0  0  0  0  0  0  0  0  0  0
    9.2508    9.3926   23.1832 C   0  0  0  0  0  0  0  0  0  0  0  0
    9.6987    9.6465   21.9371 F   0  0  0  0  0  0  0  0  0  0  0  0
    8.0901    8.7119   23.0441 F   0  0  0  0  0  0  0  0  0  0  0  0
   10.1319    8.5509   23.7699 F   0  0  0  0  0  0  0  0  0  0  0  0
    8.0802   10.8118   24.9419 C   0  0  0  0  0  0  0  0  0  0  0  0
    7.0864    9.9882   25.4567 C   0  0  0  0  0  0  0  0  0  0  0  0
    6.2487   10.4965   26.4538 C   0  0  0  0  0  0  0  0  0  0  0  0
    6.3762   11.8000   26.9081 C   0  0  0  0  0  0  0  0  0  0  0  0
    7.3686   12.6207   26.3866 C   0  0  0  0  0  0  0  0  0  0  0  0
    8.2373   12.1066   25.4083 C   0  0  0  0  0  0  0  0  0  0  0  0
  1  2  1  0
  2  3  1  0
  2  4  1  0
  2  5  1  0
  5  6  1  0
  6  7  1  0
  7  8  2  0
  8  9  1  0
  9 10  1  0
 10 11  1  0
 11 12  1  0
 12 13  2  0
 12 14  1  0
 14 15  2  0
 15 16  1  0
 16 17  1  0
 17 18  1  0
 17 19  1  0
 17 20  1  0
 16 21  1  0
 21 22  2  0
 22 23  1  0
 23 24  2  0
 24 25  1  0
 25 26  2  0
  9  5  2  0
 26 14  1  0
 26 21  1  0
M  END
>  <energy_score>  (1489) 
-2.96454

>  <inchikey>  (1489) 
XOCZJRGSMWMOPV-UHFFFAOYSA-N

>  <smiles>  (1489) 
CC(C)(C)c1ocnc1CNC(=O)c1nn(C(F)(F)F)c2ccccc12

>  <ref_pdb>  (1489) 
A0514a

>  <alias>  (1489) 
XOCZJRGSMWMOPV-UHFFFAOYSA-N-P177-P126-P177-601502

>  <HIPPO Pose ID>  (1489) 
503071

>  <name>  (1489) 
XOCZJRGSMWMOPV-UHFFFAOYSA-N-P177-P126-P177-601502

>  <HIPPO Compound ID>  (1489) 
299353

>  <ref_mols>  (1489) 
A3403a,A2290a

>  <distance_score>  (1489) 
1.463752

>  <inspiration_score>  (1489) 
None

$$$$
JCVRTKPEZCYYOI-UHFFFAOYSA-N-P126-P126-P177-601502
     RDKit          3D

 26 28  0  0  0  0  0  0  0  0999 V2000
    8.9132   17.4397   18.1312 C   0  0  0  0  0  0  0  0  0  0  0  0
    8.2738   17.6944   19.4042 N   0  0  0  0  0  0  0  0  0  0  0  0
    7.9530   19.0779   19.5556 C   0  0  0  0  0  0  0  0  0  0  0  0
    8.8549   17.1596   20.6299 C   0  0  0  0  0  0  0  0  0  0  0  0
    9.8068   16.0236   20.5534 C   0  0  0  0  0  0  0  0  0  0  0  0
   10.5212   15.5396   21.5429 N   0  0  0  0  0  0  0  0  0  0  0  0
   11.4228   14.7185   20.9258 C   0  0  0  0  0  0  0  0  0  0  0  0
   12.4051   13.9783   21.7215 C   0  0  0  0  0  0  0  0  0  0  0  0
   11.6150   13.0859   22.4920 N   0  0  0  0  0  0  0  0  0  0  0  0
   10.9627   13.2664   23.8628 C   0  0  0  0  0  0  0  0  0  0  0  0
   11.0291   14.1475   24.6206 O   0  0  0  0  0  0  0  0  0  0  0  0
   10.0863   12.1102   24.0614 C   0  0  0  0  0  0  0  0  0  0  0  0
   10.3022   10.9981   23.3421 N   0  0  0  0  0  0  0  0  0  0  0  0
    9.4304   10.1001   23.8361 N   0  0  0  0  0  0  0  0  0  0  0  0
    9.5855    8.6854   23.5044 C   0  0  0  0  0  0  0  0  0  0  0  0
   10.8733    8.2717   23.5782 F   0  0  0  0  0  0  0  0  0  0  0  0
    9.1630    8.3785   22.2672 F   0  0  0  0  0  0  0  0  0  0  0  0
    8.8535    7.9560   24.3719 F   0  0  0  0  0  0  0  0  0  0  0  0
    8.5460   10.6514   24.7470 C   0  0  0  0  0  0  0  0  0  0  0  0
    7.4650   10.1235   25.4720 C   0  0  0  0  0  0  0  0  0  0  0  0
    6.7651   10.9794   26.3263 C   0  0  0  0  0  0  0  0  0  0  0  0
    7.1313   12.3151   26.4578 C   0  0  0  0  0  0  0  0  0  0  0  0
    8.2233   12.8271   25.7505 C   0  0  0  0  0  0  0  0  0  0  0  0
    8.9481   11.9780   24.8934 C   0  0  0  0  0  0  0  0  0  0  0  0
   11.1641   14.6703   19.5816 C   0  0  0  0  0  0  0  0  0  0  0  0
   10.1014   15.4685   19.3463 O   0  0  0  0  0  0  0  0  0  0  0  0
  1  2  1  0
  2  3  1  0
  2  4  1  0
  4  5  1  0
  5  6  2  0
  6  7  1  0
  7  8  1  0
  8  9  1  0
  9 10  1  0
 10 11  2  0
 10 12  1  0
 12 13  2  0
 13 14  1  0
 14 15  1  0
 15 16  1  0
 15 17  1  0
 15 18  1  0
 14 19  1  0
 19 20  2  0
 20 21  1  0
 21 22  2  0
 22 23  1  0
 23 24  2  0
  7 25  2  0
 25 26  1  0
 26  5  1  0
 24 12  1  0
 24 19  1  0
M  END
>  <energy_score>  (1490) 
-4.380698

>  <inchikey>  (1490) 
JCVRTKPEZCYYOI-UHFFFAOYSA-N

>  <smiles>  (1490) 
CN(C)Cc1nc(CNC(=O)c2nn(C(F)(F)F)c3ccccc23)co1

>  <ref_pdb>  (1490) 
A0514a

>  <alias>  (1490) 
JCVRTKPEZCYYOI-UHFFFAOYSA-N-P126-P126-P177-601502

>  <HIPPO Pose ID>  (1490) 
503072

>  <name>  (1490) 
JCVRTKPEZCYYOI-UHFFFAOYSA-N-P126-P126-P177-601502

>  <HIPPO Compound ID>  (1490) 
299354

>  <ref_mols>  (1490) 
A3403a,A2290a

>  <distance_score>  (1490) 
0.79052

>  <inspiration_score>  (1490) 
None

$$$$
HMTMLKUVRFCMBP-UHFFFAOYSA-N-P177-P126-P177-601502
     RDKit          3D

 26 28  0  0  0  0  0  0  0  0999 V2000
   11.5184   14.6940   18.4097 C   0  0  0  0  0  0  0  0  0  0  0  0
   10.9759   15.2788   19.6260 C   0  0  0  0  0  0  0  0  0  0  0  0
    9.9537   16.1602   19.4929 O   0  0  0  0  0  0  0  0  0  0  0  0
    9.7246   16.5733   20.7758 C   0  0  0  0  0  0  0  0  0  0  0  0
    8.4667   17.2925   21.0583 C   0  0  0  0  0  0  0  0  0  0  0  0
    7.5274   16.1875   21.6003 C   0  0  0  0  0  0  0  0  0  0  0  0
    8.0686   18.1620   19.8605 C   0  0  0  0  0  0  0  0  0  0  0  0
   10.5057   16.0286   21.6741 N   0  0  0  0  0  0  0  0  0  0  0  0
   11.2604   15.1593   20.9611 C   0  0  0  0  0  0  0  0  0  0  0  0
   12.1382   14.2274   21.6566 C   0  0  0  0  0  0  0  0  0  0  0  0
   11.2944   13.3476   22.3890 N   0  0  0  0  0  0  0  0  0  0  0  0
   10.6160   13.5226   23.7514 C   0  0  0  0  0  0  0  0  0  0  0  0
   10.6988   14.3837   24.5317 O   0  0  0  0  0  0  0  0  0  0  0  0
    9.7601   12.3434   23.9570 C   0  0  0  0  0  0  0  0  0  0  0  0
    9.9712   11.2333   23.2302 N   0  0  0  0  0  0  0  0  0  0  0  0
    9.1760   10.2973   23.7827 N   0  0  0  0  0  0  0  0  0  0  0  0
    9.4048    8.8789   23.4887 C   0  0  0  0  0  0  0  0  0  0  0  0
    8.7515    8.1004   24.3761 F   0  0  0  0  0  0  0  0  0  0  0  0
   10.7082    8.5250   23.5696 F   0  0  0  0  0  0  0  0  0  0  0  0
    8.9756    8.5298   22.2543 F   0  0  0  0  0  0  0  0  0  0  0  0
    8.2807   10.8378   24.6837 C   0  0  0  0  0  0  0  0  0  0  0  0
    7.2113   10.2935   25.4027 C   0  0  0  0  0  0  0  0  0  0  0  0
    6.5393   11.1179   26.3075 C   0  0  0  0  0  0  0  0  0  0  0  0
    6.9195   12.4438   26.4870 C   0  0  0  0  0  0  0  0  0  0  0  0
    7.9865   12.9822   25.7631 C   0  0  0  0  0  0  0  0  0  0  0  0
    8.6731   12.1672   24.8458 C   0  0  0  0  0  0  0  0  0  0  0  0
  1  2  1  0
  2  3  1  0
  3  4  1  0
  4  5  1  0
  5  6  1  0
  5  7  1  0
  4  8  2  0
  8  9  1  0
  9 10  1  0
 10 11  1  0
 11 12  1  0
 12 13  2  0
 12 14  1  0
 14 15  2  0
 15 16  1  0
 16 17  1  0
 17 18  1  0
 17 19  1  0
 17 20  1  0
 16 21  1  0
 21 22  2  0
 22 23  1  0
 23 24  2  0
 24 25  1  0
 25 26  2  0
  9  2  2  0
 26 14  1  0
 26 21  1  0
M  END
>  <energy_score>  (1491) 
-32.589451

>  <inchikey>  (1491) 
HMTMLKUVRFCMBP-UHFFFAOYSA-N

>  <smiles>  (1491) 
Cc1oc(C(C)C)nc1CNC(=O)c1nn(C(F)(F)F)c2ccccc12

>  <ref_pdb>  (1491) 
A0514a

>  <alias>  (1491) 
HMTMLKUVRFCMBP-UHFFFAOYSA-N-P177-P126-P177-601502

>  <HIPPO Pose ID>  (1491) 
503075

>  <name>  (1491) 
HMTMLKUVRFCMBP-UHFFFAOYSA-N-P177-P126-P177-601502

>  <HIPPO Compound ID>  (1491) 
299355

>  <ref_mols>  (1491) 
A3403a,A2290a

>  <distance_score>  (1491) 
0.761742

>  <inspiration_score>  (1491) 
None

$$$$
JNQZTSDSUBOMBW-UHFFFAOYSA-N-P126-P126-P177-601502
     RDKit          3D

 26 28  0  0  0  0  0  0  0  0999 V2000
    8.3789   18.2304   19.1526 C   0  0  0  0  0  0  0  0  0  0  0  0
    8.6196   17.5444   20.4880 C   0  0  0  0  0  0  0  0  0  0  0  0
    9.5471   16.3864   20.4616 C   0  0  0  0  0  0  0  0  0  0  0  0
   10.0447   15.7411   21.4952 N   0  0  0  0  0  0  0  0  0  0  0  0
   11.0097   14.9333   20.9698 C   0  0  0  0  0  0  0  0  0  0  0  0
   11.9996   14.2457   21.8250 C   0  0  0  0  0  0  0  0  0  0  0  0
   11.3131   13.2217   22.5311 N   0  0  0  0  0  0  0  0  0  0  0  0
   10.6624   13.2330   23.9150 C   0  0  0  0  0  0  0  0  0  0  0  0
   10.6481   14.0583   24.7362 O   0  0  0  0  0  0  0  0  0  0  0  0
    9.9038   11.9866   24.0563 C   0  0  0  0  0  0  0  0  0  0  0  0
   10.2261   10.9124   23.3184 N   0  0  0  0  0  0  0  0  0  0  0  0
    9.3780    9.9580   23.7234 N   0  0  0  0  0  0  0  0  0  0  0  0
    9.4529    8.6703   23.0773 C   0  0  0  0  0  0  0  0  0  0  0  0
    8.4929   10.3846   24.6845 C   0  0  0  0  0  0  0  0  0  0  0  0
    7.4660    9.7417   25.3800 C   0  0  0  0  0  0  0  0  0  0  0  0
    6.6797   10.5053   26.2489 C   0  0  0  0  0  0  0  0  0  0  0  0
    6.9156   11.8724   26.4279 C   0  0  0  0  0  0  0  0  0  0  0  0
    5.9961   12.6305   27.3190 C   0  0  0  0  0  0  0  0  0  0  0  0
    4.9911   12.1484   27.8192 O   0  0  0  0  0  0  0  0  0  0  0  0
    6.4464   13.8960   27.5015 O   0  0  0  0  0  0  0  0  0  0  0  0
    5.5868   14.7158   28.2936 C   0  0  0  0  0  0  0  0  0  0  0  0
    7.9835   12.4928   25.7600 C   0  0  0  0  0  0  0  0  0  0  0  0
    8.7830   11.7311   24.8844 C   0  0  0  0  0  0  0  0  0  0  0  0
   10.9284   14.9929   19.6031 C   0  0  0  0  0  0  0  0  0  0  0  0
   11.7391   14.4296   18.5344 C   0  0  0  0  0  0  0  0  0  0  0  0
    9.9740   15.9062   19.2596 O   0  0  0  0  0  0  0  0  0  0  0  0
  1  2  1  0
  2  3  1  0
  3  4  2  0
  4  5  1  0
  5  6  1  0
  6  7  1  0
  7  8  1  0
  8  9  2  0
  8 10  1  0
 10 11  2  0
 11 12  1  0
 12 13  1  0
 12 14  1  0
 14 15  2  0
 15 16  1  0
 16 17  2  0
 17 18  1  0
 18 19  2  0
 18 20  1  0
 20 21  1  0
 17 22  1  0
 22 23  2  0
  5 24  2  0
 24 25  1  0
 24 26  1  0
 26  3  1  0
 23 10  1  0
 23 14  1  0
M  END
>  <energy_score>  (1492) 
-27.791156

>  <inchikey>  (1492) 
JNQZTSDSUBOMBW-UHFFFAOYSA-N

>  <smiles>  (1492) 
CCc1nc(CNC(=O)c2nn(C)c3ccc(C(=O)OC)cc23)c(C)o1

>  <ref_pdb>  (1492) 
A0514a

>  <alias>  (1492) 
JNQZTSDSUBOMBW-UHFFFAOYSA-N-P126-P126-P177-601502

>  <HIPPO Pose ID>  (1492) 
503078

>  <name>  (1492) 
JNQZTSDSUBOMBW-UHFFFAOYSA-N-P126-P126-P177-601502

>  <HIPPO Compound ID>  (1492) 
299357

>  <ref_mols>  (1492) 
A3403a,A2290a

>  <distance_score>  (1492) 
0.730543

>  <inspiration_score>  (1492) 
None

$$$$
CBDXMRBECUOTEW-UHFFFAOYSA-N-P177-P126-P177-601502
     RDKit          3D

 26 28  0  0  0  0  0  0  0  0999 V2000
   10.6997   14.5211   24.3255 O   0  0  0  0  0  0  0  0  0  0  0  0
   10.6558   13.6225   23.5826 C   0  0  0  0  0  0  0  0  0  0  0  0
   11.3116   13.4354   22.2030 N   0  0  0  0  0  0  0  0  0  0  0  0
   12.0766   14.3428   21.4080 C   0  0  0  0  0  0  0  0  0  0  0  0
   11.1381   15.1918   20.6678 C   0  0  0  0  0  0  0  0  0  0  0  0
   10.7960   15.2052   19.3373 C   0  0  0  0  0  0  0  0  0  0  0  0
    9.8248   16.1434   19.1646 O   0  0  0  0  0  0  0  0  0  0  0  0
    9.6439   16.6723   20.4210 C   0  0  0  0  0  0  0  0  0  0  0  0
    8.5017   17.5916   20.6338 C   0  0  0  0  0  0  0  0  0  0  0  0
    7.9911   18.0724   19.4682 F   0  0  0  0  0  0  0  0  0  0  0  0
    7.5376   16.8706   21.2627 F   0  0  0  0  0  0  0  0  0  0  0  0
    8.8115   18.6678   21.3929 F   0  0  0  0  0  0  0  0  0  0  0  0
   10.4286   16.1409   21.3373 N   0  0  0  0  0  0  0  0  0  0  0  0
    9.8367   12.4187   23.8463 C   0  0  0  0  0  0  0  0  0  0  0  0
   10.0410   11.3156   23.1132 N   0  0  0  0  0  0  0  0  0  0  0  0
    9.1930   10.3872   23.5936 N   0  0  0  0  0  0  0  0  0  0  0  0
    9.1727    9.0348   23.0221 C   0  0  0  0  0  0  0  0  0  0  0  0
    9.8472    8.1424   23.7837 F   0  0  0  0  0  0  0  0  0  0  0  0
    9.6991    8.9763   21.7771 F   0  0  0  0  0  0  0  0  0  0  0  0
    7.9040    8.5901   22.9372 F   0  0  0  0  0  0  0  0  0  0  0  0
    8.3770   10.8885   24.5858 C   0  0  0  0  0  0  0  0  0  0  0  0
    7.3292   10.3188   25.3176 C   0  0  0  0  0  0  0  0  0  0  0  0
    6.6846   11.1168   26.2648 C   0  0  0  0  0  0  0  0  0  0  0  0
    7.0739   12.4367   26.4734 C   0  0  0  0  0  0  0  0  0  0  0  0
    8.1233   12.9973   25.7375 C   0  0  0  0  0  0  0  0  0  0  0  0
    8.7857   12.2111   24.7774 C   0  0  0  0  0  0  0  0  0  0  0  0
  1  2  2  0
  2  3  1  0
  3  4  1  0
  4  5  1  0
  5  6  2  0
  6  7  1  0
  7  8  1  0
  8  9  1  0
  9 10  1  0
  9 11  1  0
  9 12  1  0
  8 13  2  0
  2 14  1  0
 14 15  2  0
 15 16  1  0
 16 17  1  0
 17 18  1  0
 17 19  1  0
 17 20  1  0
 16 21  1  0
 21 22  2  0
 22 23  1  0
 23 24  2  0
 24 25  1  0
 25 26  2  0
 13  5  1  0
 26 14  1  0
 26 21  1  0
M  END
>  <energy_score>  (1493) 
-9.130032

>  <inchikey>  (1493) 
CBDXMRBECUOTEW-UHFFFAOYSA-N

>  <smiles>  (1493) 
O=C(NCc1coc(C(F)(F)F)n1)c1nn(C(F)(F)F)c2ccccc12

>  <ref_pdb>  (1493) 
A0514a

>  <alias>  (1493) 
CBDXMRBECUOTEW-UHFFFAOYSA-N-P177-P126-P177-601502

>  <HIPPO Pose ID>  (1493) 
503081

>  <name>  (1493) 
CBDXMRBECUOTEW-UHFFFAOYSA-N-P177-P126-P177-601502

>  <HIPPO Compound ID>  (1493) 
299358

>  <ref_mols>  (1493) 
A3403a,A2290a

>  <distance_score>  (1493) 
0.643339

>  <inspiration_score>  (1493) 
None

$$$$
AZACMLRHLNIMCQ-UHFFFAOYSA-N-P126-P126-P177-601502
     RDKit          3D

 26 28  0  0  0  0  0  0  0  0999 V2000
   10.7181   14.1407   24.8714 O   0  0  0  0  0  0  0  0  0  0  0  0
   10.7016   13.3648   24.0037 C   0  0  0  0  0  0  0  0  0  0  0  0
   11.2752   13.4468   22.5883 N   0  0  0  0  0  0  0  0  0  0  0  0
   11.9028   14.5222   21.9087 C   0  0  0  0  0  0  0  0  0  0  0  0
   10.8976   15.0830   20.9780 C   0  0  0  0  0  0  0  0  0  0  0  0
    9.8687   15.8594   21.4290 N   0  0  0  0  0  0  0  0  0  0  0  0
    9.3573   16.3929   20.3495 C   0  0  0  0  0  0  0  0  0  0  0  0
    9.8495   15.8898   19.1908 O   0  0  0  0  0  0  0  0  0  0  0  0
   10.8414   15.0386   19.6070 C   0  0  0  0  0  0  0  0  0  0  0  0
   11.7056   14.4110   18.6173 C   0  0  0  0  0  0  0  0  0  0  0  0
   11.0860   13.4550   17.9097 F   0  0  0  0  0  0  0  0  0  0  0  0
   12.7621   13.7964   19.2188 F   0  0  0  0  0  0  0  0  0  0  0  0
   12.2484   15.2792   17.7484 F   0  0  0  0  0  0  0  0  0  0  0  0
   10.0030   12.0849   24.1110 C   0  0  0  0  0  0  0  0  0  0  0  0
   10.3895   11.0550   23.3458 N   0  0  0  0  0  0  0  0  0  0  0  0
    9.5620   10.0383   23.6876 N   0  0  0  0  0  0  0  0  0  0  0  0
    9.6734    8.7526   22.9865 C   0  0  0  0  0  0  0  0  0  0  0  0
    9.9951    8.9241   21.6840 F   0  0  0  0  0  0  0  0  0  0  0  0
    8.5094    8.0767   23.0340 F   0  0  0  0  0  0  0  0  0  0  0  0
   10.6320    7.9533   23.5071 F   0  0  0  0  0  0  0  0  0  0  0  0
    8.6431   10.4088   24.6534 C   0  0  0  0  0  0  0  0  0  0  0  0
    7.6163    9.7172   25.3064 C   0  0  0  0  0  0  0  0  0  0  0  0
    6.8099   10.4192   26.2078 C   0  0  0  0  0  0  0  0  0  0  0  0
    7.0219   11.7714   26.4543 C   0  0  0  0  0  0  0  0  0  0  0  0
    8.0614   12.4519   25.8161 C   0  0  0  0  0  0  0  0  0  0  0  0
    8.8897   11.7547   24.9158 C   0  0  0  0  0  0  0  0  0  0  0  0
  1  2  2  0
  2  3  1  0
  3  4  1  0
  4  5  1  0
  5  6  1  0
  6  7  2  0
  7  8  1  0
  8  9  1  0
  9 10  1  0
 10 11  1  0
 10 12  1  0
 10 13  1  0
  2 14  1  0
 14 15  2  0
 15 16  1  0
 16 17  1  0
 17 18  1  0
 17 19  1  0
 17 20  1  0
 16 21  1  0
 21 22  2  0
 22 23  1  0
 23 24  2  0
 24 25  1  0
 25 26  2  0
  9  5  2  0
 26 14  1  0
 26 21  1  0
M  END
>  <energy_score>  (1494) 
-11.305515

>  <inchikey>  (1494) 
AZACMLRHLNIMCQ-UHFFFAOYSA-N

>  <smiles>  (1494) 
O=C(NCc1ncoc1C(F)(F)F)c1nn(C(F)(F)F)c2ccccc12

>  <ref_pdb>  (1494) 
A0514a

>  <alias>  (1494) 
AZACMLRHLNIMCQ-UHFFFAOYSA-N-P126-P126-P177-601502

>  <HIPPO Pose ID>  (1494) 
503082

>  <name>  (1494) 
AZACMLRHLNIMCQ-UHFFFAOYSA-N-P126-P126-P177-601502

>  <HIPPO Compound ID>  (1494) 
299359

>  <ref_mols>  (1494) 
A3403a,A2290a

>  <distance_score>  (1494) 
0.779835

>  <inspiration_score>  (1494) 
None

$$$$
YRPZFPSGYZSAKB-UHFFFAOYSA-N-P177-P126-P177-601502
     RDKit          3D

 26 28  0  0  0  0  0  0  0  0999 V2000
   10.9846   14.3157   18.1698 C   0  0  0  0  0  0  0  0  0  0  0  0
    9.9693   15.2692   18.4137 O   0  0  0  0  0  0  0  0  0  0  0  0
   10.4761   16.2264   19.2835 C   0  0  0  0  0  0  0  0  0  0  0  0
    9.7767   16.0734   20.5219 C   0  0  0  0  0  0  0  0  0  0  0  0
    8.5826   16.6899   20.6401 O   0  0  0  0  0  0  0  0  0  0  0  0
    8.1429   16.2668   21.8426 C   0  0  0  0  0  0  0  0  0  0  0  0
    8.9660   15.4722   22.4879 N   0  0  0  0  0  0  0  0  0  0  0  0
   10.0724   15.3997   21.6652 C   0  0  0  0  0  0  0  0  0  0  0  0
   11.2932   14.6252   22.0100 C   0  0  0  0  0  0  0  0  0  0  0  0
   10.7619   13.5467   22.7385 N   0  0  0  0  0  0  0  0  0  0  0  0
   10.3781   13.4383   24.2068 C   0  0  0  0  0  0  0  0  0  0  0  0
   10.5081   14.1962   25.0786 O   0  0  0  0  0  0  0  0  0  0  0  0
    9.6762   12.1729   24.3482 C   0  0  0  0  0  0  0  0  0  0  0  0
    9.9105   11.1474   23.5134 N   0  0  0  0  0  0  0  0  0  0  0  0
    9.0037   10.2272   23.8550 N   0  0  0  0  0  0  0  0  0  0  0  0
    9.0139    8.9629   23.1603 C   0  0  0  0  0  0  0  0  0  0  0  0
    8.1432   10.6548   24.8355 C   0  0  0  0  0  0  0  0  0  0  0  0
    7.0453   10.0671   25.4521 C   0  0  0  0  0  0  0  0  0  0  0  0
    6.3542   10.7933   26.4268 C   0  0  0  0  0  0  0  0  0  0  0  0
    6.7419   12.0888   26.7686 C   0  0  0  0  0  0  0  0  0  0  0  0
    6.0370   12.8654   27.8183 C   0  0  0  0  0  0  0  0  0  0  0  0
    6.5453   13.7963   28.4219 O   0  0  0  0  0  0  0  0  0  0  0  0
    4.7791   12.3873   27.9991 O   0  0  0  0  0  0  0  0  0  0  0  0
    4.0235   13.1187   28.9655 C   0  0  0  0  0  0  0  0  0  0  0  0
    7.8529   12.6709   26.1464 C   0  0  0  0  0  0  0  0  0  0  0  0
    8.5645   11.9311   25.1827 C   0  0  0  0  0  0  0  0  0  0  0  0
  1  2  1  0
  2  3  1  0
  3  4  1  0
  4  5  1  0
  5  6  1  0
  6  7  2  0
  7  8  1  0
  8  9  1  0
  9 10  1  0
 10 11  1  0
 11 12  2  0
 11 13  1  0
 13 14  2  0
 14 15  1  0
 15 16  1  0
 15 17  1  0
 17 18  2  0
 18 19  1  0
 19 20  2  0
 20 21  1  0
 21 22  2  0
 21 23  1  0
 23 24  1  0
 20 25  1  0
 25 26  2  0
  8  4  2  0
 26 13  1  0
 26 17  1  0
M  END
>  <energy_score>  (1495) 
-20.225814

>  <inchikey>  (1495) 
YRPZFPSGYZSAKB-UHFFFAOYSA-N

>  <smiles>  (1495) 
COCc1ocnc1CNC(=O)c1nn(C)c2ccc(C(=O)OC)cc12

>  <ref_pdb>  (1495) 
A0514a

>  <alias>  (1495) 
YRPZFPSGYZSAKB-UHFFFAOYSA-N-P177-P126-P177-601502

>  <HIPPO Pose ID>  (1495) 
503085

>  <name>  (1495) 
YRPZFPSGYZSAKB-UHFFFAOYSA-N-P177-P126-P177-601502

>  <HIPPO Compound ID>  (1495) 
299360

>  <ref_mols>  (1495) 
A3403a,A2290a

>  <distance_score>  (1495) 
1.349123

>  <inspiration_score>  (1495) 
None

$$$$
WLBYMSHEQBHWOS-UHFFFAOYSA-N-P177-P126-P177-601502
     RDKit          3D

 26 28  0  0  0  0  0  0  0  0999 V2000
    4.5187   13.5494   28.9866 C   0  0  0  0  0  0  0  0  0  0  0  0
    5.1807   12.7634   27.9949 O   0  0  0  0  0  0  0  0  0  0  0  0
    6.4045   13.2371   27.6506 C   0  0  0  0  0  0  0  0  0  0  0  0
    6.9611   14.2099   28.1344 O   0  0  0  0  0  0  0  0  0  0  0  0
    7.0083   12.3976   26.5851 C   0  0  0  0  0  0  0  0  0  0  0  0
    6.5883   11.0833   26.3552 C   0  0  0  0  0  0  0  0  0  0  0  0
    7.2002   10.2922   25.3789 C   0  0  0  0  0  0  0  0  0  0  0  0
    8.2389   10.8576   24.6369 C   0  0  0  0  0  0  0  0  0  0  0  0
    8.6744   12.1667   24.8377 C   0  0  0  0  0  0  0  0  0  0  0  0
    8.0560   12.9495   25.8300 C   0  0  0  0  0  0  0  0  0  0  0  0
    9.7095   12.3630   23.8850 C   0  0  0  0  0  0  0  0  0  0  0  0
   10.5333   13.5651   23.6400 C   0  0  0  0  0  0  0  0  0  0  0  0
   10.6421   14.4117   24.4338 O   0  0  0  0  0  0  0  0  0  0  0  0
   11.1306   13.4381   22.2326 N   0  0  0  0  0  0  0  0  0  0  0  0
   11.9062   14.3592   21.4680 C   0  0  0  0  0  0  0  0  0  0  0  0
   10.9804   15.1935   20.6856 C   0  0  0  0  0  0  0  0  0  0  0  0
   10.7399   15.2178   19.3332 C   0  0  0  0  0  0  0  0  0  0  0  0
    9.8075   16.1775   19.0890 O   0  0  0  0  0  0  0  0  0  0  0  0
    9.5453   16.7174   20.3239 C   0  0  0  0  0  0  0  0  0  0  0  0
    8.5296   17.7989   20.4009 C   0  0  0  0  0  0  0  0  0  0  0  0
    8.2284   18.3189   19.1760 F   0  0  0  0  0  0  0  0  0  0  0  0
    8.9324   18.8411   21.1698 F   0  0  0  0  0  0  0  0  0  0  0  0
   10.1985   16.1296   21.3063 N   0  0  0  0  0  0  0  0  0  0  0  0
    9.8853   11.2593   23.1383 N   0  0  0  0  0  0  0  0  0  0  0  0
    9.0360   10.3578   23.6401 N   0  0  0  0  0  0  0  0  0  0  0  0
    9.0466    9.0170   23.1044 C   0  0  0  0  0  0  0  0  0  0  0  0
  1  2  1  0
  2  3  1  0
  3  4  2  0
  3  5  1  0
  5  6  2  0
  6  7  1  0
  7  8  2  0
  8  9  1  0
  9 10  2  0
  9 11  1  0
 11 12  1  0
 12 13  2  0
 12 14  1  0
 14 15  1  0
 15 16  1  0
 16 17  2  0
 17 18  1  0
 18 19  1  0
 19 20  1  0
 20 21  1  0
 20 22  1  0
 19 23  2  0
 11 24  2  0
 24 25  1  0
 25 26  1  0
 10  5  1  0
 23 16  1  0
 25  8  1  0
M  END
>  <energy_score>  (1496) 
-26.696877

>  <inchikey>  (1496) 
WLBYMSHEQBHWOS-UHFFFAOYSA-N

>  <smiles>  (1496) 
COC(=O)c1ccc2c(c1)c(C(=O)NCc1coc(C(F)F)n1)nn2C

>  <ref_pdb>  (1496) 
A0514a

>  <alias>  (1496) 
WLBYMSHEQBHWOS-UHFFFAOYSA-N-P177-P126-P177-601502

>  <HIPPO Pose ID>  (1496) 
503099

>  <name>  (1496) 
WLBYMSHEQBHWOS-UHFFFAOYSA-N-P177-P126-P177-601502

>  <HIPPO Compound ID>  (1496) 
299367

>  <ref_mols>  (1496) 
A3403a,A2290a

>  <distance_score>  (1496) 
0.649101

>  <inspiration_score>  (1496) 
None

$$$$
YPLBILLABLQQLD-UHFFFAOYSA-N-P177-P126-P177-601502
     RDKit          3D

 26 29  0  0  0  0  0  0  0  0999 V2000
    9.2143    5.6747   22.9719 O   0  0  0  0  0  0  0  0  0  0  0  0
    9.3497    6.8864   22.9227 C   0  0  0  0  0  0  0  0  0  0  0  0
    8.8456    7.7687   22.0018 N   0  0  0  0  0  0  0  0  0  0  0  0
    9.5362    8.9958   22.1415 C   0  0  0  0  0  0  0  0  0  0  0  0
    9.7663    8.9627   23.6020 C   0  0  1  0  0  0  0  0  0  0  0  0
    8.4747    9.4522   24.2151 C   0  0  0  0  0  0  0  0  0  0  0  0
    8.5224   10.8810   24.4090 N   0  0  0  0  0  0  0  0  0  0  0  0
    9.3831   11.6388   23.7106 N   0  0  0  0  0  0  0  0  0  0  0  0
    9.3661   12.8235   24.3505 C   0  0  0  0  0  0  0  0  0  0  0  0
   10.3067   13.8957   23.9596 C   0  0  0  0  0  0  0  0  0  0  0  0
   10.5082   14.8121   24.6517 O   0  0  0  0  0  0  0  0  0  0  0  0
   10.8807   13.5454   22.5777 N   0  0  0  0  0  0  0  0  0  0  0  0
   11.7469   14.2886   21.7151 C   0  0  0  0  0  0  0  0  0  0  0  0
   10.9295   15.0766   20.7732 C   0  0  0  0  0  0  0  0  0  0  0  0
   10.8642   15.0145   19.4022 C   0  0  0  0  0  0  0  0  0  0  0  0
    9.9913   15.9657   18.9788 O   0  0  0  0  0  0  0  0  0  0  0  0
    9.5933   16.5931   20.1259 C   0  0  0  0  0  0  0  0  0  0  0  0
    8.4639   18.1172   20.1247 Br  0  0  0  0  0  0  0  0  0  0  0  0
   10.0972   16.0717   21.2221 N   0  0  0  0  0  0  0  0  0  0  0  0
    8.3769   12.8216   25.3762 C   0  0  0  0  0  0  0  0  0  0  0  0
    7.8814   13.7455   26.3068 C   0  0  0  0  0  0  0  0  0  0  0  0
    6.8525   13.3476   27.1715 C   0  0  0  0  0  0  0  0  0  0  0  0
    6.3181   12.0605   27.1225 C   0  0  0  0  0  0  0  0  0  0  0  0
    6.7960   11.1263   26.2115 C   0  0  0  0  0  0  0  0  0  0  0  0
    7.8244   11.5464   25.3632 C   0  0  0  0  0  0  0  0  0  0  0  0
   10.0052    7.5938   23.8617 O   0  0  0  0  0  0  0  0  0  0  0  0
  1  2  2  0
  2  3  1  0
  3  4  1  0
  4  5  1  0
  5  6  1  1
  6  7  1  0
  7  8  1  0
  8  9  2  0
  9 10  1  0
 10 11  2  0
 10 12  1  0
 12 13  1  0
 13 14  1  0
 14 15  2  0
 15 16  1  0
 16 17  1  0
 17 18  1  0
 17 19  2  0
  9 20  1  0
 20 21  2  0
 21 22  1  0
 22 23  2  0
 23 24  1  0
 24 25  2  0
  5 26  1  0
 26  2  1  0
 25  7  1  0
 19 14  1  0
 25 20  1  0
M  END
>  <energy_score>  (1497) 
-20.488832

>  <inchikey>  (1497) 
YPLBILLABLQQLD-UHFFFAOYSA-N

>  <smiles>  (1497) 
O=C1NCC(Cn2nc(C(=O)NCc3coc(Br)n3)c3ccccc32)O1

>  <ref_pdb>  (1497) 
A0514a

>  <alias>  (1497) 
YPLBILLABLQQLD-UHFFFAOYSA-N-P177-P126-P177-601502

>  <HIPPO Pose ID>  (1497) 
503113

>  <name>  (1497) 
YPLBILLABLQQLD-UHFFFAOYSA-N-P177-P126-P177-601502

>  <HIPPO Compound ID>  (1497) 
299374

>  <ref_mols>  (1497) 
A3403a,A2290a

>  <distance_score>  (1497) 
1.221222

>  <inspiration_score>  (1497) 
None

$$$$
SLNOZFXAWYTXRN-UHFFFAOYSA-N-P177-P126-P177-601502
     RDKit          3D

 26 28  0  0  0  0  0  0  0  0999 V2000
    3.8810   12.6294   28.9151 C   0  0  0  0  0  0  0  0  0  0  0  0
    4.7011   12.0406   27.9047 O   0  0  0  0  0  0  0  0  0  0  0  0
    5.8914   12.6731   27.7369 C   0  0  0  0  0  0  0  0  0  0  0  0
    6.2921   13.6327   28.3747 O   0  0  0  0  0  0  0  0  0  0  0  0
    6.6683   12.0306   26.6487 C   0  0  0  0  0  0  0  0  0  0  0  0
    6.4649   10.6945   26.2978 C   0  0  0  0  0  0  0  0  0  0  0  0
    7.2291   10.0887   25.2971 C   0  0  0  0  0  0  0  0  0  0  0  0
    8.1939   10.8578   24.6500 C   0  0  0  0  0  0  0  0  0  0  0  0
    8.4203   12.1878   24.9803 C   0  0  0  0  0  0  0  0  0  0  0  0
    7.6553   12.7868   26.0001 C   0  0  0  0  0  0  0  0  0  0  0  0
    9.4462   12.6182   24.0991 C   0  0  0  0  0  0  0  0  0  0  0  0
   10.0411   13.9690   24.0456 C   0  0  0  0  0  0  0  0  0  0  0  0
   10.0325   14.6586   24.9833 O   0  0  0  0  0  0  0  0  0  0  0  0
   10.5905   14.2135   22.6398 N   0  0  0  0  0  0  0  0  0  0  0  0
   11.1621   15.3890   22.0555 C   0  0  0  0  0  0  0  0  0  0  0  0
   10.2198   16.1148   21.1592 C   0  0  0  0  0  0  0  0  0  0  0  0
    9.2149   16.9093   21.6373 N   0  0  0  0  0  0  0  0  0  0  0  0
    8.7671   17.5514   20.5905 C   0  0  0  0  0  0  0  0  0  0  0  0
    9.2607   17.1115   19.4120 O   0  0  0  0  0  0  0  0  0  0  0  0
   10.1305   16.1395   19.7847 C   0  0  0  0  0  0  0  0  0  0  0  0
   10.5291   15.2145   18.7433 C   0  0  0  0  0  0  0  0  0  0  0  0
   10.7299   13.9123   19.3987 C   0  0  0  0  0  0  0  0  0  0  0  0
   11.7924   15.3721   17.9817 C   0  0  0  0  0  0  0  0  0  0  0  0
    9.8294   11.6246   23.2734 N   0  0  0  0  0  0  0  0  0  0  0  0
    9.0892   10.5648   23.6524 N   0  0  0  0  0  0  0  0  0  0  0  0
    9.2995    9.2737   23.0320 C   0  0  0  0  0  0  0  0  0  0  0  0
  1  2  1  0
  2  3  1  0
  3  4  2  0
  3  5  1  0
  5  6  2  0
  6  7  1  0
  7  8  2  0
  8  9  1  0
  9 10  2  0
  9 11  1  0
 11 12  1  0
 12 13  2  0
 12 14  1  0
 14 15  1  0
 15 16  1  0
 16 17  1  0
 17 18  2  0
 18 19  1  0
 19 20  1  0
 20 21  1  0
 21 22  1  0
 21 23  1  0
 11 24  2  0
 24 25  1  0
 25 26  1  0
 10  5  1  0
 20 16  2  0
 25  8  1  0
M  END
>  <energy_score>  (1498) 
-10.614201

>  <inchikey>  (1498) 
SLNOZFXAWYTXRN-UHFFFAOYSA-N

>  <smiles>  (1498) 
COC(=O)c1ccc2c(c1)c(C(=O)NCc1ncoc1C(C)C)nn2C

>  <ref_pdb>  (1498) 
A0514a

>  <alias>  (1498) 
SLNOZFXAWYTXRN-UHFFFAOYSA-N-P177-P126-P177-601502

>  <HIPPO Pose ID>  (1498) 
503115

>  <name>  (1498) 
SLNOZFXAWYTXRN-UHFFFAOYSA-N-P177-P126-P177-601502

>  <HIPPO Compound ID>  (1498) 
299375

>  <ref_mols>  (1498) 
A3403a,A2290a

>  <distance_score>  (1498) 
1.077783

>  <inspiration_score>  (1498) 
None

$$$$
JXTJLOGAGCEOCS-UHFFFAOYSA-N-P177-P126-P177-601502
     RDKit          3D

 27 30  0  0  0  0  0  0  0  0999 V2000
   12.3623   13.7985   23.1893 C   0  0  0  0  0  0  0  0  0  0  0  0
   12.0522   14.9419   22.2004 C   0  0  0  0  0  0  0  0  0  0  0  0
   10.9783   14.5264   21.2155 C   0  0  1  0  0  0  0  0  0  0  0  0
   10.1014   13.6882   21.9479 N   0  0  0  0  0  0  0  0  0  0  0  0
    9.1716   14.0054   23.1253 C   0  0  0  0  0  0  0  0  0  0  0  0
    8.9178   15.0186   23.6329 O   0  0  0  0  0  0  0  0  0  0  0  0
    8.6899   12.7364   23.6139 C   0  0  0  0  0  0  0  0  0  0  0  0
    9.2299   11.6410   23.0721 N   0  0  0  0  0  0  0  0  0  0  0  0
    9.0221   10.7039   23.9744 N   0  0  0  0  0  0  0  0  0  0  0  0
    9.8897    9.5746   23.8202 C   0  0  0  0  0  0  0  0  0  0  0  0
    9.1746    8.3221   23.7171 C   0  0  1  0  0  0  0  0  0  0  0  0
    8.5331    8.3879   22.3991 C   0  0  0  0  0  0  0  0  0  0  0  0
    8.5053    7.0517   22.0296 N   0  0  0  0  0  0  0  0  0  0  0  0
    9.2737    6.2993   22.8895 C   0  0  0  0  0  0  0  0  0  0  0  0
    9.2950    5.0886   23.0048 O   0  0  0  0  0  0  0  0  0  0  0  0
    9.9800    7.1720   23.6603 O   0  0  0  0  0  0  0  0  0  0  0  0
    8.0101   11.0265   24.8372 C   0  0  0  0  0  0  0  0  0  0  0  0
    7.1963   10.3127   25.7137 C   0  0  0  0  0  0  0  0  0  0  0  0
    6.3626   11.0274   26.5775 C   0  0  0  0  0  0  0  0  0  0  0  0
    6.3339   12.4167   26.5593 C   0  0  0  0  0  0  0  0  0  0  0  0
    7.0884   13.1267   25.6252 C   0  0  0  0  0  0  0  0  0  0  0  0
    7.8869   12.4130   24.7192 C   0  0  0  0  0  0  0  0  0  0  0  0
   10.2465   15.6062   20.5691 C   0  0  0  0  0  0  0  0  0  0  0  0
   10.1069   15.8356   19.2292 C   0  0  0  0  0  0  0  0  0  0  0  0
    9.3235   16.9331   19.0829 O   0  0  0  0  0  0  0  0  0  0  0  0
    9.0281   17.3137   20.3528 C   0  0  0  0  0  0  0  0  0  0  0  0
    9.5638   16.5580   21.2742 N   0  0  0  0  0  0  0  0  0  0  0  0
  1  2  1  0
  3  2  1  1
  3  4  1  0
  4  5  1  0
  5  6  2  0
  5  7  1  0
  7  8  2  0
  8  9  1  0
  9 10  1  0
 11 10  1  6
 11 12  1  0
 12 13  1  0
 13 14  1  0
 14 15  2  0
 14 16  1  0
  9 17  1  0
 17 18  2  0
 18 19  1  0
 19 20  2  0
 20 21  1  0
 21 22  2  0
  3 23  1  0
 23 24  2  0
 24 25  1  0
 25 26  1  0
 26 27  2  0
 22  7  1  0
 27 23  1  0
 16 11  1  0
 22 17  1  0
M  END
>  <energy_score>  (1499) 
-4.752599

>  <inchikey>  (1499) 
JXTJLOGAGCEOCS-UHFFFAOYSA-N

>  <smiles>  (1499) 
CCC(NC(=O)c1nn(CC2CNC(=O)O2)c2ccccc12)c1cocn1

>  <ref_pdb>  (1499) 
A0514a

>  <alias>  (1499) 
JXTJLOGAGCEOCS-UHFFFAOYSA-N-P177-P126-P177-601502

>  <HIPPO Pose ID>  (1499) 
503133

>  <name>  (1499) 
JXTJLOGAGCEOCS-UHFFFAOYSA-N-P177-P126-P177-601502

>  <HIPPO Compound ID>  (1499) 
299384

>  <ref_mols>  (1499) 
A3403a,A2290a

>  <distance_score>  (1499) 
1.24373

>  <inspiration_score>  (1499) 
None

$$$$
BMZYSDFDFBNUBC-UHFFFAOYSA-N-P177-P126-P177-601502
     RDKit          3D

 27 30  0  0  0  0  0  0  0  0999 V2000
    8.7799   18.6011   21.1777 C   0  0  0  0  0  0  0  0  0  0  0  0
    8.5549   17.5150   20.1876 C   0  0  0  0  0  0  0  0  0  0  0  0
    9.5877   16.4732   20.2319 C   0  0  0  0  0  0  0  0  0  0  0  0
   10.1454   15.9242   21.2846 N   0  0  0  0  0  0  0  0  0  0  0  0
   11.0301   15.0240   20.7552 C   0  0  0  0  0  0  0  0  0  0  0  0
   11.8711   14.2040   21.6419 C   0  0  0  0  0  0  0  0  0  0  0  0
   11.0076   13.4144   22.4630 N   0  0  0  0  0  0  0  0  0  0  0  0
   10.4403   13.6850   23.8629 C   0  0  0  0  0  0  0  0  0  0  0  0
   10.6460   14.5594   24.6059 O   0  0  0  0  0  0  0  0  0  0  0  0
    9.4640   12.6162   24.1708 C   0  0  0  0  0  0  0  0  0  0  0  0
    9.4067   11.4978   23.4192 N   0  0  0  0  0  0  0  0  0  0  0  0
    8.4474   10.7621   23.9964 N   0  0  0  0  0  0  0  0  0  0  0  0
    8.1408    9.4352   23.5256 C   0  0  0  0  0  0  0  0  0  0  0  0
    9.1438    8.8616   22.5612 C   0  0  1  0  0  0  0  0  0  0  0  0
   10.4093    8.6614   23.2899 C   0  0  0  0  0  0  0  0  0  0  0  0
   10.1968    7.4329   23.8803 N   0  0  0  0  0  0  0  0  0  0  0  0
    9.4118    6.6851   23.0813 C   0  0  0  0  0  0  0  0  0  0  0  0
    9.2151    5.4881   23.2178 O   0  0  0  0  0  0  0  0  0  0  0  0
    8.7949    7.5220   22.1877 O   0  0  0  0  0  0  0  0  0  0  0  0
    7.8690   11.3379   25.0873 C   0  0  0  0  0  0  0  0  0  0  0  0
    6.8515   10.8927   25.9384 C   0  0  0  0  0  0  0  0  0  0  0  0
    6.4528   11.7571   26.9534 C   0  0  0  0  0  0  0  0  0  0  0  0
    7.0502   13.0074   27.1012 C   0  0  0  0  0  0  0  0  0  0  0  0
    8.0737   13.4290   26.2423 C   0  0  0  0  0  0  0  0  0  0  0  0
    8.4975   12.5703   25.2162 C   0  0  0  0  0  0  0  0  0  0  0  0
   10.9468   15.0482   19.3828 C   0  0  0  0  0  0  0  0  0  0  0  0
   10.0067   15.9679   19.0357 O   0  0  0  0  0  0  0  0  0  0  0  0
  1  2  1  0
  2  3  1  0
  3  4  2  0
  4  5  1  0
  5  6  1  0
  6  7  1  0
  7  8  1  0
  8  9  2  0
  8 10  1  0
 10 11  2  0
 11 12  1  0
 12 13  1  0
 14 13  1  1
 14 15  1  0
 15 16  1  0
 16 17  1  0
 17 18  2  0
 17 19  1  0
 12 20  1  0
 20 21  2  0
 21 22  1  0
 22 23  2  0
 23 24  1  0
 24 25  2  0
  5 26  2  0
 26 27  1  0
 27  3  1  0
 25 10  1  0
 19 14  1  0
 25 20  1  0
M  END
>  <energy_score>  (1500) 
-36.6792

>  <inchikey>  (1500) 
BMZYSDFDFBNUBC-UHFFFAOYSA-N

>  <smiles>  (1500) 
CCc1nc(CNC(=O)c2nn(CC3CNC(=O)O3)c3ccccc23)co1

>  <ref_pdb>  (1500) 
A0514a

>  <alias>  (1500) 
BMZYSDFDFBNUBC-UHFFFAOYSA-N-P177-P126-P177-601502

>  <HIPPO Pose ID>  (1500) 
503139

>  <name>  (1500) 
BMZYSDFDFBNUBC-UHFFFAOYSA-N-P177-P126-P177-601502

>  <HIPPO Compound ID>  (1500) 
299387

>  <ref_mols>  (1500) 
A3403a,A2290a

>  <distance_score>  (1500) 
1.05956

>  <inspiration_score>  (1500) 
None

$$$$
QFKKPCZXVOOIGL-UHFFFAOYSA-N-P126-P126-P177-601502
     RDKit          3D

 27 31  0  0  0  0  0  0  0  0999 V2000
    9.6584    8.2535   20.3232 O   0  0  0  0  0  0  0  0  0  0  0  0
    9.6735    8.4192   21.5268 C   0  0  0  0  0  0  0  0  0  0  0  0
    9.3664    7.4238   22.3833 N   0  0  0  0  0  0  0  0  0  0  0  0
   10.2862    7.6013   23.4166 C   0  0  0  0  0  0  0  0  0  0  0  0
   10.0758    9.0520   23.5839 C   0  0  2  0  0  0  0  0  0  0  0  0
    8.7004    9.1886   24.2081 C   0  0  0  0  0  0  0  0  0  0  0  0
    8.3971   10.5378   24.5291 N   0  0  0  0  0  0  0  0  0  0  0  0
    8.9747   11.4748   23.8033 N   0  0  0  0  0  0  0  0  0  0  0  0
    8.5662   12.6051   24.3722 C   0  0  0  0  0  0  0  0  0  0  0  0
    9.0848   13.8420   23.8603 C   0  0  0  0  0  0  0  0  0  0  0  0
    8.9090   14.8439   24.4273 O   0  0  0  0  0  0  0  0  0  0  0  0
    9.9215   13.5394   22.5977 N   0  0  0  0  0  0  0  0  0  0  0  0
   10.7743   14.3722   21.8417 C   0  0  0  0  0  0  0  0  0  0  0  0
   10.1148   15.3033   20.7827 C   0  0  0  0  0  0  0  0  0  0  0  0
   10.3330   15.2982   19.4297 C   0  0  0  0  0  0  0  0  0  0  0  0
    9.7095   16.3940   18.9062 O   0  0  0  0  0  0  0  0  0  0  0  0
    9.1493   16.9963   19.9867 C   0  0  0  0  0  0  0  0  0  0  0  0
    9.3237   16.3604   21.1180 N   0  0  0  0  0  0  0  0  0  0  0  0
   12.1647   13.8493   21.5248 C   0  0  0  0  0  0  0  0  0  0  0  0
   11.9862   14.9087   22.5484 C   0  0  0  0  0  0  0  0  0  0  0  0
    7.7163   12.3646   25.4718 C   0  0  0  0  0  0  0  0  0  0  0  0
    7.0344   13.1496   26.4092 C   0  0  0  0  0  0  0  0  0  0  0  0
    6.2210   12.5086   27.3468 C   0  0  0  0  0  0  0  0  0  0  0  0
    6.0796   11.1211   27.3502 C   0  0  0  0  0  0  0  0  0  0  0  0
    6.7596   10.3244   26.4313 C   0  0  0  0  0  0  0  0  0  0  0  0
    7.5861   10.9830   25.5207 C   0  0  0  0  0  0  0  0  0  0  0  0
   10.1039    9.4947   22.2254 O   0  0  0  0  0  0  0  0  0  0  0  0
  1  2  2  0
  2  3  1  0
  3  4  1  0
  4  5  1  0
  5  6  1  6
  6  7  1  0
  7  8  1  0
  8  9  2  0
  9 10  1  0
 10 11  2  0
 10 12  1  0
 12 13  1  0
 13 14  1  0
 14 15  2  0
 15 16  1  0
 16 17  1  0
 17 18  2  0
 13 19  1  0
 19 20  1  0
  9 21  1  0
 21 22  2  0
 22 23  1  0
 23 24  2  0
 24 25  1  0
 25 26  2  0
  5 27  1  0
 27  2  1  0
 26  7  1  0
 20 13  1  0
 26 21  1  0
 18 14  1  0
M  END
>  <energy_score>  (1501) 
-22.02513

>  <inchikey>  (1501) 
QFKKPCZXVOOIGL-UHFFFAOYSA-N

>  <smiles>  (1501) 
O=C1NCC(Cn2nc(C(=O)NC3(c4cocn4)CC3)c3ccccc32)O1

>  <ref_pdb>  (1501) 
A0514a

>  <alias>  (1501) 
QFKKPCZXVOOIGL-UHFFFAOYSA-N-P126-P126-P177-601502

>  <HIPPO Pose ID>  (1501) 
503142

>  <name>  (1501) 
QFKKPCZXVOOIGL-UHFFFAOYSA-N-P126-P126-P177-601502

>  <HIPPO Compound ID>  (1501) 
299389

>  <ref_mols>  (1501) 
A3403a,A2290a

>  <distance_score>  (1501) 
1.415719

>  <inspiration_score>  (1501) 
None

$$$$
OZEIYKNJSMSKTQ-UHFFFAOYSA-N-P177-P126-P177-601502
     RDKit          3D

 27 30  0  0  0  0  0  0  0  0999 V2000
    9.0018    8.9752   23.1683 C   0  0  0  0  0  0  0  0  0  0  0  0
    8.9885   10.3124   23.7085 N   0  0  0  0  0  0  0  0  0  0  0  0
    9.8469   11.2017   23.2160 N   0  0  0  0  0  0  0  0  0  0  0  0
    9.6506   12.3212   23.9357 C   0  0  0  0  0  0  0  0  0  0  0  0
   10.4869   13.5089   23.6793 C   0  0  0  0  0  0  0  0  0  0  0  0
   10.5107   14.4320   24.3888 O   0  0  0  0  0  0  0  0  0  0  0  0
   11.2079   13.2573   22.3539 N   0  0  0  0  0  0  0  0  0  0  0  0
   12.0310   14.1118   21.5740 C   0  0  0  0  0  0  0  0  0  0  0  0
   11.2075   14.7622   20.5576 C   0  0  0  0  0  0  0  0  0  0  0  0
   11.3088   14.7910   19.1878 C   0  0  0  0  0  0  0  0  0  0  0  0
   10.3460   15.6248   18.7155 O   0  0  0  0  0  0  0  0  0  0  0  0
    9.7468   16.0851   19.8463 C   0  0  0  0  0  0  0  0  0  0  0  0
    8.9541   17.2368   19.9428 C   0  0  0  0  0  0  0  0  0  0  0  0
    8.7070   17.8501   21.1197 C   0  0  0  0  0  0  0  0  0  0  0  0
    8.3567   19.1619   20.8460 C   0  0  0  0  0  0  0  0  0  0  0  0
    7.8421   19.3884   19.6158 C   0  0  0  0  0  0  0  0  0  0  0  0
    8.1993   18.0767   18.7180 S   0  0  0  0  0  0  0  0  0  0  0  0
   10.1519   15.5055   20.9531 N   0  0  0  0  0  0  0  0  0  0  0  0
    8.5934   12.1443   24.8637 C   0  0  0  0  0  0  0  0  0  0  0  0
    7.9483   12.9519   25.8182 C   0  0  0  0  0  0  0  0  0  0  0  0
    6.9002   12.3884   26.5619 C   0  0  0  0  0  0  0  0  0  0  0  0
    6.2336   13.1950   27.5887 N   0  0  0  0  0  0  0  0  0  0  0  0
    5.1442   12.7880   28.0187 O   0  0  0  0  0  0  0  0  0  0  0  0
    6.8227   14.2055   27.9961 O   0  0  0  0  0  0  0  0  0  0  0  0
    6.4980   11.0621   26.3727 C   0  0  0  0  0  0  0  0  0  0  0  0
    7.1354   10.2603   25.4254 C   0  0  0  0  0  0  0  0  0  0  0  0
    8.1763   10.8240   24.6863 C   0  0  0  0  0  0  0  0  0  0  0  0
  1  2  1  0
  2  3  1  0
  3  4  2  0
  4  5  1  0
  5  6  2  0
  5  7  1  0
  7  8  1  0
  8  9  1  0
  9 10  2  0
 10 11  1  0
 11 12  1  0
 12 13  1  0
 13 14  2  0
 14 15  1  0
 15 16  2  0
 16 17  1  0
 12 18  2  0
  4 19  1  0
 19 20  2  0
 20 21  1  0
 21 22  1  0
 22 23  2  0
 22 24  1  0
 21 25  2  0
 25 26  1  0
 26 27  2  0
 27  2  1  0
 18  9  1  0
 27 19  1  0
 17 13  1  0
M  CHG  2  22   1  24  -1
M  END
>  <energy_score>  (1502) 
-5.032846

>  <inchikey>  (1502) 
OZEIYKNJSMSKTQ-UHFFFAOYSA-N

>  <smiles>  (1502) 
Cn1nc(C(=O)NCc2coc(-c3cccs3)n2)c2cc([N+](=O)[O-])ccc21

>  <ref_pdb>  (1502) 
A0514a

>  <alias>  (1502) 
OZEIYKNJSMSKTQ-UHFFFAOYSA-N-P177-P126-P177-601502

>  <HIPPO Pose ID>  (1502) 
503151

>  <name>  (1502) 
OZEIYKNJSMSKTQ-UHFFFAOYSA-N-P177-P126-P177-601502

>  <HIPPO Compound ID>  (1502) 
299393

>  <ref_mols>  (1502) 
A3403a,A2290a

>  <distance_score>  (1502) 
0.790132

>  <inspiration_score>  (1502) 
None

$$$$
PLABDPUIGSWMNQ-UHFFFAOYSA-N-P177-P126-P177-601502
     RDKit          3D

 27 30  0  0  0  0  0  0  0  0999 V2000
    4.2306   13.2748   29.0120 C   0  0  0  0  0  0  0  0  0  0  0  0
    4.9417   12.5350   28.0190 O   0  0  0  0  0  0  0  0  0  0  0  0
    6.1766   13.0298   27.7508 C   0  0  0  0  0  0  0  0  0  0  0  0
    6.7032   13.9855   28.2980 O   0  0  0  0  0  0  0  0  0  0  0  0
    6.8331   12.2384   26.6808 C   0  0  0  0  0  0  0  0  0  0  0  0
    6.4551   10.9228   26.4018 C   0  0  0  0  0  0  0  0  0  0  0  0
    7.1131   10.1776   25.4192 C   0  0  0  0  0  0  0  0  0  0  0  0
    8.1578   10.7818   24.7230 C   0  0  0  0  0  0  0  0  0  0  0  0
    8.5557   12.0898   24.9831 C   0  0  0  0  0  0  0  0  0  0  0  0
    7.8895   12.8331   25.9751 C   0  0  0  0  0  0  0  0  0  0  0  0
    9.6148   12.3324   24.0772 C   0  0  0  0  0  0  0  0  0  0  0  0
   10.4028   13.5591   23.9045 C   0  0  0  0  0  0  0  0  0  0  0  0
   10.4868   14.3709   24.7349 O   0  0  0  0  0  0  0  0  0  0  0  0
   10.9892   13.5196   22.4938 N   0  0  0  0  0  0  0  0  0  0  0  0
   11.7169   14.4960   21.7720 C   0  0  0  0  0  0  0  0  0  0  0  0
   10.7610   15.2517   20.9477 C   0  0  0  0  0  0  0  0  0  0  0  0
    9.8704   16.1491   21.4911 N   0  0  0  0  0  0  0  0  0  0  0  0
    9.3463   16.7612   20.4508 C   0  0  0  0  0  0  0  0  0  0  0  0
    8.7503   18.2118   20.5119 C   0  0  0  0  0  0  0  0  0  0  0  0
    8.5732   18.6631   19.0686 C   0  0  0  0  0  0  0  0  0  0  0  0
    7.5160   18.8747   19.9618 C   0  0  0  0  0  0  0  0  0  0  0  0
    9.7216   16.1974   19.2505 O   0  0  0  0  0  0  0  0  0  0  0  0
   10.6655   15.2845   19.5822 C   0  0  0  0  0  0  0  0  0  0  0  0
   11.4113   14.6643   18.4905 C   0  0  0  0  0  0  0  0  0  0  0  0
    9.8488   11.2612   23.2987 N   0  0  0  0  0  0  0  0  0  0  0  0
    8.9900   10.3314   23.7299 N   0  0  0  0  0  0  0  0  0  0  0  0
    9.0307    9.0172   23.1331 C   0  0  0  0  0  0  0  0  0  0  0  0
  1  2  1  0
  2  3  1  0
  3  4  2  0
  3  5  1  0
  5  6  2  0
  6  7  1  0
  7  8  2  0
  8  9  1  0
  9 10  2  0
  9 11  1  0
 11 12  1  0
 12 13  2  0
 12 14  1  0
 14 15  1  0
 15 16  1  0
 16 17  1  0
 17 18  2  0
 18 19  1  0
 19 20  1  0
 20 21  1  0
 18 22  1  0
 22 23  1  0
 23 24  1  0
 11 25  2  0
 25 26  1  0
 26 27  1  0
 10  5  1  0
 23 16  2  0
 26  8  1  0
 21 19  1  0
M  END
>  <energy_score>  (1503) 
-11.2472

>  <inchikey>  (1503) 
PLABDPUIGSWMNQ-UHFFFAOYSA-N

>  <smiles>  (1503) 
COC(=O)c1ccc2c(c1)c(C(=O)NCc1nc(C3CC3)oc1C)nn2C

>  <ref_pdb>  (1503) 
A0514a

>  <alias>  (1503) 
PLABDPUIGSWMNQ-UHFFFAOYSA-N-P177-P126-P177-601502

>  <HIPPO Pose ID>  (1503) 
503157

>  <name>  (1503) 
PLABDPUIGSWMNQ-UHFFFAOYSA-N-P177-P126-P177-601502

>  <HIPPO Compound ID>  (1503) 
299396

>  <ref_mols>  (1503) 
A3403a,A2290a

>  <distance_score>  (1503) 
0.787866

>  <inspiration_score>  (1503) 
None

$$$$
LRCYZXJXBSOVNX-UHFFFAOYSA-N-P177-P126-P177-601502
     RDKit          3D

 27 29  0  0  0  0  0  0  0  0999 V2000
    3.6341   12.2866   28.9999 C   0  0  0  0  0  0  0  0  0  0  0  0
    4.4848   11.7519   27.9852 O   0  0  0  0  0  0  0  0  0  0  0  0
    5.6679   12.4088   27.8674 C   0  0  0  0  0  0  0  0  0  0  0  0
    6.0349   13.3558   28.5434 O   0  0  0  0  0  0  0  0  0  0  0  0
    6.4813   11.8145   26.7788 C   0  0  0  0  0  0  0  0  0  0  0  0
    6.3026   10.4951   26.3681 C   0  0  0  0  0  0  0  0  0  0  0  0
    7.0951    9.9357   25.3610 C   0  0  0  0  0  0  0  0  0  0  0  0
    8.0680   10.7240   24.7664 C   0  0  0  0  0  0  0  0  0  0  0  0
    8.2814   12.0284   25.1781 C   0  0  0  0  0  0  0  0  0  0  0  0
    7.4874   12.5914   26.1956 C   0  0  0  0  0  0  0  0  0  0  0  0
    9.3511   12.4758   24.3811 C   0  0  0  0  0  0  0  0  0  0  0  0
    9.9808   13.7859   24.4818 C   0  0  0  0  0  0  0  0  0  0  0  0
   10.0313   14.3573   25.4915 O   0  0  0  0  0  0  0  0  0  0  0  0
   10.4901   14.1720   23.1050 N   0  0  0  0  0  0  0  0  0  0  0  0
   11.0815   15.3671   22.6486 C   0  0  0  0  0  0  0  0  0  0  0  0
   10.3459   15.9882   21.5376 C   0  0  0  0  0  0  0  0  0  0  0  0
    9.1525   16.6426   21.7042 N   0  0  0  0  0  0  0  0  0  0  0  0
    8.9281   17.2070   20.5446 C   0  0  0  0  0  0  0  0  0  0  0  0
    9.7803   16.8269   19.5586 O   0  0  0  0  0  0  0  0  0  0  0  0
   10.6669   16.0036   20.2016 C   0  0  0  0  0  0  0  0  0  0  0  0
   11.4835   15.0681   19.3951 C   0  0  0  0  0  0  0  0  0  0  0  0
   11.9284   15.3953   17.9951 C   0  0  0  0  0  0  0  0  0  0  0  0
   10.4168   14.1262   19.0939 C   0  0  0  0  0  0  0  0  0  0  0  0
   12.5484   14.3493   20.1601 C   0  0  0  0  0  0  0  0  0  0  0  0
    9.7455   11.5496   23.4869 N   0  0  0  0  0  0  0  0  0  0  0  0
    8.9873   10.4768   23.7770 N   0  0  0  0  0  0  0  0  0  0  0  0
    9.2150    9.2273   23.0837 C   0  0  0  0  0  0  0  0  0  0  0  0
  1  2  1  0
  2  3  1  0
  3  4  2  0
  3  5  1  0
  5  6  2  0
  6  7  1  0
  7  8  2  0
  8  9  1  0
  9 10  2  0
  9 11  1  0
 11 12  1  0
 12 13  2  0
 12 14  1  0
 14 15  1  0
 15 16  1  0
 16 17  1  0
 17 18  2  0
 18 19  1  0
 19 20  1  0
 20 21  1  0
 21 22  1  0
 21 23  1  0
 21 24  1  0
 11 25  2  0
 25 26  1  0
 26 27  1  0
 10  5  1  0
 20 16  2  0
 26  8  1  0
M  END
>  <energy_score>  (1504) 
-15.316095

>  <inchikey>  (1504) 
LRCYZXJXBSOVNX-UHFFFAOYSA-N

>  <smiles>  (1504) 
COC(=O)c1ccc2c(c1)c(C(=O)NCc1ncoc1C(C)(C)C)nn2C

>  <ref_pdb>  (1504) 
A0514a

>  <alias>  (1504) 
LRCYZXJXBSOVNX-UHFFFAOYSA-N-P177-P126-P177-601502

>  <HIPPO Pose ID>  (1504) 
503159

>  <name>  (1504) 
LRCYZXJXBSOVNX-UHFFFAOYSA-N-P177-P126-P177-601502

>  <HIPPO Compound ID>  (1504) 
299397

>  <ref_mols>  (1504) 
A3403a,A2290a

>  <distance_score>  (1504) 
1.201101

>  <inspiration_score>  (1504) 
None

$$$$
NALINAPOYHNEFV-UHFFFAOYSA-N-P177-P126-P177-601502
     RDKit          3D

 27 29  0  0  0  0  0  0  0  0999 V2000
    4.4343   13.5491   28.9943 C   0  0  0  0  0  0  0  0  0  0  0  0
    5.1058   12.7595   28.0117 O   0  0  0  0  0  0  0  0  0  0  0  0
    6.3381   13.2232   27.6847 C   0  0  0  0  0  0  0  0  0  0  0  0
    6.8938   14.1946   28.1723 O   0  0  0  0  0  0  0  0  0  0  0  0
    6.9506   12.3749   26.6306 C   0  0  0  0  0  0  0  0  0  0  0  0
    6.5103   11.0702   26.3858 C   0  0  0  0  0  0  0  0  0  0  0  0
    7.1228   10.2726   25.4151 C   0  0  0  0  0  0  0  0  0  0  0  0
    8.1858   10.8180   24.6951 C   0  0  0  0  0  0  0  0  0  0  0  0
    8.6487   12.1136   24.9204 C   0  0  0  0  0  0  0  0  0  0  0  0
    8.0269   12.9061   25.9025 C   0  0  0  0  0  0  0  0  0  0  0  0
    9.7204   12.2821   24.0086 C   0  0  0  0  0  0  0  0  0  0  0  0
   10.6121   13.4380   23.8179 C   0  0  0  0  0  0  0  0  0  0  0  0
   10.7404   14.2732   24.6202 O   0  0  0  0  0  0  0  0  0  0  0  0
   11.2505   13.2830   22.4341 N   0  0  0  0  0  0  0  0  0  0  0  0
   12.1020   14.1584   21.7055 C   0  0  0  0  0  0  0  0  0  0  0  0
   11.2436   15.1092   21.0062 C   0  0  0  0  0  0  0  0  0  0  0  0
   10.4902   15.9827   21.7179 N   0  0  0  0  0  0  0  0  0  0  0  0
    9.7256   16.5441   20.8150 C   0  0  0  0  0  0  0  0  0  0  0  0
    8.4677   17.2690   21.0853 C   0  0  0  0  0  0  0  0  0  0  0  0
    8.0862   18.1467   19.8878 C   0  0  0  0  0  0  0  0  0  0  0  0
    7.5142   16.1697   21.6119 C   0  0  0  0  0  0  0  0  0  0  0  0
    9.9710   16.1463   19.5310 O   0  0  0  0  0  0  0  0  0  0  0  0
   10.9807   15.2511   19.6677 C   0  0  0  0  0  0  0  0  0  0  0  0
   11.5258   14.6754   18.4476 C   0  0  0  0  0  0  0  0  0  0  0  0
    9.8768   11.1885   23.2428 N   0  0  0  0  0  0  0  0  0  0  0  0
    8.9884   10.3090   23.7073 N   0  0  0  0  0  0  0  0  0  0  0  0
    8.9789    8.9802   23.1458 C   0  0  0  0  0  0  0  0  0  0  0  0
  1  2  1  0
  2  3  1  0
  3  4  2  0
  3  5  1  0
  5  6  2  0
  6  7  1  0
  7  8  2  0
  8  9  1  0
  9 10  2  0
  9 11  1  0
 11 12  1  0
 12 13  2  0
 12 14  1  0
 14 15  1  0
 15 16  1  0
 16 17  1  0
 17 18  2  0
 18 19  1  0
 19 20  1  0
 19 21  1  0
 18 22  1  0
 22 23  1  0
 23 24  1  0
 11 25  2  0
 25 26  1  0
 26 27  1  0
 10  5  1  0
 23 16  2  0
 26  8  1  0
M  END
>  <energy_score>  (1505) 
-11.04038

>  <inchikey>  (1505) 
NALINAPOYHNEFV-UHFFFAOYSA-N

>  <smiles>  (1505) 
COC(=O)c1ccc2c(c1)c(C(=O)NCc1nc(C(C)C)oc1C)nn2C

>  <ref_pdb>  (1505) 
A0514a

>  <alias>  (1505) 
NALINAPOYHNEFV-UHFFFAOYSA-N-P177-P126-P177-601502

>  <HIPPO Pose ID>  (1505) 
503161

>  <name>  (1505) 
NALINAPOYHNEFV-UHFFFAOYSA-N-P177-P126-P177-601502

>  <HIPPO Compound ID>  (1505) 
299398

>  <ref_mols>  (1505) 
A3403a,A2290a

>  <distance_score>  (1505) 
0.790349

>  <inspiration_score>  (1505) 
None

$$$$
BSFIDOJZPVQUJN-UHFFFAOYSA-N-P177-P126-P177-601502
     RDKit          3D

 27 30  0  0  0  0  0  0  0  0999 V2000
   10.5596   14.4638   24.5657 O   0  0  0  0  0  0  0  0  0  0  0  0
   10.5496   13.5693   23.8195 C   0  0  0  0  0  0  0  0  0  0  0  0
   11.2535   13.3927   22.4705 N   0  0  0  0  0  0  0  0  0  0  0  0
   12.0343   14.3006   21.7133 C   0  0  0  0  0  0  0  0  0  0  0  0
   11.1409   15.0145   20.8082 C   0  0  0  0  0  0  0  0  0  0  0  0
   10.9812   14.8438   19.4585 C   0  0  0  0  0  0  0  0  0  0  0  0
   10.0332   15.7082   19.0485 O   0  0  0  0  0  0  0  0  0  0  0  0
    9.7029   16.4187   20.1777 C   0  0  0  0  0  0  0  0  0  0  0  0
    8.9083   17.5818   20.1054 C   0  0  0  0  0  0  0  0  0  0  0  0
    8.7266   18.6038   20.9773 C   0  0  0  0  0  0  0  0  0  0  0  0
    8.1150   19.6982   20.3283 C   0  0  0  0  0  0  0  0  0  0  0  0
    7.6213   19.4457   19.1025 C   0  0  0  0  0  0  0  0  0  0  0  0
    8.1559   17.9762   18.6851 S   0  0  0  0  0  0  0  0  0  0  0  0
   10.3169   16.0044   21.2630 N   0  0  0  0  0  0  0  0  0  0  0  0
    9.7433   12.3553   24.0280 C   0  0  0  0  0  0  0  0  0  0  0  0
    9.9974   11.2687   23.2823 N   0  0  0  0  0  0  0  0  0  0  0  0
    9.1222   10.3316   23.6945 N   0  0  0  0  0  0  0  0  0  0  0  0
    9.0996    9.0097   23.0562 C   0  0  0  0  0  0  0  0  0  0  0  0
    7.8283    8.6283   22.8309 F   0  0  0  0  0  0  0  0  0  0  0  0
    9.6665    8.0517   23.8247 F   0  0  0  0  0  0  0  0  0  0  0  0
    9.7339    8.9877   21.8593 F   0  0  0  0  0  0  0  0  0  0  0  0
    8.2790   10.8043   24.6786 C   0  0  0  0  0  0  0  0  0  0  0  0
    7.2197   10.2145   25.3713 C   0  0  0  0  0  0  0  0  0  0  0  0
    6.5445   10.9849   26.3207 C   0  0  0  0  0  0  0  0  0  0  0  0
    6.9100   12.3046   26.5649 C   0  0  0  0  0  0  0  0  0  0  0  0
    7.9703   12.8888   25.8671 C   0  0  0  0  0  0  0  0  0  0  0  0
    8.6665   12.1243   24.9141 C   0  0  0  0  0  0  0  0  0  0  0  0
  1  2  2  0
  2  3  1  0
  3  4  1  0
  4  5  1  0
  5  6  2  0
  6  7  1  0
  7  8  1  0
  8  9  1  0
  9 10  2  0
 10 11  1  0
 11 12  2  0
 12 13  1  0
  8 14  2  0
  2 15  1  0
 15 16  2  0
 16 17  1  0
 17 18  1  0
 18 19  1  0
 18 20  1  0
 18 21  1  0
 17 22  1  0
 22 23  2  0
 23 24  1  0
 24 25  2  0
 25 26  1  0
 26 27  2  0
 14  5  1  0
 27 15  1  0
 13  9  1  0
 27 22  1  0
M  END
>  <energy_score>  (1506) 
-5.780811

>  <inchikey>  (1506) 
BSFIDOJZPVQUJN-UHFFFAOYSA-N

>  <smiles>  (1506) 
O=C(NCc1coc(-c2cccs2)n1)c1nn(C(F)(F)F)c2ccccc12

>  <ref_pdb>  (1506) 
A0514a

>  <alias>  (1506) 
BSFIDOJZPVQUJN-UHFFFAOYSA-N-P177-P126-P177-601502

>  <HIPPO Pose ID>  (1506) 
503167

>  <name>  (1506) 
BSFIDOJZPVQUJN-UHFFFAOYSA-N-P177-P126-P177-601502

>  <HIPPO Compound ID>  (1506) 
299401

>  <ref_mols>  (1506) 
A3403a,A2290a

>  <distance_score>  (1506) 
0.693368

>  <inspiration_score>  (1506) 
None

$$$$
UHPIDFVZLXOWRW-UHFFFAOYSA-N-P177-P126-P177-601502
     RDKit          3D

 27 29  0  0  0  0  0  0  0  0999 V2000
    4.1153   13.0787   28.9366 C   0  0  0  0  0  0  0  0  0  0  0  0
    4.8633   12.3770   27.9426 O   0  0  0  0  0  0  0  0  0  0  0  0
    6.0901   12.9103   27.7095 C   0  0  0  0  0  0  0  0  0  0  0  0
    6.5787   13.8694   28.2841 O   0  0  0  0  0  0  0  0  0  0  0  0
    6.7863   12.1562   26.6381 C   0  0  0  0  0  0  0  0  0  0  0  0
    6.4676   10.8264   26.3540 C   0  0  0  0  0  0  0  0  0  0  0  0
    7.1601   10.1154   25.3703 C   0  0  0  0  0  0  0  0  0  0  0  0
    8.1751   10.7682   24.6753 C   0  0  0  0  0  0  0  0  0  0  0  0
    8.5155   12.0905   24.9412 C   0  0  0  0  0  0  0  0  0  0  0  0
    7.8183   12.7987   25.9388 C   0  0  0  0  0  0  0  0  0  0  0  0
    9.5652   12.3830   24.0368 C   0  0  0  0  0  0  0  0  0  0  0  0
   10.2972   13.6484   23.8831 C   0  0  0  0  0  0  0  0  0  0  0  0
   10.2533   14.4838   24.6925 O   0  0  0  0  0  0  0  0  0  0  0  0
   10.9845   13.6258   22.5170 N   0  0  0  0  0  0  0  0  0  0  0  0
   11.6784   14.6455   21.8175 C   0  0  0  0  0  0  0  0  0  0  0  0
   10.7253   15.3549   20.9436 C   0  0  0  0  0  0  0  0  0  0  0  0
    9.7587   16.1817   21.4541 N   0  0  0  0  0  0  0  0  0  0  0  0
    9.2218   16.7417   20.3989 C   0  0  0  0  0  0  0  0  0  0  0  0
    9.6989   16.2813   19.2082 O   0  0  0  0  0  0  0  0  0  0  0  0
   10.6695   15.3859   19.5726 C   0  0  0  0  0  0  0  0  0  0  0  0
   11.4676   14.7180   18.5479 C   0  0  0  0  0  0  0  0  0  0  0  0
   11.9230   15.5487   17.5907 F   0  0  0  0  0  0  0  0  0  0  0  0
   12.5652   14.1320   19.0914 F   0  0  0  0  0  0  0  0  0  0  0  0
   10.7887   13.7153   17.9543 F   0  0  0  0  0  0  0  0  0  0  0  0
    9.8403   11.3280   23.2502 N   0  0  0  0  0  0  0  0  0  0  0  0
    9.0273   10.3570   23.6818 N   0  0  0  0  0  0  0  0  0  0  0  0
    9.1227    9.0450   23.0838 C   0  0  0  0  0  0  0  0  0  0  0  0
  1  2  1  0
  2  3  1  0
  3  4  2  0
  3  5  1  0
  5  6  2  0
  6  7  1  0
  7  8  2  0
  8  9  1  0
  9 10  2  0
  9 11  1  0
 11 12  1  0
 12 13  2  0
 12 14  1  0
 14 15  1  0
 15 16  1  0
 16 17  1  0
 17 18  2  0
 18 19  1  0
 19 20  1  0
 20 21  1  0
 21 22  1  0
 21 23  1  0
 21 24  1  0
 11 25  2  0
 25 26  1  0
 26 27  1  0
 10  5  1  0
 20 16  2  0
 26  8  1  0
M  END
>  <energy_score>  (1507) 
-19.812503

>  <inchikey>  (1507) 
UHPIDFVZLXOWRW-UHFFFAOYSA-N

>  <smiles>  (1507) 
COC(=O)c1ccc2c(c1)c(C(=O)NCc1ncoc1C(F)(F)F)nn2C

>  <ref_pdb>  (1507) 
A0514a

>  <alias>  (1507) 
UHPIDFVZLXOWRW-UHFFFAOYSA-N-P177-P126-P177-601502

>  <HIPPO Pose ID>  (1507) 
503169

>  <name>  (1507) 
UHPIDFVZLXOWRW-UHFFFAOYSA-N-P177-P126-P177-601502

>  <HIPPO Compound ID>  (1507) 
299402

>  <ref_mols>  (1507) 
A3403a,A2290a

>  <distance_score>  (1507) 
0.752917

>  <inspiration_score>  (1507) 
None

$$$$
ZANWYZMDCAMQAT-UHFFFAOYSA-N-P177-P126-P177-601502
     RDKit          3D

 27 29  0  0  0  0  0  0  0  0999 V2000
    4.5993   13.6758   28.9697 C   0  0  0  0  0  0  0  0  0  0  0  0
    5.2423   12.8695   27.9816 O   0  0  0  0  0  0  0  0  0  0  0  0
    6.4822   13.3048   27.6450 C   0  0  0  0  0  0  0  0  0  0  0  0
    7.0698   14.2554   28.1363 O   0  0  0  0  0  0  0  0  0  0  0  0
    7.0622   12.4516   26.5775 C   0  0  0  0  0  0  0  0  0  0  0  0
    6.6145   11.1450   26.3536 C   0  0  0  0  0  0  0  0  0  0  0  0
    7.2065   10.3385   25.3777 C   0  0  0  0  0  0  0  0  0  0  0  0
    8.2539   10.8825   24.6306 C   0  0  0  0  0  0  0  0  0  0  0  0
    8.7169   12.1841   24.8250 C   0  0  0  0  0  0  0  0  0  0  0  0
    8.1173   12.9815   25.8168 C   0  0  0  0  0  0  0  0  0  0  0  0
    9.7558   12.3562   23.8707 C   0  0  0  0  0  0  0  0  0  0  0  0
   10.6159   13.5339   23.6212 C   0  0  0  0  0  0  0  0  0  0  0  0
   10.7518   14.3803   24.4116 O   0  0  0  0  0  0  0  0  0  0  0  0
   11.2129   13.3794   22.2153 N   0  0  0  0  0  0  0  0  0  0  0  0
   12.0232   14.2706   21.4476 C   0  0  0  0  0  0  0  0  0  0  0  0
   11.1259   15.1546   20.6953 C   0  0  0  0  0  0  0  0  0  0  0  0
   10.8088   15.1853   19.3586 C   0  0  0  0  0  0  0  0  0  0  0  0
    9.8538   16.1384   19.1761 O   0  0  0  0  0  0  0  0  0  0  0  0
    9.6580   16.6603   20.4334 C   0  0  0  0  0  0  0  0  0  0  0  0
    8.5183   17.5869   20.6337 C   0  0  0  0  0  0  0  0  0  0  0  0
    8.0186   18.0646   19.4617 F   0  0  0  0  0  0  0  0  0  0  0  0
    8.8258   18.6655   21.3899 F   0  0  0  0  0  0  0  0  0  0  0  0
    7.5447   16.8739   21.2568 F   0  0  0  0  0  0  0  0  0  0  0  0
   10.4232   16.1145   21.3583 N   0  0  0  0  0  0  0  0  0  0  0  0
    9.9036   11.2465   23.1271 N   0  0  0  0  0  0  0  0  0  0  0  0
    9.0375   10.3651   23.6327 N   0  0  0  0  0  0  0  0  0  0  0  0
    9.0261    9.0220   23.1038 C   0  0  0  0  0  0  0  0  0  0  0  0
  1  2  1  0
  2  3  1  0
  3  4  2  0
  3  5  1  0
  5  6  2  0
  6  7  1  0
  7  8  2  0
  8  9  1  0
  9 10  2  0
  9 11  1  0
 11 12  1  0
 12 13  2  0
 12 14  1  0
 14 15  1  0
 15 16  1  0
 16 17  2  0
 17 18  1  0
 18 19  1  0
 19 20  1  0
 20 21  1  0
 20 22  1  0
 20 23  1  0
 19 24  2  0
 11 25  2  0
 25 26  1  0
 26 27  1  0
 10  5  1  0
 24 16  1  0
 26  8  1  0
M  END
>  <energy_score>  (1508) 
-16.184211

>  <inchikey>  (1508) 
ZANWYZMDCAMQAT-UHFFFAOYSA-N

>  <smiles>  (1508) 
COC(=O)c1ccc2c(c1)c(C(=O)NCc1coc(C(F)(F)F)n1)nn2C

>  <ref_pdb>  (1508) 
A0514a

>  <alias>  (1508) 
ZANWYZMDCAMQAT-UHFFFAOYSA-N-P177-P126-P177-601502

>  <HIPPO Pose ID>  (1508) 
503171

>  <name>  (1508) 
ZANWYZMDCAMQAT-UHFFFAOYSA-N-P177-P126-P177-601502

>  <HIPPO Compound ID>  (1508) 
299403

>  <ref_mols>  (1508) 
A3403a,A2290a

>  <distance_score>  (1508) 
0.657294

>  <inspiration_score>  (1508) 
None

$$$$
DCGBILXPBQQCFB-UHFFFAOYSA-N-P126-P126-P177-601502
     RDKit          3D

 27 29  0  0  0  0  0  0  0  0999 V2000
    3.9159   12.5063   28.6351 C   0  0  0  0  0  0  0  0  0  0  0  0
    4.7777   11.8440   27.7094 O   0  0  0  0  0  0  0  0  0  0  0  0
    6.0075   12.4095   27.6102 C   0  0  0  0  0  0  0  0  0  0  0  0
    6.4123   13.3719   28.2421 O   0  0  0  0  0  0  0  0  0  0  0  0
    6.8258   11.6889   26.6056 C   0  0  0  0  0  0  0  0  0  0  0  0
    6.6088   10.3397   26.3180 C   0  0  0  0  0  0  0  0  0  0  0  0
    7.4089    9.6679   25.3890 C   0  0  0  0  0  0  0  0  0  0  0  0
    8.4232   10.3798   24.7459 C   0  0  0  0  0  0  0  0  0  0  0  0
    8.6788   11.7142   25.0428 C   0  0  0  0  0  0  0  0  0  0  0  0
    7.8702   12.3858   25.9806 C   0  0  0  0  0  0  0  0  0  0  0  0
    9.8000   12.0506   24.2483 C   0  0  0  0  0  0  0  0  0  0  0  0
   10.5346   13.3194   24.2227 C   0  0  0  0  0  0  0  0  0  0  0  0
   10.4394   14.1060   25.0744 O   0  0  0  0  0  0  0  0  0  0  0  0
   11.3023   13.3750   22.9054 N   0  0  0  0  0  0  0  0  0  0  0  0
   12.0365   14.4340   22.3086 C   0  0  0  0  0  0  0  0  0  0  0  0
   11.4207   14.7254   21.0075 C   0  0  0  0  0  0  0  0  0  0  0  0
   11.8737   14.3795   19.7642 C   0  0  0  0  0  0  0  0  0  0  0  0
   11.0748   14.9545   18.8449 O   0  0  0  0  0  0  0  0  0  0  0  0
   10.1704   15.6703   19.5771 C   0  0  0  0  0  0  0  0  0  0  0  0
    9.4780   16.7435   18.8011 C   0  0  0  0  0  0  0  0  0  0  0  0
    8.4851   17.5499   19.5128 N   0  0  0  0  0  0  0  0  0  0  0  0
    8.1475   18.7426   18.8076 C   0  0  0  0  0  0  0  0  0  0  0  0
    8.6482   17.7676   20.9247 C   0  0  0  0  0  0  0  0  0  0  0  0
   10.2785   15.4771   20.8826 N   0  0  0  0  0  0  0  0  0  0  0  0
   10.1640   11.0346   23.4451 N   0  0  0  0  0  0  0  0  0  0  0  0
    9.3342   10.0337   23.7765 N   0  0  0  0  0  0  0  0  0  0  0  0
    9.4781    8.7712   23.0903 C   0  0  0  0  0  0  0  0  0  0  0  0
  1  2  1  0
  2  3  1  0
  3  4  2  0
  3  5  1  0
  5  6  2  0
  6  7  1  0
  7  8  2  0
  8  9  1  0
  9 10  2  0
  9 11  1  0
 11 12  1  0
 12 13  2  0
 12 14  1  0
 14 15  1  0
 15 16  1  0
 16 17  2  0
 17 18  1  0
 18 19  1  0
 19 20  1  0
 20 21  1  0
 21 22  1  0
 21 23  1  0
 19 24  2  0
 11 25  2  0
 25 26  1  0
 26 27  1  0
 10  5  1  0
 24 16  1  0
 26  8  1  0
M  END
>  <energy_score>  (1509) 
-20.290551

>  <inchikey>  (1509) 
DCGBILXPBQQCFB-UHFFFAOYSA-N

>  <smiles>  (1509) 
COC(=O)c1ccc2c(c1)c(C(=O)NCc1coc(CN(C)C)n1)nn2C

>  <ref_pdb>  (1509) 
A0514a

>  <alias>  (1509) 
DCGBILXPBQQCFB-UHFFFAOYSA-N-P126-P126-P177-601502

>  <HIPPO Pose ID>  (1509) 
503172

>  <name>  (1509) 
DCGBILXPBQQCFB-UHFFFAOYSA-N-P126-P126-P177-601502

>  <HIPPO Compound ID>  (1509) 
299404

>  <ref_mols>  (1509) 
A3403a,A2290a

>  <distance_score>  (1509) 
1.011904

>  <inspiration_score>  (1509) 
None

$$$$
NMEMOOQTWSBFNN-UHFFFAOYSA-N-P177-P126-P177-601502
     RDKit          3D

 28 31  0  0  0  0  0  0  0  0999 V2000
    9.9218   14.2278   26.2254 O   0  0  0  0  0  0  0  0  0  0  0  0
    9.9542   13.6164   25.2468 C   0  0  0  0  0  0  0  0  0  0  0  0
   10.3916   14.0051   23.8749 N   0  0  0  0  0  0  0  0  0  0  0  0
   10.7921   15.2267   23.3716 C   0  0  0  0  0  0  0  0  0  0  0  0
    9.5609   15.5266   22.6024 C   0  0  0  0  0  0  0  0  0  0  0  0
    8.2729   15.4892   23.1022 N   0  0  0  0  0  0  0  0  0  0  0  0
    7.5396   15.8838   22.0864 C   0  0  0  0  0  0  0  0  0  0  0  0
    8.2014   15.9468   20.9112 O   0  0  0  0  0  0  0  0  0  0  0  0
    9.4581   15.6301   21.2646 C   0  0  0  0  0  0  0  0  0  0  0  0
   10.3886   15.3417   20.2724 C   0  0  0  0  0  0  0  0  0  0  0  0
   11.3103   14.3245   20.4873 C   0  0  0  0  0  0  0  0  0  0  0  0
   12.1549   13.9576   19.4931 C   0  0  0  0  0  0  0  0  0  0  0  0
   12.0243   14.5905   18.3044 C   0  0  0  0  0  0  0  0  0  0  0  0
   11.2715   15.7181   18.1918 C   0  0  0  0  0  0  0  0  0  0  0  0
   10.3733   16.0834   19.1402 C   0  0  0  0  0  0  0  0  0  0  0  0
    9.4670   12.2768   25.0571 C   0  0  0  0  0  0  0  0  0  0  0  0
    9.8902   11.4907   24.0447 N   0  0  0  0  0  0  0  0  0  0  0  0
    9.0696   10.4114   24.1091 N   0  0  0  0  0  0  0  0  0  0  0  0
    9.3033    9.2503   23.2367 C   0  0  0  0  0  0  0  0  0  0  0  0
    8.1993    8.4873   23.1361 F   0  0  0  0  0  0  0  0  0  0  0  0
    9.6290    9.6208   21.9791 F   0  0  0  0  0  0  0  0  0  0  0  0
   10.2936    8.4505   23.6943 F   0  0  0  0  0  0  0  0  0  0  0  0
    8.0688   10.5984   25.0443 C   0  0  0  0  0  0  0  0  0  0  0  0
    6.9964    9.8334   25.4548 C   0  0  0  0  0  0  0  0  0  0  0  0
    6.1471   10.3322   26.4496 C   0  0  0  0  0  0  0  0  0  0  0  0
    6.3218   11.5928   26.9926 C   0  0  0  0  0  0  0  0  0  0  0  0
    7.4020   12.3572   26.5906 C   0  0  0  0  0  0  0  0  0  0  0  0
    8.2949   11.8203   25.6481 C   0  0  0  0  0  0  0  0  0  0  0  0
  1  2  2  0
  2  3  1  0
  3  4  1  0
  4  5  1  0
  5  6  1  0
  6  7  2  0
  7  8  1  0
  8  9  1  0
  9 10  1  0
 10 11  2  0
 11 12  1  0
 12 13  2  0
 13 14  1  0
 14 15  2  0
  2 16  1  0
 16 17  2  0
 17 18  1  0
 18 19  1  0
 19 20  1  0
 19 21  1  0
 19 22  1  0
 18 23  1  0
 23 24  2  0
 24 25  1  0
 25 26  2  0
 26 27  1  0
 27 28  2  0
  9  5  2  0
 15 10  1  0
 28 16  1  0
 28 23  1  0
M  END
>  <energy_score>  (1510) 
-4.294734

>  <inchikey>  (1510) 
NMEMOOQTWSBFNN-UHFFFAOYSA-N

>  <smiles>  (1510) 
O=C(NCc1ncoc1-c1ccccc1)c1nn(C(F)(F)F)c2ccccc12

>  <ref_pdb>  (1510) 
A0514a

>  <alias>  (1510) 
NMEMOOQTWSBFNN-UHFFFAOYSA-N-P177-P126-P177-601502

>  <HIPPO Pose ID>  (1510) 
503205

>  <name>  (1510) 
NMEMOOQTWSBFNN-UHFFFAOYSA-N-P177-P126-P177-601502

>  <HIPPO Compound ID>  (1510) 
299420

>  <ref_mols>  (1510) 
A3403a,A2290a

>  <distance_score>  (1510) 
1.937373

>  <inspiration_score>  (1510) 
None

$$$$
GCJLIHVIGLAYJM-UHFFFAOYSA-N-P177-P126-P177-601502
     RDKit          3D

 28 31  0  0  0  0  0  0  0  0999 V2000
    4.4424   13.6479   28.9786 C   0  0  0  0  0  0  0  0  0  0  0  0
    5.1083   12.8338   28.0114 O   0  0  0  0  0  0  0  0  0  0  0  0
    6.3480   13.2790   27.6869 C   0  0  0  0  0  0  0  0  0  0  0  0
    6.9209   14.2394   28.1754 O   0  0  0  0  0  0  0  0  0  0  0  0
    6.9483   12.4214   26.6344 C   0  0  0  0  0  0  0  0  0  0  0  0
    6.5187   11.1072   26.4203 C   0  0  0  0  0  0  0  0  0  0  0  0
    7.1256   10.2984   25.4553 C   0  0  0  0  0  0  0  0  0  0  0  0
    8.1725   10.8439   24.7110 C   0  0  0  0  0  0  0  0  0  0  0  0
    8.6183   12.1523   24.8994 C   0  0  0  0  0  0  0  0  0  0  0  0
    8.0030   12.9543   25.8771 C   0  0  0  0  0  0  0  0  0  0  0  0
    9.6635   12.3239   23.9572 C   0  0  0  0  0  0  0  0  0  0  0  0
   10.5134   13.5026   23.6993 C   0  0  0  0  0  0  0  0  0  0  0  0
   10.5652   14.4174   24.4181 O   0  0  0  0  0  0  0  0  0  0  0  0
   11.2080   13.2528   22.3594 N   0  0  0  0  0  0  0  0  0  0  0  0
   12.0330   14.1013   21.5748 C   0  0  0  0  0  0  0  0  0  0  0  0
   11.2110   14.7581   20.5613 C   0  0  0  0  0  0  0  0  0  0  0  0
   11.3100   14.7869   19.1912 C   0  0  0  0  0  0  0  0  0  0  0  0
   10.3479   15.6221   18.7202 O   0  0  0  0  0  0  0  0  0  0  0  0
    9.7515   16.0844   19.8517 C   0  0  0  0  0  0  0  0  0  0  0  0
    8.9568   17.2347   19.9467 C   0  0  0  0  0  0  0  0  0  0  0  0
    8.7058   17.8485   21.1225 C   0  0  0  0  0  0  0  0  0  0  0  0
    8.3568   19.1605   20.8466 C   0  0  0  0  0  0  0  0  0  0  0  0
    7.8438   19.3856   19.6154 C   0  0  0  0  0  0  0  0  0  0  0  0
    8.2032   18.0727   18.7200 S   0  0  0  0  0  0  0  0  0  0  0  0
   10.1604   15.5075   20.9588 N   0  0  0  0  0  0  0  0  0  0  0  0
    9.8334   11.2080   23.2241 N   0  0  0  0  0  0  0  0  0  0  0  0
    8.9693   10.3270   23.7238 N   0  0  0  0  0  0  0  0  0  0  0  0
    8.9685    8.9894   23.1851 C   0  0  0  0  0  0  0  0  0  0  0  0
  1  2  1  0
  2  3  1  0
  3  4  2  0
  3  5  1  0
  5  6  2  0
  6  7  1  0
  7  8  2  0
  8  9  1  0
  9 10  2  0
  9 11  1  0
 11 12  1  0
 12 13  2  0
 12 14  1  0
 14 15  1  0
 15 16  1  0
 16 17  2  0
 17 18  1  0
 18 19  1  0
 19 20  1  0
 20 21  2  0
 21 22  1  0
 22 23  2  0
 23 24  1  0
 19 25  2  0
 11 26  2  0
 26 27  1  0
 27 28  1  0
 10  5  1  0
 25 16  1  0
 27  8  1  0
 24 20  1  0
M  END
>  <energy_score>  (1511) 
-30.146825

>  <inchikey>  (1511) 
GCJLIHVIGLAYJM-UHFFFAOYSA-N

>  <smiles>  (1511) 
COC(=O)c1ccc2c(c1)c(C(=O)NCc1coc(-c3cccs3)n1)nn2C

>  <ref_pdb>  (1511) 
A0514a

>  <alias>  (1511) 
GCJLIHVIGLAYJM-UHFFFAOYSA-N-P177-P126-P177-601502

>  <HIPPO Pose ID>  (1511) 
503207

>  <name>  (1511) 
GCJLIHVIGLAYJM-UHFFFAOYSA-N-P177-P126-P177-601502

>  <HIPPO Compound ID>  (1511) 
299421

>  <ref_mols>  (1511) 
A3403a,A2290a

>  <distance_score>  (1511) 
0.789899

>  <inspiration_score>  (1511) 
None

$$$$
BIJUZQUXVURVPM-UHFFFAOYSA-N-P126-P126-P177-601502
     RDKit          3D

 28 31  0  0  0  0  0  0  0  0999 V2000
   13.1187   14.9270   21.1253 C   0  0  0  0  0  0  0  0  0  0  0  0
   12.6244   14.0569   20.1144 O   0  0  0  0  0  0  0  0  0  0  0  0
   11.6376   14.5581   19.1956 C   0  0  0  0  0  0  0  0  0  0  0  0
   10.4875   15.1188   19.9213 C   0  0  0  0  0  0  0  0  0  0  0  0
    9.8832   16.2177   19.3762 O   0  0  0  0  0  0  0  0  0  0  0  0
    9.0551   16.6472   20.3591 C   0  0  0  0  0  0  0  0  0  0  0  0
    8.9636   15.8373   21.3869 N   0  0  0  0  0  0  0  0  0  0  0  0
    9.9558   14.9193   21.1763 C   0  0  0  0  0  0  0  0  0  0  0  0
   10.5186   14.0969   22.2661 C   0  0  0  0  0  0  0  0  0  0  0  0
    9.5527   13.4195   23.0351 N   0  0  0  0  0  0  0  0  0  0  0  0
    9.0042   13.7193   24.4307 C   0  0  0  0  0  0  0  0  0  0  0  0
    9.2030   14.6176   25.1432 O   0  0  0  0  0  0  0  0  0  0  0  0
    8.2068   12.5651   24.7940 C   0  0  0  0  0  0  0  0  0  0  0  0
    8.2624   11.4958   23.9907 N   0  0  0  0  0  0  0  0  0  0  0  0
    7.8472   10.5031   24.7575 N   0  0  0  0  0  0  0  0  0  0  0  0
    8.3027    9.1831   24.4424 C   0  0  0  0  0  0  0  0  0  0  0  0
    9.7475    9.1914   24.0280 C   0  0  1  0  0  0  0  0  0  0  0  0
   10.1403    7.8239   23.5908 C   0  0  0  0  0  0  0  0  0  0  0  0
    9.4671    7.8911   22.3813 N   0  0  0  0  0  0  0  0  0  0  0  0
   10.0571    9.0199   21.9240 C   0  0  0  0  0  0  0  0  0  0  0  0
   10.7334    9.0492   20.9345 O   0  0  0  0  0  0  0  0  0  0  0  0
   10.0496    9.9617   22.8843 O   0  0  0  0  0  0  0  0  0  0  0  0
    7.1980   10.9168   25.8778 C   0  0  0  0  0  0  0  0  0  0  0  0
    6.4542   10.2361   26.8366 C   0  0  0  0  0  0  0  0  0  0  0  0
    6.0035   10.9851   27.9211 C   0  0  0  0  0  0  0  0  0  0  0  0
    6.3056   12.3422   28.0442 C   0  0  0  0  0  0  0  0  0  0  0  0
    7.0528   13.0078   27.0724 C   0  0  0  0  0  0  0  0  0  0  0  0
    7.4737   12.2814   25.9556 C   0  0  0  0  0  0  0  0  0  0  0  0
  1  2  1  0
  2  3  1  0
  3  4  1  0
  4  5  1  0
  5  6  1  0
  6  7  2  0
  7  8  1  0
  8  9  1  0
  9 10  1  0
 10 11  1  0
 11 12  2  0
 11 13  1  0
 13 14  2  0
 14 15  1  0
 15 16  1  0
 17 16  1  6
 17 18  1  0
 18 19  1  0
 19 20  1  0
 20 21  2  0
 20 22  1  0
 15 23  1  0
 23 24  2  0
 24 25  1  0
 25 26  2  0
 26 27  1  0
 27 28  2  0
  8  4  2  0
 28 13  1  0
 22 17  1  0
 28 23  1  0
M  END
>  <energy_score>  (1512) 
-4.709961

>  <inchikey>  (1512) 
BIJUZQUXVURVPM-UHFFFAOYSA-N

>  <smiles>  (1512) 
COCc1ocnc1CNC(=O)c1nn(CC2CNC(=O)O2)c2ccccc12

>  <ref_pdb>  (1512) 
A0514a

>  <alias>  (1512) 
BIJUZQUXVURVPM-UHFFFAOYSA-N-P126-P126-P177-601502

>  <HIPPO Pose ID>  (1512) 
503258

>  <name>  (1512) 
BIJUZQUXVURVPM-UHFFFAOYSA-N-P126-P126-P177-601502

>  <HIPPO Compound ID>  (1512) 
299447

>  <ref_mols>  (1512) 
A3403a,A2290a

>  <distance_score>  (1512) 
1.855039

>  <inspiration_score>  (1512) 
None

$$$$
DSLALQJWRPWPMF-UHFFFAOYSA-N-P126-P126-P177-601502
     RDKit          3D

 28 31  0  0  0  0  0  0  0  0999 V2000
    8.7083    7.0781   21.8969 O   0  0  0  0  0  0  0  0  0  0  0  0
    9.1502    7.9507   22.6083 C   0  0  0  0  0  0  0  0  0  0  0  0
   10.0610    8.9021   22.2744 N   0  0  0  0  0  0  0  0  0  0  0  0
   10.5010    9.4875   23.4701 C   0  0  0  0  0  0  0  0  0  0  0  0
    9.2804    9.3533   24.3145 C   0  0  1  0  0  0  0  0  0  0  0  0
    8.1798   10.2886   24.0460 C   0  0  0  0  0  0  0  0  0  0  0  0
    8.5048   11.5945   24.4716 N   0  0  0  0  0  0  0  0  0  0  0  0
    9.4634   12.1980   23.8057 N   0  0  0  0  0  0  0  0  0  0  0  0
    9.8454   13.1865   24.6180 C   0  0  0  0  0  0  0  0  0  0  0  0
   11.0571   13.8991   24.2168 C   0  0  0  0  0  0  0  0  0  0  0  0
   11.6307   14.6347   24.9165 O   0  0  0  0  0  0  0  0  0  0  0  0
   11.2895   13.5426   22.7371 N   0  0  0  0  0  0  0  0  0  0  0  0
   12.2112   14.0826   21.7833 C   0  0  0  0  0  0  0  0  0  0  0  0
   11.3216   14.8674   20.8927 C   0  0  0  0  0  0  0  0  0  0  0  0
   11.0232   14.8083   19.5516 C   0  0  0  0  0  0  0  0  0  0  0  0
   10.0271   15.7146   19.2912 O   0  0  0  0  0  0  0  0  0  0  0  0
    9.7864   16.3004   20.5033 C   0  0  0  0  0  0  0  0  0  0  0  0
    8.7228   17.3204   20.6412 C   0  0  0  0  0  0  0  0  0  0  0  0
    7.6864   16.7176   21.2794 F   0  0  0  0  0  0  0  0  0  0  0  0
    8.2774   17.8017   19.4510 F   0  0  0  0  0  0  0  0  0  0  0  0
   10.5235   15.8106   21.4743 N   0  0  0  0  0  0  0  0  0  0  0  0
    8.9204   13.3176   25.6935 C   0  0  0  0  0  0  0  0  0  0  0  0
    8.6979   14.1947   26.7617 C   0  0  0  0  0  0  0  0  0  0  0  0
    7.6581   13.9087   27.6636 C   0  0  0  0  0  0  0  0  0  0  0  0
    6.8602   12.7711   27.5332 C   0  0  0  0  0  0  0  0  0  0  0  0
    7.0578   11.8880   26.4834 C   0  0  0  0  0  0  0  0  0  0  0  0
    8.0757   12.2147   25.5846 C   0  0  0  0  0  0  0  0  0  0  0  0
    8.7948    8.1029   23.9247 O   0  0  0  0  0  0  0  0  0  0  0  0
  1  2  2  0
  2  3  1  0
  3  4  1  0
  4  5  1  0
  5  6  1  6
  6  7  1  0
  7  8  1  0
  8  9  2  0
  9 10  1  0
 10 11  2  0
 10 12  1  0
 12 13  1  0
 13 14  1  0
 14 15  2  0
 15 16  1  0
 16 17  1  0
 17 18  1  0
 18 19  1  0
 18 20  1  0
 17 21  2  0
  9 22  1  0
 22 23  2  0
 23 24  1  0
 24 25  2  0
 25 26  1  0
 26 27  2  0
  5 28  1  0
 28  2  1  0
 27  7  1  0
 21 14  1  0
 27 22  1  0
M  END
>  <energy_score>  (1513) 
-15.884844

>  <inchikey>  (1513) 
DSLALQJWRPWPMF-UHFFFAOYSA-N

>  <smiles>  (1513) 
O=C1NCC(Cn2nc(C(=O)NCc3coc(C(F)F)n3)c3ccccc32)O1

>  <ref_pdb>  (1513) 
A0514a

>  <alias>  (1513) 
DSLALQJWRPWPMF-UHFFFAOYSA-N-P126-P126-P177-601502

>  <HIPPO Pose ID>  (1513) 
503260

>  <name>  (1513) 
DSLALQJWRPWPMF-UHFFFAOYSA-N-P126-P126-P177-601502

>  <HIPPO Compound ID>  (1513) 
299448

>  <ref_mols>  (1513) 
A3403a,A2290a

>  <distance_score>  (1513) 
1.712023

>  <inspiration_score>  (1513) 
None

$$$$
SCZSYHOBNQSALP-UHFFFAOYSA-N-P177-P126-P177-601502
     RDKit          3D

 28 31  0  0  0  0  0  0  0  0999 V2000
    8.1149   18.6815   19.7712 C   0  0  0  0  0  0  0  0  0  0  0  0
    8.7617   17.9930   20.9487 C   0  0  0  0  0  0  0  0  0  0  0  0
    9.4882   16.7274   20.7081 C   0  0  0  0  0  0  0  0  0  0  0  0
    9.9461   15.9365   21.6537 N   0  0  0  0  0  0  0  0  0  0  0  0
   10.7968   15.0841   21.0118 C   0  0  0  0  0  0  0  0  0  0  0  0
   11.6413   14.1552   21.7914 C   0  0  0  0  0  0  0  0  0  0  0  0
   10.7848   13.3991   22.6492 N   0  0  0  0  0  0  0  0  0  0  0  0
   10.3131   13.6757   24.0830 C   0  0  0  0  0  0  0  0  0  0  0  0
   10.6074   14.5255   24.8252 O   0  0  0  0  0  0  0  0  0  0  0  0
    9.3382   12.6296   24.4513 C   0  0  0  0  0  0  0  0  0  0  0  0
    9.2425   11.4948   23.7357 N   0  0  0  0  0  0  0  0  0  0  0  0
    8.3514   10.7476   24.4065 N   0  0  0  0  0  0  0  0  0  0  0  0
    7.9350    9.4684   23.9011 C   0  0  0  0  0  0  0  0  0  0  0  0
    8.9675    8.3908   23.6750 C   0  0  2  0  0  0  0  0  0  0  0  0
   10.3289    8.8461   23.4038 C   0  0  0  0  0  0  0  0  0  0  0  0
   10.1370    9.2680   22.0647 N   0  0  0  0  0  0  0  0  0  0  0  0
    9.3190    8.3806   21.4632 C   0  0  0  0  0  0  0  0  0  0  0  0
    9.2880    8.1236   20.2660 O   0  0  0  0  0  0  0  0  0  0  0  0
    8.6505    7.7223   22.4316 O   0  0  0  0  0  0  0  0  0  0  0  0
    7.7718   11.3898   25.4618 C   0  0  0  0  0  0  0  0  0  0  0  0
    6.7444   11.0105   26.3335 C   0  0  0  0  0  0  0  0  0  0  0  0
    6.3497   11.9374   27.2923 C   0  0  0  0  0  0  0  0  0  0  0  0
    6.9574   13.1878   27.3692 C   0  0  0  0  0  0  0  0  0  0  0  0
    7.9816   13.5508   26.4877 C   0  0  0  0  0  0  0  0  0  0  0  0
    8.3953   12.6315   25.5124 C   0  0  0  0  0  0  0  0  0  0  0  0
   10.7315   15.3235   19.6597 C   0  0  0  0  0  0  0  0  0  0  0  0
   11.4304   14.7707   18.5004 C   0  0  0  0  0  0  0  0  0  0  0  0
    9.8761   16.3738   19.4466 O   0  0  0  0  0  0  0  0  0  0  0  0
  1  2  1  0
  2  3  1  0
  3  4  2  0
  4  5  1  0
  5  6  1  0
  6  7  1  0
  7  8  1  0
  8  9  2  0
  8 10  1  0
 10 11  2  0
 11 12  1  0
 12 13  1  0
 14 13  1  6
 14 15  1  0
 15 16  1  0
 16 17  1  0
 17 18  2  0
 17 19  1  0
 12 20  1  0
 20 21  2  0
 21 22  1  0
 22 23  2  0
 23 24  1  0
 24 25  2  0
  5 26  2  0
 26 27  1  0
 26 28  1  0
 28  3  1  0
 25 10  1  0
 19 14  1  0
 25 20  1  0
M  END
>  <energy_score>  (1514) 
-34.687127

>  <inchikey>  (1514) 
SCZSYHOBNQSALP-UHFFFAOYSA-N

>  <smiles>  (1514) 
CCc1nc(CNC(=O)c2nn(CC3CNC(=O)O3)c3ccccc23)c(C)o1

>  <ref_pdb>  (1514) 
A0514a

>  <alias>  (1514) 
SCZSYHOBNQSALP-UHFFFAOYSA-N-P177-P126-P177-601502

>  <HIPPO Pose ID>  (1514) 
503265

>  <name>  (1514) 
SCZSYHOBNQSALP-UHFFFAOYSA-N-P177-P126-P177-601502

>  <HIPPO Compound ID>  (1514) 
299450

>  <ref_mols>  (1514) 
A3403a,A2290a

>  <distance_score>  (1514) 
1.327134

>  <inspiration_score>  (1514) 
None

$$$$
DEJYBBWTCGYWIZ-UHFFFAOYSA-N-P126-P126-P177-601502
     RDKit          3D

 28 31  0  0  0  0  0  0  0  0999 V2000
    8.5984   17.4453   20.6422 C   0  0  0  0  0  0  0  0  0  0  0  0
    9.4295   16.2354   20.6098 C   0  0  0  0  0  0  0  0  0  0  0  0
    9.7135   15.4160   21.5995 N   0  0  0  0  0  0  0  0  0  0  0  0
   10.6856   14.5997   21.0905 C   0  0  0  0  0  0  0  0  0  0  0  0
   11.5025   13.7259   21.9778 C   0  0  1  0  0  0  0  0  0  0  0  0
   12.6089   14.5239   22.6079 C   0  0  0  0  0  0  0  0  0  0  0  0
   10.6658   13.0617   22.9512 N   0  0  0  0  0  0  0  0  0  0  0  0
   10.2818   13.4712   24.3916 C   0  0  0  0  0  0  0  0  0  0  0  0
   10.6423   14.3693   25.0447 O   0  0  0  0  0  0  0  0  0  0  0  0
    9.3279   12.4821   24.8985 C   0  0  0  0  0  0  0  0  0  0  0  0
    9.5131   11.2143   24.5391 N   0  0  0  0  0  0  0  0  0  0  0  0
    8.4999   10.5335   25.0791 N   0  0  0  0  0  0  0  0  0  0  0  0
    8.2760    9.1676   24.6488 C   0  0  0  0  0  0  0  0  0  0  0  0
    8.9730    8.9978   23.3595 C   0  0  1  0  0  0  0  0  0  0  0  0
   10.4517    8.8339   23.3815 C   0  0  0  0  0  0  0  0  0  0  0  0
   10.5783    8.7906   21.9895 N   0  0  0  0  0  0  0  0  0  0  0  0
    9.4872    8.1253   21.5102 C   0  0  0  0  0  0  0  0  0  0  0  0
    9.3456    7.7853   20.3428 O   0  0  0  0  0  0  0  0  0  0  0  0
    8.5973    7.9357   22.5311 O   0  0  0  0  0  0  0  0  0  0  0  0
    7.6845   11.2927   25.8495 C   0  0  0  0  0  0  0  0  0  0  0  0
    6.5512   10.9589   26.5898 C   0  0  0  0  0  0  0  0  0  0  0  0
    5.9120   12.0055   27.2446 C   0  0  0  0  0  0  0  0  0  0  0  0
    6.3880   13.3145   27.1501 C   0  0  0  0  0  0  0  0  0  0  0  0
    7.5281   13.6271   26.4009 C   0  0  0  0  0  0  0  0  0  0  0  0
    8.1948   12.5897   25.7403 C   0  0  0  0  0  0  0  0  0  0  0  0
   10.8360   14.8809   19.7515 C   0  0  0  0  0  0  0  0  0  0  0  0
   11.7270   14.4166   18.6938 C   0  0  0  0  0  0  0  0  0  0  0  0
    9.9995   15.9054   19.4249 O   0  0  0  0  0  0  0  0  0  0  0  0
  1  2  1  0
  2  3  2  0
  3  4  1  0
  4  5  1  0
  5  6  1  1
  5  7  1  0
  7  8  1  0
  8  9  2  0
  8 10  1  0
 10 11  2  0
 11 12  1  0
 12 13  1  0
 14 13  1  1
 14 15  1  0
 15 16  1  0
 16 17  1  0
 17 18  2  0
 17 19  1  0
 12 20  1  0
 20 21  2  0
 21 22  1  0
 22 23  2  0
 23 24  1  0
 24 25  2  0
  4 26  2  0
 26 27  1  0
 26 28  1  0
 28  2  1  0
 25 10  1  0
 19 14  1  0
 25 20  1  0
M  END
>  <energy_score>  (1515) 
-20.235047

>  <inchikey>  (1515) 
DEJYBBWTCGYWIZ-UHFFFAOYSA-N

>  <smiles>  (1515) 
Cc1nc(C(C)NC(=O)c2nn(CC3CNC(=O)O3)c3ccccc23)c(C)o1

>  <ref_pdb>  (1515) 
A0514a

>  <alias>  (1515) 
DEJYBBWTCGYWIZ-UHFFFAOYSA-N-P126-P126-P177-601502

>  <HIPPO Pose ID>  (1515) 
503268

>  <name>  (1515) 
DEJYBBWTCGYWIZ-UHFFFAOYSA-N-P126-P126-P177-601502

>  <HIPPO Compound ID>  (1515) 
299452

>  <ref_mols>  (1515) 
A3403a,A2290a

>  <distance_score>  (1515) 
1.499871

>  <inspiration_score>  (1515) 
None

$$$$
GTZMJGKWCXPEMU-UHFFFAOYSA-N-P126-P126-P177-601502
     RDKit          3D

 28 31  0  0  0  0  0  0  0  0999 V2000
   10.1140   16.3110   18.7296 C   0  0  0  0  0  0  0  0  0  0  0  0
   10.8505   15.1933   19.4862 C   0  0  0  0  0  0  0  0  0  0  0  0
   11.6288   14.2632   18.6153 C   0  0  0  0  0  0  0  0  0  0  0  0
    9.9847   14.6911   20.5414 C   0  0  0  0  0  0  0  0  0  0  0  0
    8.6507   14.8060   20.3441 O   0  0  0  0  0  0  0  0  0  0  0  0
    8.1119   14.7635   21.5750 C   0  0  0  0  0  0  0  0  0  0  0  0
    8.9670   14.4926   22.5166 N   0  0  0  0  0  0  0  0  0  0  0  0
   10.1978   14.4111   21.8610 C   0  0  0  0  0  0  0  0  0  0  0  0
   11.4200   14.0262   22.6348 C   0  0  0  0  0  0  0  0  0  0  0  0
   10.7514   13.1713   23.5454 N   0  0  0  0  0  0  0  0  0  0  0  0
   10.2448   13.4314   24.9615 C   0  0  0  0  0  0  0  0  0  0  0  0
   10.3606   14.3660   25.6454 O   0  0  0  0  0  0  0  0  0  0  0  0
    9.4528   12.2527   25.2864 C   0  0  0  0  0  0  0  0  0  0  0  0
    9.6824   11.1147   24.6202 N   0  0  0  0  0  0  0  0  0  0  0  0
    8.6666   10.3237   24.9479 N   0  0  0  0  0  0  0  0  0  0  0  0
    8.3480    9.2583   24.0545 C   0  0  0  0  0  0  0  0  0  0  0  0
    9.3692    8.2316   23.7040 C   0  0  2  0  0  0  0  0  0  0  0  0
   10.7221    8.7109   23.3753 C   0  0  0  0  0  0  0  0  0  0  0  0
   10.4790    9.2190   22.0885 N   0  0  0  0  0  0  0  0  0  0  0  0
    9.6317    8.3305   21.5124 C   0  0  0  0  0  0  0  0  0  0  0  0
    9.5670    8.1059   20.3152 O   0  0  0  0  0  0  0  0  0  0  0  0
    8.9850    7.6267   22.4721 O   0  0  0  0  0  0  0  0  0  0  0  0
    7.7966   10.8732   25.8453 C   0  0  0  0  0  0  0  0  0  0  0  0
    6.6195   10.3911   26.4230 C   0  0  0  0  0  0  0  0  0  0  0  0
    5.8930   11.2827   27.2090 C   0  0  0  0  0  0  0  0  0  0  0  0
    6.3167   12.5983   27.3896 C   0  0  0  0  0  0  0  0  0  0  0  0
    7.4965   13.0628   26.8047 C   0  0  0  0  0  0  0  0  0  0  0  0
    8.2572   12.1721   26.0359 C   0  0  0  0  0  0  0  0  0  0  0  0
  1  2  1  0
  2  3  1  0
  2  4  1  0
  4  5  1  0
  5  6  1  0
  6  7  2  0
  7  8  1  0
  8  9  1  0
  9 10  1  0
 10 11  1  0
 11 12  2  0
 11 13  1  0
 13 14  2  0
 14 15  1  0
 15 16  1  0
 17 16  1  6
 17 18  1  0
 18 19  1  0
 19 20  1  0
 20 21  2  0
 20 22  1  0
 15 23  1  0
 23 24  2  0
 24 25  1  0
 25 26  2  0
 26 27  1  0
 27 28  2  0
  8  4  2  0
 28 13  1  0
 22 17  1  0
 28 23  1  0
M  END
>  <energy_score>  (1516) 
-18.490653

>  <inchikey>  (1516) 
GTZMJGKWCXPEMU-UHFFFAOYSA-N

>  <smiles>  (1516) 
CC(C)c1ocnc1CNC(=O)c1nn(CC2CNC(=O)O2)c2ccccc12

>  <ref_pdb>  (1516) 
A0514a

>  <alias>  (1516) 
GTZMJGKWCXPEMU-UHFFFAOYSA-N-P126-P126-P177-601502

>  <HIPPO Pose ID>  (1516) 
503270

>  <name>  (1516) 
GTZMJGKWCXPEMU-UHFFFAOYSA-N-P126-P126-P177-601502

>  <HIPPO Compound ID>  (1516) 
299453

>  <ref_mols>  (1516) 
A3403a,A2290a

>  <distance_score>  (1516) 
1.843973

>  <inspiration_score>  (1516) 
None

$$$$
ZHTXELKXJNSPDV-UHFFFAOYSA-N-P177-P126-P177-601502
     RDKit          3D

 29 32  0  0  0  0  0  0  0  0999 V2000
    4.3047   13.5656   29.0397 C   0  0  0  0  0  0  0  0  0  0  0  0
    4.9850   12.7683   28.0689 O   0  0  0  0  0  0  0  0  0  0  0  0
    6.2228   13.2274   27.7555 C   0  0  0  0  0  0  0  0  0  0  0  0
    6.7775   14.1964   28.2484 O   0  0  0  0  0  0  0  0  0  0  0  0
    6.8434   12.3756   26.7095 C   0  0  0  0  0  0  0  0  0  0  0  0
    6.4112   11.0670   26.4722 C   0  0  0  0  0  0  0  0  0  0  0  0
    7.0289   10.2659   25.5076 C   0  0  0  0  0  0  0  0  0  0  0  0
    8.0945   10.8075   24.7907 C   0  0  0  0  0  0  0  0  0  0  0  0
    8.5474   12.1089   25.0094 C   0  0  0  0  0  0  0  0  0  0  0  0
    7.9174   12.9076   25.9801 C   0  0  0  0  0  0  0  0  0  0  0  0
    9.6140   12.2771   24.0985 C   0  0  0  0  0  0  0  0  0  0  0  0
   10.4861   13.4355   23.8616 C   0  0  0  0  0  0  0  0  0  0  0  0
   10.5994   14.3294   24.5982 O   0  0  0  0  0  0  0  0  0  0  0  0
   11.1632   13.1654   22.5208 N   0  0  0  0  0  0  0  0  0  0  0  0
   12.0425   13.9659   21.7576 C   0  0  0  0  0  0  0  0  0  0  0  0
   11.2775   14.5999   20.6898 C   0  0  0  0  0  0  0  0  0  0  0  0
   11.5060   14.7003   19.3372 C   0  0  0  0  0  0  0  0  0  0  0  0
   10.5432   15.5031   18.8092 O   0  0  0  0  0  0  0  0  0  0  0  0
    9.8120   15.8365   19.9007 C   0  0  0  0  0  0  0  0  0  0  0  0
    9.0691   17.0399   19.8568 C   0  0  0  0  0  0  0  0  0  0  0  0
    8.9749   17.7207   21.0073 C   0  0  0  0  0  0  0  0  0  0  0  0
    8.4528   18.9686   20.9472 C   0  0  0  0  0  0  0  0  0  0  0  0
    7.8452   19.5281   19.8601 C   0  0  0  0  0  0  0  0  0  0  0  0
    7.7324   18.7715   18.7683 C   0  0  0  0  0  0  0  0  0  0  0  0
    8.3989   17.5571   18.7811 C   0  0  0  0  0  0  0  0  0  0  0  0
   10.1204   15.2175   21.0093 N   0  0  0  0  0  0  0  0  0  0  0  0
    9.8041   11.1651   23.3644 N   0  0  0  0  0  0  0  0  0  0  0  0
    8.9012   10.2965   23.8076 N   0  0  0  0  0  0  0  0  0  0  0  0
    8.8914    8.9778   23.2253 C   0  0  0  0  0  0  0  0  0  0  0  0
  1  2  1  0
  2  3  1  0
  3  4  2  0
  3  5  1  0
  5  6  2  0
  6  7  1  0
  7  8  2  0
  8  9  1  0
  9 10  2  0
  9 11  1  0
 11 12  1  0
 12 13  2  0
 12 14  1  0
 14 15  1  0
 15 16  1  0
 16 17  2  0
 17 18  1  0
 18 19  1  0
 19 20  1  0
 20 21  2  0
 21 22  1  0
 22 23  2  0
 23 24  1  0
 24 25  2  0
 19 26  2  0
 11 27  2  0
 27 28  1  0
 28 29  1  0
 10  5  1  0
 26 16  1  0
 28  8  1  0
 25 20  1  0
M  END
>  <energy_score>  (1517) 
-23.203727

>  <inchikey>  (1517) 
ZHTXELKXJNSPDV-UHFFFAOYSA-N

>  <smiles>  (1517) 
COC(=O)c1ccc2c(c1)c(C(=O)NCc1coc(-c3ccccc3)n1)nn2C

>  <ref_pdb>  (1517) 
A0514a

>  <alias>  (1517) 
ZHTXELKXJNSPDV-UHFFFAOYSA-N-P177-P126-P177-601502

>  <HIPPO Pose ID>  (1517) 
503315

>  <name>  (1517) 
ZHTXELKXJNSPDV-UHFFFAOYSA-N-P177-P126-P177-601502

>  <HIPPO Compound ID>  (1517) 
299475

>  <ref_mols>  (1517) 
A3403a,A2290a

>  <distance_score>  (1517) 
0.891713

>  <inspiration_score>  (1517) 
None

$$$$
YPGGOXGVGFFOQH-UHFFFAOYSA-N-P126-P126-P177-601502
     RDKit          3D

 29 32  0  0  0  0  0  0  0  0999 V2000
    8.6737   17.7288   20.9488 C   0  0  0  0  0  0  0  0  0  0  0  0
    8.4926   17.5372   19.5383 N   0  0  0  0  0  0  0  0  0  0  0  0
    8.1417   18.7401   18.8526 C   0  0  0  0  0  0  0  0  0  0  0  0
    9.4824   16.7472   18.8088 C   0  0  0  0  0  0  0  0  0  0  0  0
   10.1920   15.6565   19.5497 C   0  0  0  0  0  0  0  0  0  0  0  0
   10.3406   15.4085   20.8458 N   0  0  0  0  0  0  0  0  0  0  0  0
   11.4745   14.6247   20.8970 C   0  0  0  0  0  0  0  0  0  0  0  0
   12.1569   14.2393   22.1405 C   0  0  0  0  0  0  0  0  0  0  0  0
   11.2544   13.5238   22.9691 N   0  0  0  0  0  0  0  0  0  0  0  0
   10.9818   13.6343   24.4628 C   0  0  0  0  0  0  0  0  0  0  0  0
   11.5045   14.2761   25.2800 O   0  0  0  0  0  0  0  0  0  0  0  0
    9.8017   12.8262   24.7550 C   0  0  0  0  0  0  0  0  0  0  0  0
    9.5868   11.6180   24.2047 N   0  0  0  0  0  0  0  0  0  0  0  0
    8.3756   11.2647   24.6941 N   0  0  0  0  0  0  0  0  0  0  0  0
    8.0832    9.8600   24.7749 C   0  0  0  0  0  0  0  0  0  0  0  0
    7.0276    9.3418   25.7779 C   0  0  1  0  0  0  0  0  0  0  0  0
    6.6390    9.9073   27.1437 C   0  0  0  0  0  0  0  0  0  0  0  0
    5.2186    9.8354   27.1577 N   0  0  0  0  0  0  0  0  0  0  0  0
    4.8085    9.0053   26.1559 C   0  0  0  0  0  0  0  0  0  0  0  0
    3.7259    8.4497   26.1028 O   0  0  0  0  0  0  0  0  0  0  0  0
    5.7865    8.9033   25.2080 O   0  0  0  0  0  0  0  0  0  0  0  0
    7.7287   12.2888   25.3203 C   0  0  0  0  0  0  0  0  0  0  0  0
    6.4253   12.4698   25.7836 C   0  0  0  0  0  0  0  0  0  0  0  0
    6.1385   13.5777   26.5681 C   0  0  0  0  0  0  0  0  0  0  0  0
    7.1205   14.5136   26.8432 C   0  0  0  0  0  0  0  0  0  0  0  0
    8.4011   14.3775   26.3075 C   0  0  0  0  0  0  0  0  0  0  0  0
    8.7014   13.2518   25.5267 C   0  0  0  0  0  0  0  0  0  0  0  0
   11.8924   14.3522   19.6253 C   0  0  0  0  0  0  0  0  0  0  0  0
   11.0730   14.9720   18.7642 O   0  0  0  0  0  0  0  0  0  0  0  0
  1  2  1  0
  2  3  1  0
  2  4  1  0
  4  5  1  0
  5  6  2  0
  6  7  1  0
  7  8  1  0
  8  9  1  0
  9 10  1  0
 10 11  2  0
 10 12  1  0
 12 13  2  0
 13 14  1  0
 14 15  1  0
 16 15  1  6
 16 17  1  0
 17 18  1  0
 18 19  1  0
 19 20  2  0
 19 21  1  0
 14 22  1  0
 22 23  2  0
 23 24  1  0
 24 25  2  0
 25 26  1  0
 26 27  2  0
  7 28  2  0
 28 29  1  0
 29  5  1  0
 27 12  1  0
 21 16  1  0
 27 22  1  0
M  END
>  <energy_score>  (1518) 
-5.375987

>  <inchikey>  (1518) 
YPGGOXGVGFFOQH-UHFFFAOYSA-N

>  <smiles>  (1518) 
CN(C)Cc1nc(CNC(=O)c2nn(CC3CNC(=O)O3)c3ccccc23)co1

>  <ref_pdb>  (1518) 
A0514a

>  <alias>  (1518) 
YPGGOXGVGFFOQH-UHFFFAOYSA-N-P126-P126-P177-601502

>  <HIPPO Pose ID>  (1518) 
503344

>  <name>  (1518) 
YPGGOXGVGFFOQH-UHFFFAOYSA-N-P126-P126-P177-601502

>  <HIPPO Compound ID>  (1518) 
299490

>  <ref_mols>  (1518) 
A3403a,A2290a

>  <distance_score>  (1518) 
1.803362

>  <inspiration_score>  (1518) 
None

$$$$
XNGYCQJOJYRDSR-UHFFFAOYSA-N-P177-P126-P177-601502
     RDKit          3D

 29 32  0  0  0  0  0  0  0  0999 V2000
    9.2048    5.6496   22.9724 O   0  0  0  0  0  0  0  0  0  0  0  0
    9.3404    6.8617   22.9204 C   0  0  0  0  0  0  0  0  0  0  0  0
    8.8414    7.7472   22.0002 N   0  0  0  0  0  0  0  0  0  0  0  0
    9.5343    8.9729   22.1413 C   0  0  0  0  0  0  0  0  0  0  0  0
    9.7648    8.9380   23.6019 C   0  0  1  0  0  0  0  0  0  0  0  0
    8.4824    9.4545   24.2115 C   0  0  0  0  0  0  0  0  0  0  0  0
    8.5604   10.8849   24.3866 N   0  0  0  0  0  0  0  0  0  0  0  0
    9.4524   11.6096   23.6925 N   0  0  0  0  0  0  0  0  0  0  0  0
    9.4657   12.8006   24.3199 C   0  0  0  0  0  0  0  0  0  0  0  0
   10.4455   13.8370   23.9236 C   0  0  0  0  0  0  0  0  0  0  0  0
   10.6602   14.7635   24.5994 O   0  0  0  0  0  0  0  0  0  0  0  0
   11.0252   13.4463   22.5516 N   0  0  0  0  0  0  0  0  0  0  0  0
   11.9170   14.1563   21.6797 C   0  0  0  0  0  0  0  0  0  0  0  0
   11.1109   15.0601   20.8428 C   0  0  0  0  0  0  0  0  0  0  0  0
   10.8826   15.0869   19.4876 C   0  0  0  0  0  0  0  0  0  0  0  0
    9.9620   16.0609   19.2331 O   0  0  0  0  0  0  0  0  0  0  0  0
    9.7014   16.6065   20.4688 C   0  0  0  0  0  0  0  0  0  0  0  0
    8.5735   17.5638   20.5937 C   0  0  0  0  0  0  0  0  0  0  0  0
    8.8642   18.6497   21.3466 F   0  0  0  0  0  0  0  0  0  0  0  0
    7.5554   16.8854   21.1814 F   0  0  0  0  0  0  0  0  0  0  0  0
    8.1381   18.0290   19.3916 F   0  0  0  0  0  0  0  0  0  0  0  0
   10.3930   16.0508   21.4445 N   0  0  0  0  0  0  0  0  0  0  0  0
    8.4652   12.8373   25.3359 C   0  0  0  0  0  0  0  0  0  0  0  0
    7.9855   13.7829   26.2529 C   0  0  0  0  0  0  0  0  0  0  0  0
    6.9380   13.4209   27.1120 C   0  0  0  0  0  0  0  0  0  0  0  0
    6.3702   12.1478   27.0719 C   0  0  0  0  0  0  0  0  0  0  0  0
    6.8316   11.1920   26.1754 C   0  0  0  0  0  0  0  0  0  0  0  0
    7.8770   11.5774   25.3312 C   0  0  0  0  0  0  0  0  0  0  0  0
    9.9838    7.5670   23.8694 O   0  0  0  0  0  0  0  0  0  0  0  0
  1  2  2  0
  2  3  1  0
  3  4  1  0
  4  5  1  0
  5  6  1  1
  6  7  1  0
  7  8  1  0
  8  9  2  0
  9 10  1  0
 10 11  2  0
 10 12  1  0
 12 13  1  0
 13 14  1  0
 14 15  2  0
 15 16  1  0
 16 17  1  0
 17 18  1  0
 18 19  1  0
 18 20  1  0
 18 21  1  0
 17 22  2  0
  9 23  1  0
 23 24  2  0
 24 25  1  0
 25 26  2  0
 26 27  1  0
 27 28  2  0
  5 29  1  0
 29  2  1  0
 28  7  1  0
 22 14  1  0
 28 23  1  0
M  END
>  <energy_score>  (1519) 
-26.367148

>  <inchikey>  (1519) 
XNGYCQJOJYRDSR-UHFFFAOYSA-N

>  <smiles>  (1519) 
O=C1NCC(Cn2nc(C(=O)NCc3coc(C(F)(F)F)n3)c3ccccc32)O1

>  <ref_pdb>  (1519) 
A0514a

>  <alias>  (1519) 
XNGYCQJOJYRDSR-UHFFFAOYSA-N-P177-P126-P177-601502

>  <HIPPO Pose ID>  (1519) 
503351

>  <name>  (1519) 
XNGYCQJOJYRDSR-UHFFFAOYSA-N-P177-P126-P177-601502

>  <HIPPO Compound ID>  (1519) 
299493

>  <ref_mols>  (1519) 
A3403a,A2290a

>  <distance_score>  (1519) 
1.212304

>  <inspiration_score>  (1519) 
None

$$$$
CDPHROKGUQVNNX-UHFFFAOYSA-N-P177-P126-P177-601502
     RDKit          3D

 29 32  0  0  0  0  0  0  0  0999 V2000
   11.7032   14.5063   18.4893 C   0  0  0  0  0  0  0  0  0  0  0  0
   11.1106   15.1615   19.6327 C   0  0  0  0  0  0  0  0  0  0  0  0
   10.0762   15.9937   19.3467 O   0  0  0  0  0  0  0  0  0  0  0  0
    9.7419   16.4646   20.5670 C   0  0  0  0  0  0  0  0  0  0  0  0
    8.4614   17.1411   20.7026 C   0  0  0  0  0  0  0  0  0  0  0  0
    8.6678   18.5054   21.2725 C   0  0  0  0  0  0  0  0  0  0  0  0
    7.6106   16.1786   21.5705 C   0  0  0  0  0  0  0  0  0  0  0  0
   10.4900   16.0627   21.5591 N   0  0  0  0  0  0  0  0  0  0  0  0
   11.3041   15.1433   20.9934 C   0  0  0  0  0  0  0  0  0  0  0  0
   12.0998   14.2892   21.8861 C   0  0  0  0  0  0  0  0  0  0  0  0
   11.1706   13.7562   22.8396 N   0  0  0  0  0  0  0  0  0  0  0  0
   10.7395   14.2863   24.2268 C   0  0  0  0  0  0  0  0  0  0  0  0
   11.1299   15.1976   24.8437 O   0  0  0  0  0  0  0  0  0  0  0  0
    9.6096   13.4570   24.6519 C   0  0  0  0  0  0  0  0  0  0  0  0
    9.2570   12.4726   23.8192 N   0  0  0  0  0  0  0  0  0  0  0  0
    8.3152   11.8139   24.4751 N   0  0  0  0  0  0  0  0  0  0  0  0
    7.6884   10.7314   23.7977 C   0  0  0  0  0  0  0  0  0  0  0  0
    8.6524    9.6941   23.4354 C   0  0  0  0  0  0  0  0  0  0  0  0
    9.9646    9.6118   23.7660 C   0  0  0  0  0  0  0  0  0  0  0  0
   10.5631    8.3785   23.7496 C   0  0  0  0  0  0  0  0  0  0  0  0
    9.8834    7.3122   23.2485 C   0  0  0  0  0  0  0  0  0  0  0  0
    8.8515    7.5483   22.4168 C   0  0  0  0  0  0  0  0  0  0  0  0
    8.1647    8.6626   22.7180 C   0  0  0  0  0  0  0  0  0  0  0  0
    7.9595   12.3269   25.6686 C   0  0  0  0  0  0  0  0  0  0  0  0
    6.9997   11.9130   26.5965 C   0  0  0  0  0  0  0  0  0  0  0  0
    6.7986   12.7474   27.6848 C   0  0  0  0  0  0  0  0  0  0  0  0
    7.5353   13.9244   27.8218 C   0  0  0  0  0  0  0  0  0  0  0  0
    8.5173   14.2994   26.8885 C   0  0  0  0  0  0  0  0  0  0  0  0
    8.7431   13.4731   25.7820 C   0  0  0  0  0  0  0  0  0  0  0  0
  1  2  1  0
  2  3  1  0
  3  4  1  0
  4  5  1  0
  5  6  1  0
  5  7  1  0
  4  8  2  0
  8  9  1  0
  9 10  1  0
 10 11  1  0
 11 12  1  0
 12 13  2  0
 12 14  1  0
 14 15  2  0
 15 16  1  0
 16 17  1  0
 17 18  1  0
 18 19  2  0
 19 20  1  0
 20 21  2  0
 21 22  1  0
 22 23  2  0
 16 24  1  0
 24 25  2  0
 25 26  1  0
 26 27  2  0
 27 28  1  0
 28 29  2  0
  9  2  2  0
 29 14  1  0
 23 18  1  0
 29 24  1  0
M  END
>  <energy_score>  (1520) 
-4.149787

>  <inchikey>  (1520) 
CDPHROKGUQVNNX-UHFFFAOYSA-N

>  <smiles>  (1520) 
Cc1oc(C(C)C)nc1CNC(=O)c1nn(Cc2ccccc2)c2ccccc12

>  <ref_pdb>  (1520) 
A0514a

>  <alias>  (1520) 
CDPHROKGUQVNNX-UHFFFAOYSA-N-P177-P126-P177-601502

>  <HIPPO Pose ID>  (1520) 
503371

>  <name>  (1520) 
CDPHROKGUQVNNX-UHFFFAOYSA-N-P177-P126-P177-601502

>  <HIPPO Compound ID>  (1520) 
299503

>  <ref_mols>  (1520) 
A3403a,A2290a

>  <distance_score>  (1520) 
1.866954

>  <inspiration_score>  (1520) 
None

$$$$
LLDZPHCJSJZSFN-UHFFFAOYSA-N-P183-P126-P183-601502
     RDKit          3D

 22 24  0  0  0  0  0  0  0  0999 V2000
   12.4488   14.8277   23.0281 C   0  0  0  0  0  0  0  0  0  0  0  0
   11.9351   13.8642   22.0048 C   0  0  2  0  0  0  0  0  0  0  0  0
   11.8242   14.5003   20.6401 C   0  0  0  0  0  0  0  0  0  0  0  0
   10.6361   15.3169   20.3729 C   0  0  0  0  0  0  0  0  0  0  0  0
   10.2019   15.6974   19.1334 C   0  0  0  0  0  0  0  0  0  0  0  0
    9.2428   16.6382   19.2876 O   0  0  0  0  0  0  0  0  0  0  0  0
    9.1019   16.7379   20.6364 C   0  0  0  0  0  0  0  0  0  0  0  0
    9.8929   15.9491   21.3296 N   0  0  0  0  0  0  0  0  0  0  0  0
   10.8573   13.1007   22.5237 N   0  0  0  0  0  0  0  0  0  0  0  0
    9.8842   13.4014   23.6673 C   0  0  0  0  0  0  0  0  0  0  0  0
    9.7584   14.3571   24.3201 O   0  0  0  0  0  0  0  0  0  0  0  0
    9.1275   12.1818   23.9197 C   0  0  0  0  0  0  0  0  0  0  0  0
    9.4810   11.0356   23.3112 N   0  0  0  0  0  0  0  0  0  0  0  0
    8.8136   10.0930   23.9788 N   0  0  0  0  0  0  0  0  0  0  0  0
    9.1095    8.7199   23.6569 C   0  0  0  0  0  0  0  0  0  0  0  0
    7.9251   10.5991   24.9000 C   0  0  0  0  0  0  0  0  0  0  0  0
    6.9750   10.0083   25.7398 C   0  0  0  0  0  0  0  0  0  0  0  0
    6.2296   10.8383   26.5799 C   0  0  0  0  0  0  0  0  0  0  0  0
    6.4278   12.2110   26.5716 C   0  0  0  0  0  0  0  0  0  0  0  0
    5.7140   12.9763   27.4077 F   0  0  0  0  0  0  0  0  0  0  0  0
    7.3566   12.8060   25.7254 C   0  0  0  0  0  0  0  0  0  0  0  0
    8.1046   11.9797   24.8688 C   0  0  0  0  0  0  0  0  0  0  0  0
  2  1  1  1
  2  3  1  0
  3  4  1  0
  4  5  2  0
  5  6  1  0
  6  7  1  0
  7  8  2  0
  2  9  1  0
  9 10  1  0
 10 11  2  0
 10 12  1  0
 12 13  2  0
 13 14  1  0
 14 15  1  0
 14 16  1  0
 16 17  2  0
 17 18  1  0
 18 19  2  0
 19 20  1  0
 19 21  1  0
 21 22  2  0
  8  4  1  0
 22 12  1  0
 22 16  1  0
M  END
>  <energy_score>  (1521) 
-7.378615

>  <inchikey>  (1521) 
LLDZPHCJSJZSFN-UHFFFAOYSA-N

>  <smiles>  (1521) 
CC(Cc1cocn1)NC(=O)c1nn(C)c2ccc(F)cc12

>  <ref_pdb>  (1521) 
A0514a

>  <alias>  (1521) 
LLDZPHCJSJZSFN-UHFFFAOYSA-N-P183-P126-P183-601502

>  <HIPPO Pose ID>  (1521) 
503377

>  <name>  (1521) 
LLDZPHCJSJZSFN-UHFFFAOYSA-N-P183-P126-P183-601502

>  <HIPPO Compound ID>  (1521) 
191887

>  <ref_mols>  (1521) 
A2290a,A3436a

>  <distance_score>  (1521) 
0.600622

>  <inspiration_score>  (1521) 
None

$$$$
SKWLCASPHPGKCF-UHFFFAOYSA-N-P183-P126-P183-601502
     RDKit          3D

 22 24  0  0  0  0  0  0  0  0999 V2000
   11.3920   14.8293   18.3288 C   0  0  0  0  0  0  0  0  0  0  0  0
   10.6544   15.3361   19.4768 C   0  0  0  0  0  0  0  0  0  0  0  0
    9.5478   16.1009   19.2720 O   0  0  0  0  0  0  0  0  0  0  0  0
    9.1794   16.4608   20.5334 C   0  0  0  0  0  0  0  0  0  0  0  0
    9.9261   15.9554   21.4878 N   0  0  0  0  0  0  0  0  0  0  0  0
   10.9121   15.2873   20.8199 C   0  0  0  0  0  0  0  0  0  0  0  0
   12.1185   14.7200   21.4623 C   0  0  0  0  0  0  0  0  0  0  0  0
   11.9948   14.5389   22.9540 C   0  0  0  0  0  0  0  0  0  0  0  0
   10.9886   13.5882   23.2850 N   0  0  0  0  0  0  0  0  0  0  0  0
    9.9442   13.5973   24.3923 C   0  0  0  0  0  0  0  0  0  0  0  0
    9.6799   14.4167   25.1726 O   0  0  0  0  0  0  0  0  0  0  0  0
    9.2347   12.3200   24.3396 C   0  0  0  0  0  0  0  0  0  0  0  0
    9.6878   11.2977   23.5903 N   0  0  0  0  0  0  0  0  0  0  0  0
    8.9547   10.2480   23.9915 N   0  0  0  0  0  0  0  0  0  0  0  0
    9.2994    8.9472   23.4645 C   0  0  0  0  0  0  0  0  0  0  0  0
    7.9917   10.5829   24.9179 C   0  0  0  0  0  0  0  0  0  0  0  0
    7.0366    9.8442   25.6210 C   0  0  0  0  0  0  0  0  0  0  0  0
    6.1834   10.5185   26.4980 C   0  0  0  0  0  0  0  0  0  0  0  0
    6.2770   11.8920   26.6542 C   0  0  0  0  0  0  0  0  0  0  0  0
    5.4530   12.5079   27.5121 F   0  0  0  0  0  0  0  0  0  0  0  0
    7.2257   12.6334   25.9634 C   0  0  0  0  0  0  0  0  0  0  0  0
    8.1018   11.9574   25.0947 C   0  0  0  0  0  0  0  0  0  0  0  0
  1  2  1  0
  2  3  1  0
  3  4  1  0
  4  5  2  0
  5  6  1  0
  6  7  1  0
  7  8  1  0
  8  9  1  0
  9 10  1  0
 10 11  2  0
 10 12  1  0
 12 13  2  0
 13 14  1  0
 14 15  1  0
 14 16  1  0
 16 17  2  0
 17 18  1  0
 18 19  2  0
 19 20  1  0
 19 21  1  0
 21 22  2  0
  6  2  2  0
 22 12  1  0
 22 16  1  0
M  END
>  <energy_score>  (1522) 
-22.255064

>  <inchikey>  (1522) 
SKWLCASPHPGKCF-UHFFFAOYSA-N

>  <smiles>  (1522) 
Cc1ocnc1CCNC(=O)c1nn(C)c2ccc(F)cc12

>  <ref_pdb>  (1522) 
A0514a

>  <alias>  (1522) 
SKWLCASPHPGKCF-UHFFFAOYSA-N-P183-P126-P183-601502

>  <HIPPO Pose ID>  (1522) 
503379

>  <name>  (1522) 
SKWLCASPHPGKCF-UHFFFAOYSA-N-P183-P126-P183-601502

>  <HIPPO Compound ID>  (1522) 
250891

>  <ref_mols>  (1522) 
A2290a,A3436a

>  <distance_score>  (1522) 
0.712371

>  <inspiration_score>  (1522) 
None

$$$$
GRVBCAZAUPUKFZ-UHFFFAOYSA-N-P183-P126-P183-601502
     RDKit          3D

 22 24  0  0  0  0  0  0  0  0999 V2000
    8.4764   17.5901   20.4351 C   0  0  0  0  0  0  0  0  0  0  0  0
    9.4898   16.5567   20.2307 C   0  0  0  0  0  0  0  0  0  0  0  0
   10.2640   16.0214   21.1399 N   0  0  0  0  0  0  0  0  0  0  0  0
   11.0701   15.1776   20.4329 C   0  0  0  0  0  0  0  0  0  0  0  0
   12.2356   14.5585   21.0853 C   0  0  0  0  0  0  0  0  0  0  0  0
   12.1035   14.4981   22.5970 C   0  0  0  0  0  0  0  0  0  0  0  0
   11.1435   13.5315   23.0284 N   0  0  0  0  0  0  0  0  0  0  0  0
   10.1428   13.5726   24.1800 C   0  0  0  0  0  0  0  0  0  0  0  0
    9.9858   14.3668   25.0153 O   0  0  0  0  0  0  0  0  0  0  0  0
    9.3852   12.3164   24.1692 C   0  0  0  0  0  0  0  0  0  0  0  0
    9.8011   11.2590   23.4492 N   0  0  0  0  0  0  0  0  0  0  0  0
    9.0468   10.2399   23.8904 N   0  0  0  0  0  0  0  0  0  0  0  0
    9.3405    8.9167   23.3890 C   0  0  0  0  0  0  0  0  0  0  0  0
    8.1067   10.6232   24.8206 C   0  0  0  0  0  0  0  0  0  0  0  0
    7.1505    9.9225   25.5617 C   0  0  0  0  0  0  0  0  0  0  0  0
    6.3136   10.6406   26.4204 C   0  0  0  0  0  0  0  0  0  0  0  0
    6.4307   12.0211   26.5312 C   0  0  0  0  0  0  0  0  0  0  0  0
    5.2837   12.9569   27.7068 Br  0  0  0  0  0  0  0  0  0  0  0  0
    7.3941   12.7200   25.8058 C   0  0  0  0  0  0  0  0  0  0  0  0
    8.2505   12.0003   24.9505 C   0  0  0  0  0  0  0  0  0  0  0  0
   10.6890   15.1734   19.1145 C   0  0  0  0  0  0  0  0  0  0  0  0
    9.6614   16.0570   18.9730 O   0  0  0  0  0  0  0  0  0  0  0  0
  1  2  1  0
  2  3  2  0
  3  4  1  0
  4  5  1  0
  5  6  1  0
  6  7  1  0
  7  8  1  0
  8  9  2  0
  8 10  1  0
 10 11  2  0
 11 12  1  0
 12 13  1  0
 12 14  1  0
 14 15  2  0
 15 16  1  0
 16 17  2  0
 17 18  1  0
 17 19  1  0
 19 20  2  0
  4 21  2  0
 21 22  1  0
 22  2  1  0
 20 10  1  0
 20 14  1  0
M  END
>  <energy_score>  (1523) 
-4.497751

>  <inchikey>  (1523) 
GRVBCAZAUPUKFZ-UHFFFAOYSA-N

>  <smiles>  (1523) 
Cc1nc(CCNC(=O)c2nn(C)c3ccc(Br)cc23)co1

>  <ref_pdb>  (1523) 
A0514a

>  <alias>  (1523) 
GRVBCAZAUPUKFZ-UHFFFAOYSA-N-P183-P126-P183-601502

>  <HIPPO Pose ID>  (1523) 
503385

>  <name>  (1523) 
GRVBCAZAUPUKFZ-UHFFFAOYSA-N-P183-P126-P183-601502

>  <HIPPO Compound ID>  (1523) 
289827

>  <ref_mols>  (1523) 
A2290a,A3436a

>  <distance_score>  (1523) 
0.529748

>  <inspiration_score>  (1523) 
None

$$$$
YIQBRUGGXMDKEY-UHFFFAOYSA-N-P183-P126-P183-601502
     RDKit          3D

 22 24  0  0  0  0  0  0  0  0999 V2000
   12.4556   14.8400   23.0075 C   0  0  0  0  0  0  0  0  0  0  0  0
   11.9274   13.8751   21.9927 C   0  0  2  0  0  0  0  0  0  0  0  0
   11.8087   14.5058   20.6272 C   0  0  0  0  0  0  0  0  0  0  0  0
   10.6241   15.3305   20.3704 C   0  0  0  0  0  0  0  0  0  0  0  0
   10.1758   15.7016   19.1334 C   0  0  0  0  0  0  0  0  0  0  0  0
    9.2287   16.6538   19.2901 O   0  0  0  0  0  0  0  0  0  0  0  0
    9.1052   16.7667   20.6393 C   0  0  0  0  0  0  0  0  0  0  0  0
    9.9004   15.9803   21.3304 N   0  0  0  0  0  0  0  0  0  0  0  0
   10.8484   13.1177   22.5205 N   0  0  0  0  0  0  0  0  0  0  0  0
    9.9350   13.3883   23.7205 C   0  0  0  0  0  0  0  0  0  0  0  0
    9.8677   14.3130   24.4255 O   0  0  0  0  0  0  0  0  0  0  0  0
    9.1524   12.1802   23.9441 C   0  0  0  0  0  0  0  0  0  0  0  0
    9.5114   11.0388   23.3315 N   0  0  0  0  0  0  0  0  0  0  0  0
    8.8253   10.0921   23.9725 N   0  0  0  0  0  0  0  0  0  0  0  0
    9.1187    8.7210   23.6383 C   0  0  0  0  0  0  0  0  0  0  0  0
    7.9350   10.5935   24.8950 C   0  0  0  0  0  0  0  0  0  0  0  0
    6.9822    9.9982   25.7265 C   0  0  0  0  0  0  0  0  0  0  0  0
    6.2295   10.8207   26.5686 C   0  0  0  0  0  0  0  0  0  0  0  0
    6.4227   12.1977   26.5726 C   0  0  0  0  0  0  0  0  0  0  0  0
    5.3969   13.2741   27.7403 Br  0  0  0  0  0  0  0  0  0  0  0  0
    7.3621   12.7952   25.7335 C   0  0  0  0  0  0  0  0  0  0  0  0
    8.1170   11.9732   24.8772 C   0  0  0  0  0  0  0  0  0  0  0  0
  2  1  1  1
  2  3  1  0
  3  4  1  0
  4  5  2  0
  5  6  1  0
  6  7  1  0
  7  8  2  0
  2  9  1  0
  9 10  1  0
 10 11  2  0
 10 12  1  0
 12 13  2  0
 13 14  1  0
 14 15  1  0
 14 16  1  0
 16 17  2  0
 17 18  1  0
 18 19  2  0
 19 20  1  0
 19 21  1  0
 21 22  2  0
  8  4  1  0
 22 12  1  0
 22 16  1  0
M  END
>  <energy_score>  (1524) 
-26.324425

>  <inchikey>  (1524) 
YIQBRUGGXMDKEY-UHFFFAOYSA-N

>  <smiles>  (1524) 
CC(Cc1cocn1)NC(=O)c1nn(C)c2ccc(Br)cc12

>  <ref_pdb>  (1524) 
A0514a

>  <alias>  (1524) 
YIQBRUGGXMDKEY-UHFFFAOYSA-N-P183-P126-P183-601502

>  <HIPPO Pose ID>  (1524) 
503387

>  <name>  (1524) 
YIQBRUGGXMDKEY-UHFFFAOYSA-N-P183-P126-P183-601502

>  <HIPPO Compound ID>  (1524) 
289828

>  <ref_mols>  (1524) 
A2290a,A3436a

>  <distance_score>  (1524) 
0.586429

>  <inspiration_score>  (1524) 
None

$$$$
YVHPJRWUHCQUON-UHFFFAOYSA-N-P183-P126-P183-601502
     RDKit          3D

 23 25  0  0  0  0  0  0  0  0999 V2000
    8.4048   17.5271   20.6636 C   0  0  0  0  0  0  0  0  0  0  0  0
    9.4443   16.5197   20.5061 C   0  0  0  0  0  0  0  0  0  0  0  0
   10.1504   15.9518   21.4545 N   0  0  0  0  0  0  0  0  0  0  0  0
   11.0571   15.2033   20.7789 C   0  0  0  0  0  0  0  0  0  0  0  0
   12.2269   14.5961   21.4341 C   0  0  0  0  0  0  0  0  0  0  0  0
   12.0873   14.4831   22.9339 C   0  0  0  0  0  0  0  0  0  0  0  0
   11.1030   13.5224   23.3024 N   0  0  0  0  0  0  0  0  0  0  0  0
   10.0173   13.5761   24.3695 C   0  0  0  0  0  0  0  0  0  0  0  0
    9.7931   14.3813   25.1774 O   0  0  0  0  0  0  0  0  0  0  0  0
    9.2781   12.3140   24.3043 C   0  0  0  0  0  0  0  0  0  0  0  0
    9.7270   11.2839   23.5626 N   0  0  0  0  0  0  0  0  0  0  0  0
    8.9810   10.2417   23.9616 N   0  0  0  0  0  0  0  0  0  0  0  0
    9.3082    8.9367   23.4324 C   0  0  0  0  0  0  0  0  0  0  0  0
    8.0230   10.5877   24.8888 C   0  0  0  0  0  0  0  0  0  0  0  0
    7.0693    9.8565   25.5999 C   0  0  0  0  0  0  0  0  0  0  0  0
    6.2153   10.5376   26.4719 C   0  0  0  0  0  0  0  0  0  0  0  0
    6.3080   11.9158   26.6203 C   0  0  0  0  0  0  0  0  0  0  0  0
    5.1362   12.8018   27.8098 Br  0  0  0  0  0  0  0  0  0  0  0  0
    7.2646   12.6475   25.9212 C   0  0  0  0  0  0  0  0  0  0  0  0
    8.1388   11.9624   25.0562 C   0  0  0  0  0  0  0  0  0  0  0  0
   10.7845   15.2674   19.4398 C   0  0  0  0  0  0  0  0  0  0  0  0
   11.4748   14.7474   18.2769 C   0  0  0  0  0  0  0  0  0  0  0  0
    9.7349   16.1058   19.2427 O   0  0  0  0  0  0  0  0  0  0  0  0
  1  2  1  0
  2  3  2  0
  3  4  1  0
  4  5  1  0
  5  6  1  0
  6  7  1  0
  7  8  1  0
  8  9  2  0
  8 10  1  0
 10 11  2  0
 11 12  1  0
 12 13  1  0
 12 14  1  0
 14 15  2  0
 15 16  1  0
 16 17  2  0
 17 18  1  0
 17 19  1  0
 19 20  2  0
  4 21  2  0
 21 22  1  0
 21 23  1  0
 23  2  1  0
 20 10  1  0
 20 14  1  0
M  END
>  <energy_score>  (1525) 
-2.570981

>  <inchikey>  (1525) 
YVHPJRWUHCQUON-UHFFFAOYSA-N

>  <smiles>  (1525) 
Cc1nc(CCNC(=O)c2nn(C)c3ccc(Br)cc23)c(C)o1

>  <ref_pdb>  (1525) 
A0514a

>  <alias>  (1525) 
YVHPJRWUHCQUON-UHFFFAOYSA-N-P183-P126-P183-601502

>  <HIPPO Pose ID>  (1525) 
503389

>  <name>  (1525) 
YVHPJRWUHCQUON-UHFFFAOYSA-N-P183-P126-P183-601502

>  <HIPPO Compound ID>  (1525) 
289829

>  <ref_mols>  (1525) 
A2290a,A3436a

>  <distance_score>  (1525) 
0.67174

>  <inspiration_score>  (1525) 
None

$$$$
MRIKHPOGYPLZKJ-UHFFFAOYSA-N-P183-P126-P183-601502
     RDKit          3D

 23 25  0  0  0  0  0  0  0  0999 V2000
    8.4046   17.5212   20.6715 C   0  0  0  0  0  0  0  0  0  0  0  0
    9.4422   16.5119   20.5119 C   0  0  0  0  0  0  0  0  0  0  0  0
   10.1453   15.9376   21.4589 N   0  0  0  0  0  0  0  0  0  0  0  0
   11.0553   15.1952   20.7812 C   0  0  0  0  0  0  0  0  0  0  0  0
   12.2238   14.5859   21.4364 C   0  0  0  0  0  0  0  0  0  0  0  0
   12.0841   14.4717   22.9361 C   0  0  0  0  0  0  0  0  0  0  0  0
   11.0926   13.5186   23.3074 N   0  0  0  0  0  0  0  0  0  0  0  0
   10.0135   13.5791   24.3805 C   0  0  0  0  0  0  0  0  0  0  0  0
    9.8011   14.3839   25.1918 O   0  0  0  0  0  0  0  0  0  0  0  0
    9.2596   12.3246   24.3190 C   0  0  0  0  0  0  0  0  0  0  0  0
    9.6925   11.2833   23.5814 N   0  0  0  0  0  0  0  0  0  0  0  0
    8.9416   10.2529   24.0030 N   0  0  0  0  0  0  0  0  0  0  0  0
    9.2760    8.9344   23.5168 C   0  0  0  0  0  0  0  0  0  0  0  0
    7.9848   10.6169   24.9235 C   0  0  0  0  0  0  0  0  0  0  0  0
    7.0199    9.9021   25.6399 C   0  0  0  0  0  0  0  0  0  0  0  0
    6.1810   10.6034   26.5092 C   0  0  0  0  0  0  0  0  0  0  0  0
    6.2989   11.9773   26.6460 C   0  0  0  0  0  0  0  0  0  0  0  0
    5.4914   12.6194   27.5006 F   0  0  0  0  0  0  0  0  0  0  0  0
    7.2573   12.6939   25.9413 C   0  0  0  0  0  0  0  0  0  0  0  0
    8.1182   11.9924   25.0778 C   0  0  0  0  0  0  0  0  0  0  0  0
   10.7854   15.2657   19.4420 C   0  0  0  0  0  0  0  0  0  0  0  0
   11.4779   14.7529   18.2773 C   0  0  0  0  0  0  0  0  0  0  0  0
    9.7351   16.1035   19.2471 O   0  0  0  0  0  0  0  0  0  0  0  0
  1  2  1  0
  2  3  2  0
  3  4  1  0
  4  5  1  0
  5  6  1  0
  6  7  1  0
  7  8  1  0
  8  9  2  0
  8 10  1  0
 10 11  2  0
 11 12  1  0
 12 13  1  0
 12 14  1  0
 14 15  2  0
 15 16  1  0
 16 17  2  0
 17 18  1  0
 17 19  1  0
 19 20  2  0
  4 21  2  0
 21 22  1  0
 21 23  1  0
 23  2  1  0
 20 10  1  0
 20 14  1  0
M  END
>  <energy_score>  (1526) 
-4.695939

>  <inchikey>  (1526) 
MRIKHPOGYPLZKJ-UHFFFAOYSA-N

>  <smiles>  (1526) 
Cc1nc(CCNC(=O)c2nn(C)c3ccc(F)cc23)c(C)o1

>  <ref_pdb>  (1526) 
A0514a

>  <alias>  (1526) 
MRIKHPOGYPLZKJ-UHFFFAOYSA-N-P183-P126-P183-601502

>  <HIPPO Pose ID>  (1526) 
503391

>  <name>  (1526) 
MRIKHPOGYPLZKJ-UHFFFAOYSA-N-P183-P126-P183-601502

>  <HIPPO Compound ID>  (1526) 
289830

>  <ref_mols>  (1526) 
A2290a,A3436a

>  <distance_score>  (1526) 
0.689301

>  <inspiration_score>  (1526) 
None

$$$$
QZNFHAMVIOJLEH-UHFFFAOYSA-N-P183-P126-P183-601502
     RDKit          3D

 24 26  0  0  0  0  0  0  0  0999 V2000
   11.3876   14.8373   18.3323 C   0  0  0  0  0  0  0  0  0  0  0  0
   10.6476   15.3303   19.4850 C   0  0  0  0  0  0  0  0  0  0  0  0
    9.5384   16.0931   19.2886 O   0  0  0  0  0  0  0  0  0  0  0  0
    9.1698   16.4387   20.5543 C   0  0  0  0  0  0  0  0  0  0  0  0
    9.9167   15.9232   21.5036 N   0  0  0  0  0  0  0  0  0  0  0  0
   10.9065   15.2693   20.8273 C   0  0  0  0  0  0  0  0  0  0  0  0
   12.1208   14.7079   21.4579 C   0  0  0  0  0  0  0  0  0  0  0  0
   12.0268   14.5534   22.9540 C   0  0  0  0  0  0  0  0  0  0  0  0
   11.0667   13.5705   23.3244 N   0  0  0  0  0  0  0  0  0  0  0  0
    9.9908   13.5942   24.4007 C   0  0  0  0  0  0  0  0  0  0  0  0
    9.7573   14.3887   25.2160 O   0  0  0  0  0  0  0  0  0  0  0  0
    9.2681   12.3241   24.3294 C   0  0  0  0  0  0  0  0  0  0  0  0
    9.7286   11.2987   23.5894 N   0  0  0  0  0  0  0  0  0  0  0  0
    8.9792   10.2533   23.9734 N   0  0  0  0  0  0  0  0  0  0  0  0
    9.3060    8.9537   23.4309 C   0  0  0  0  0  0  0  0  0  0  0  0
    8.0146   10.5914   24.8977 C   0  0  0  0  0  0  0  0  0  0  0  0
    7.0580    9.8504   25.5956 C   0  0  0  0  0  0  0  0  0  0  0  0
    6.1780   10.5222   26.4478 C   0  0  0  0  0  0  0  0  0  0  0  0
    6.2578   11.9080   26.5894 C   0  0  0  0  0  0  0  0  0  0  0  0
    5.3171   12.5899   27.4782 N   0  0  0  0  0  0  0  0  0  0  0  0
    5.6748   13.6675   27.9732 O   0  0  0  0  0  0  0  0  0  0  0  0
    4.2389   12.0248   27.7172 O   0  0  0  0  0  0  0  0  0  0  0  0
    7.2330   12.6519   25.9185 C   0  0  0  0  0  0  0  0  0  0  0  0
    8.1224   11.9666   25.0689 C   0  0  0  0  0  0  0  0  0  0  0  0
  1  2  1  0
  2  3  1  0
  3  4  1  0
  4  5  2  0
  5  6  1  0
  6  7  1  0
  7  8  1  0
  8  9  1  0
  9 10  1  0
 10 11  2  0
 10 12  1  0
 12 13  2  0
 13 14  1  0
 14 15  1  0
 14 16  1  0
 16 17  2  0
 17 18  1  0
 18 19  2  0
 19 20  1  0
 20 21  2  0
 20 22  1  0
 19 23  1  0
 23 24  2  0
  6  2  2  0
 24 12  1  0
 24 16  1  0
M  CHG  2  20   1  22  -1
M  END
>  <energy_score>  (1527) 
-18.251645

>  <inchikey>  (1527) 
QZNFHAMVIOJLEH-UHFFFAOYSA-N

>  <smiles>  (1527) 
Cc1ocnc1CCNC(=O)c1nn(C)c2ccc([N+](=O)[O-])cc12

>  <ref_pdb>  (1527) 
A0514a

>  <alias>  (1527) 
QZNFHAMVIOJLEH-UHFFFAOYSA-N-P183-P126-P183-601502

>  <HIPPO Pose ID>  (1527) 
503393

>  <name>  (1527) 
QZNFHAMVIOJLEH-UHFFFAOYSA-N-P183-P126-P183-601502

>  <HIPPO Compound ID>  (1527) 
289831

>  <ref_mols>  (1527) 
A2290a,A3436a

>  <distance_score>  (1527) 
0.70458

>  <inspiration_score>  (1527) 
None

$$$$
IMTOCZSSUZGMII-UHFFFAOYSA-N-P126-P126-P183-601502
     RDKit          3D

 24 26  0  0  0  0  0  0  0  0999 V2000
    8.5934   17.3963   20.7067 C   0  0  0  0  0  0  0  0  0  0  0  0
    9.5652   16.3161   20.4736 C   0  0  0  0  0  0  0  0  0  0  0  0
   10.3430   15.7207   21.3500 N   0  0  0  0  0  0  0  0  0  0  0  0
   11.1654   14.9348   20.5912 C   0  0  0  0  0  0  0  0  0  0  0  0
   12.3928   14.3341   21.1524 C   0  0  0  0  0  0  0  0  0  0  0  0
   12.3482   14.1922   22.6570 C   0  0  0  0  0  0  0  0  0  0  0  0
   11.3627   13.2607   23.0967 N   0  0  0  0  0  0  0  0  0  0  0  0
   10.4797   13.2636   24.3428 C   0  0  0  0  0  0  0  0  0  0  0  0
   10.3554   14.0644   25.1781 O   0  0  0  0  0  0  0  0  0  0  0  0
    9.6912   12.0284   24.3232 C   0  0  0  0  0  0  0  0  0  0  0  0
   10.0473   11.0029   23.5296 N   0  0  0  0  0  0  0  0  0  0  0  0
    9.1961   10.0190   23.8535 N   0  0  0  0  0  0  0  0  0  0  0  0
    9.3316    8.7544   23.1709 C   0  0  0  0  0  0  0  0  0  0  0  0
    8.2787   10.3866   24.8101 C   0  0  0  0  0  0  0  0  0  0  0  0
    7.2505    9.6940   25.4523 C   0  0  0  0  0  0  0  0  0  0  0  0
    6.4372   10.3916   26.3481 C   0  0  0  0  0  0  0  0  0  0  0  0
    6.6674   11.7462   26.5975 C   0  0  0  0  0  0  0  0  0  0  0  0
    5.7998   12.4541   27.5380 N   0  0  0  0  0  0  0  0  0  0  0  0
    4.6519   12.0152   27.7048 O   0  0  0  0  0  0  0  0  0  0  0  0
    6.2818   13.4233   28.1412 O   0  0  0  0  0  0  0  0  0  0  0  0
    7.7278   12.4320   25.9928 C   0  0  0  0  0  0  0  0  0  0  0  0
    8.5416   11.7249   25.0874 C   0  0  0  0  0  0  0  0  0  0  0  0
   10.7601   14.9924   19.2841 C   0  0  0  0  0  0  0  0  0  0  0  0
    9.7271   15.8743   19.1939 O   0  0  0  0  0  0  0  0  0  0  0  0
  1  2  1  0
  2  3  2  0
  3  4  1  0
  4  5  1  0
  5  6  1  0
  6  7  1  0
  7  8  1  0
  8  9  2  0
  8 10  1  0
 10 11  2  0
 11 12  1  0
 12 13  1  0
 12 14  1  0
 14 15  2  0
 15 16  1  0
 16 17  2  0
 17 18  1  0
 18 19  2  0
 18 20  1  0
 17 21  1  0
 21 22  2  0
  4 23  2  0
 23 24  1  0
 24  2  1  0
 22 10  1  0
 22 14  1  0
M  CHG  2  18   1  20  -1
M  END
>  <energy_score>  (1528) 
-22.64931

>  <inchikey>  (1528) 
IMTOCZSSUZGMII-UHFFFAOYSA-N

>  <smiles>  (1528) 
Cc1nc(CCNC(=O)c2nn(C)c3ccc([N+](=O)[O-])cc23)co1

>  <ref_pdb>  (1528) 
A0514a

>  <alias>  (1528) 
IMTOCZSSUZGMII-UHFFFAOYSA-N-P126-P126-P183-601502

>  <HIPPO Pose ID>  (1528) 
503396

>  <name>  (1528) 
IMTOCZSSUZGMII-UHFFFAOYSA-N-P126-P126-P183-601502

>  <HIPPO Compound ID>  (1528) 
289833

>  <ref_mols>  (1528) 
A2290a,A3436a

>  <distance_score>  (1528) 
0.529264

>  <inspiration_score>  (1528) 
None

$$$$
FJORHRSFVACLOE-UHFFFAOYSA-N-P126-P126-P183-601502
     RDKit          3D

 25 27  0  0  0  0  0  0  0  0999 V2000
   14.4833   11.9548   24.9606 C   0  0  0  0  0  0  0  0  0  0  0  0
   13.6548   12.5030   23.9122 O   0  0  0  0  0  0  0  0  0  0  0  0
   12.7220   13.4098   24.2749 C   0  0  0  0  0  0  0  0  0  0  0  0
   12.4886   13.6793   25.4554 O   0  0  0  0  0  0  0  0  0  0  0  0
   11.8740   14.0182   23.1532 C   0  0  1  0  0  0  0  0  0  0  0  0
   12.2788   14.0699   21.6918 C   0  0  0  0  0  0  0  0  0  0  0  0
   11.2302   14.7577   20.8687 C   0  0  0  0  0  0  0  0  0  0  0  0
   11.0046   14.7754   19.5118 C   0  0  0  0  0  0  0  0  0  0  0  0
    9.9605   15.6210   19.2594 O   0  0  0  0  0  0  0  0  0  0  0  0
    9.6144   16.0906   20.4821 C   0  0  0  0  0  0  0  0  0  0  0  0
   10.3088   15.5824   21.4704 N   0  0  0  0  0  0  0  0  0  0  0  0
   10.7297   13.2149   23.4127 N   0  0  0  0  0  0  0  0  0  0  0  0
    9.5789   13.4195   24.3825 C   0  0  0  0  0  0  0  0  0  0  0  0
    9.3299   14.3149   25.0781 O   0  0  0  0  0  0  0  0  0  0  0  0
    8.8354   12.1731   24.3668 C   0  0  0  0  0  0  0  0  0  0  0  0
    9.2810   11.1364   23.6268 N   0  0  0  0  0  0  0  0  0  0  0  0
    8.6147   10.0891   24.1190 N   0  0  0  0  0  0  0  0  0  0  0  0
    9.0068    8.7719   23.6861 C   0  0  0  0  0  0  0  0  0  0  0  0
    7.6944   10.4316   25.0794 C   0  0  0  0  0  0  0  0  0  0  0  0
    6.7747    9.6949   25.8174 C   0  0  0  0  0  0  0  0  0  0  0  0
    6.0083   10.3585   26.7774 C   0  0  0  0  0  0  0  0  0  0  0  0
    6.1545   11.7253   26.9831 C   0  0  0  0  0  0  0  0  0  0  0  0
    5.1033   12.5837   28.2999 Br  0  0  0  0  0  0  0  0  0  0  0  0
    7.0601   12.4687   26.2339 C   0  0  0  0  0  0  0  0  0  0  0  0
    7.8179   11.8024   25.2565 C   0  0  0  0  0  0  0  0  0  0  0  0
  1  2  1  0
  2  3  1  0
  3  4  2  0
  3  5  1  0
  5  6  1  6
  6  7  1  0
  7  8  2  0
  8  9  1  0
  9 10  1  0
 10 11  2  0
  5 12  1  0
 12 13  1  0
 13 14  2  0
 13 15  1  0
 15 16  2  0
 16 17  1  0
 17 18  1  0
 17 19  1  0
 19 20  2  0
 20 21  1  0
 21 22  2  0
 22 23  1  0
 22 24  1  0
 24 25  2  0
 11  7  1  0
 25 15  1  0
 25 19  1  0
M  END
>  <energy_score>  (1529) 
-23.608087

>  <inchikey>  (1529) 
FJORHRSFVACLOE-UHFFFAOYSA-N

>  <smiles>  (1529) 
COC(=O)C(Cc1cocn1)NC(=O)c1nn(C)c2ccc(Br)cc12

>  <ref_pdb>  (1529) 
A0514a

>  <alias>  (1529) 
FJORHRSFVACLOE-UHFFFAOYSA-N-P126-P126-P183-601502

>  <HIPPO Pose ID>  (1529) 
503404

>  <name>  (1529) 
FJORHRSFVACLOE-UHFFFAOYSA-N-P126-P126-P183-601502

>  <HIPPO Compound ID>  (1529) 
289837

>  <ref_mols>  (1529) 
A2290a,A3436a

>  <distance_score>  (1529) 
0.961579

>  <inspiration_score>  (1529) 
None

$$$$
UNSHUWGXKVKHOR-UHFFFAOYSA-N-P183-P126-P183-601502
     RDKit          3D

 25 27  0  0  0  0  0  0  0  0999 V2000
    8.4034   17.5157   20.6807 C   0  0  0  0  0  0  0  0  0  0  0  0
    9.4394   16.5052   20.5187 C   0  0  0  0  0  0  0  0  0  0  0  0
   10.1427   15.9290   21.4645 N   0  0  0  0  0  0  0  0  0  0  0  0
   11.0557   15.1927   20.7844 C   0  0  0  0  0  0  0  0  0  0  0  0
   12.2307   14.5918   21.4353 C   0  0  0  0  0  0  0  0  0  0  0  0
   12.1031   14.4842   22.9370 C   0  0  0  0  0  0  0  0  0  0  0  0
   11.1378   13.5096   23.3222 N   0  0  0  0  0  0  0  0  0  0  0  0
   10.0241   13.5750   24.3589 C   0  0  0  0  0  0  0  0  0  0  0  0
    9.7556   14.4059   25.1258 O   0  0  0  0  0  0  0  0  0  0  0  0
    9.2891   12.3111   24.2997 C   0  0  0  0  0  0  0  0  0  0  0  0
    9.7374   11.2771   23.5650 N   0  0  0  0  0  0  0  0  0  0  0  0
    8.9846   10.2400   23.9617 N   0  0  0  0  0  0  0  0  0  0  0  0
    9.3026    8.9348   23.4285 C   0  0  0  0  0  0  0  0  0  0  0  0
    8.0248   10.5915   24.8859 C   0  0  0  0  0  0  0  0  0  0  0  0
    7.0657    9.8614   25.5925 C   0  0  0  0  0  0  0  0  0  0  0  0
    6.1914   10.5456   26.4405 C   0  0  0  0  0  0  0  0  0  0  0  0
    6.2793   11.9322   26.5696 C   0  0  0  0  0  0  0  0  0  0  0  0
    5.3442   12.6270   27.4542 N   0  0  0  0  0  0  0  0  0  0  0  0
    5.7085   13.7078   27.9378 O   0  0  0  0  0  0  0  0  0  0  0  0
    4.2646   12.0688   27.7027 O   0  0  0  0  0  0  0  0  0  0  0  0
    7.2578   12.6649   25.8903 C   0  0  0  0  0  0  0  0  0  0  0  0
    8.1415   11.9677   25.0443 C   0  0  0  0  0  0  0  0  0  0  0  0
   10.7834   15.2631   19.4455 C   0  0  0  0  0  0  0  0  0  0  0  0
   11.4758   14.7525   18.2796 C   0  0  0  0  0  0  0  0  0  0  0  0
    9.7315   16.0995   19.2529 O   0  0  0  0  0  0  0  0  0  0  0  0
  1  2  1  0
  2  3  2  0
  3  4  1  0
  4  5  1  0
  5  6  1  0
  6  7  1  0
  7  8  1  0
  8  9  2  0
  8 10  1  0
 10 11  2  0
 11 12  1  0
 12 13  1  0
 12 14  1  0
 14 15  2  0
 15 16  1  0
 16 17  2  0
 17 18  1  0
 18 19  2  0
 18 20  1  0
 17 21  1  0
 21 22  2  0
  4 23  2  0
 23 24  1  0
 23 25  1  0
 25  2  1  0
 22 10  1  0
 22 14  1  0
M  CHG  2  18   1  20  -1
M  END
>  <energy_score>  (1530) 
-21.745162

>  <inchikey>  (1530) 
UNSHUWGXKVKHOR-UHFFFAOYSA-N

>  <smiles>  (1530) 
Cc1nc(CCNC(=O)c2nn(C)c3ccc([N+](=O)[O-])cc23)c(C)o1

>  <ref_pdb>  (1530) 
A0514a

>  <alias>  (1530) 
UNSHUWGXKVKHOR-UHFFFAOYSA-N-P183-P126-P183-601502

>  <HIPPO Pose ID>  (1530) 
503407

>  <name>  (1530) 
UNSHUWGXKVKHOR-UHFFFAOYSA-N-P183-P126-P183-601502

>  <HIPPO Compound ID>  (1530) 
289838

>  <ref_mols>  (1530) 
A2290a,A3436a

>  <distance_score>  (1530) 
0.673091

>  <inspiration_score>  (1530) 
None

$$$$
UMGSEODYFWYKOA-UHFFFAOYSA-N-P126-P126-P183-601502
     RDKit          3D

 25 27  0  0  0  0  0  0  0  0999 V2000
    4.1470   13.4033   28.9555 C   0  0  0  0  0  0  0  0  0  0  0  0
    4.8592   12.5816   28.0296 O   0  0  0  0  0  0  0  0  0  0  0  0
    6.1293   13.0001   27.7977 C   0  0  0  0  0  0  0  0  0  0  0  0
    6.6844   13.9502   28.3254 O   0  0  0  0  0  0  0  0  0  0  0  0
    6.7823   12.1292   26.7907 C   0  0  0  0  0  0  0  0  0  0  0  0
    6.3977   10.7950   26.6172 C   0  0  0  0  0  0  0  0  0  0  0  0
    7.0503    9.9702   25.6967 C   0  0  0  0  0  0  0  0  0  0  0  0
    8.0879   10.5283   24.9440 C   0  0  0  0  0  0  0  0  0  0  0  0
    8.4942   11.8521   25.1029 C   0  0  0  0  0  0  0  0  0  0  0  0
    7.8425   12.6668   26.0454 C   0  0  0  0  0  0  0  0  0  0  0  0
    9.5904   12.0003   24.2199 C   0  0  0  0  0  0  0  0  0  0  0  0
   10.5539   13.0994   24.0912 C   0  0  0  0  0  0  0  0  0  0  0  0
   10.6481   13.9612   24.8692 O   0  0  0  0  0  0  0  0  0  0  0  0
   11.3930   12.7869   22.8484 N   0  0  0  0  0  0  0  0  0  0  0  0
   12.4557   13.5090   22.2480 C   0  0  0  0  0  0  0  0  0  0  0  0
   12.1395   14.9291   21.8879 C   0  0  0  0  0  0  0  0  0  0  0  0
   10.9632   15.1316   21.0225 C   0  0  0  0  0  0  0  0  0  0  0  0
    9.8739   15.7799   21.5095 N   0  0  0  0  0  0  0  0  0  0  0  0
    9.2852   16.2533   20.4439 C   0  0  0  0  0  0  0  0  0  0  0  0
    9.7532   15.7492   19.2746 O   0  0  0  0  0  0  0  0  0  0  0  0
   10.8351   15.0064   19.6624 C   0  0  0  0  0  0  0  0  0  0  0  0
   11.6986   14.4621   18.6200 C   0  0  0  0  0  0  0  0  0  0  0  0
    9.7550   10.9032   23.4585 N   0  0  0  0  0  0  0  0  0  0  0  0
    8.9249   10.0087   23.9886 N   0  0  0  0  0  0  0  0  0  0  0  0
    9.0790    8.6345   23.5959 C   0  0  0  0  0  0  0  0  0  0  0  0
  1  2  1  0
  2  3  1  0
  3  4  2  0
  3  5  1  0
  5  6  2  0
  6  7  1  0
  7  8  2  0
  8  9  1  0
  9 10  2  0
  9 11  1  0
 11 12  1  0
 12 13  2  0
 12 14  1  0
 14 15  1  0
 15 16  1  0
 16 17  1  0
 17 18  1  0
 18 19  2  0
 19 20  1  0
 20 21  1  0
 21 22  1  0
 11 23  2  0
 23 24  1  0
 24 25  1  0
 10  5  1  0
 21 17  2  0
 24  8  1  0
M  END
>  <energy_score>  (1531) 
-9.109688

>  <inchikey>  (1531) 
UMGSEODYFWYKOA-UHFFFAOYSA-N

>  <smiles>  (1531) 
COC(=O)c1ccc2c(c1)c(C(=O)NCCc1ncoc1C)nn2C

>  <ref_pdb>  (1531) 
A0514a

>  <alias>  (1531) 
UMGSEODYFWYKOA-UHFFFAOYSA-N-P126-P126-P183-601502

>  <HIPPO Pose ID>  (1531) 
503410

>  <name>  (1531) 
UMGSEODYFWYKOA-UHFFFAOYSA-N-P126-P126-P183-601502

>  <HIPPO Compound ID>  (1531) 
289840

>  <ref_mols>  (1531) 
A2290a,A3436a

>  <distance_score>  (1531) 
0.588827

>  <inspiration_score>  (1531) 
None

$$$$
GAZCAKNIIVMANI-UHFFFAOYSA-N-P183-P126-P183-601502
     RDKit          3D

 25 27  0  0  0  0  0  0  0  0999 V2000
    5.8024   16.5572   27.3794 C   0  0  0  0  0  0  0  0  0  0  0  0
    6.1412   15.3007   26.7925 O   0  0  0  0  0  0  0  0  0  0  0  0
    7.4571   15.1881   26.4371 C   0  0  0  0  0  0  0  0  0  0  0  0
    8.3062   16.0409   26.6840 O   0  0  0  0  0  0  0  0  0  0  0  0
    7.7604   13.9093   25.7825 C   0  0  0  0  0  0  0  0  0  0  0  0
    8.7777   13.7832   24.9126 N   0  0  0  0  0  0  0  0  0  0  0  0
    8.8285   12.4698   24.6229 N   0  0  0  0  0  0  0  0  0  0  0  0
    9.7961   11.9697   23.6809 C   0  0  0  0  0  0  0  0  0  0  0  0
   11.1568   12.6044   23.8576 C   0  0  0  0  0  0  0  0  0  0  0  0
   12.0479   12.0689   24.3735 O   0  0  0  0  0  0  0  0  0  0  0  0
   11.0887   13.9550   23.1522 N   0  0  0  0  0  0  0  0  0  0  0  0
   12.1089   14.8861   22.8487 C   0  0  0  0  0  0  0  0  0  0  0  0
   12.2333   14.9604   21.3527 C   0  0  0  0  0  0  0  0  0  0  0  0
   10.9783   15.4155   20.7094 C   0  0  0  0  0  0  0  0  0  0  0  0
    9.9630   16.0458   21.3724 N   0  0  0  0  0  0  0  0  0  0  0  0
    9.1823   16.4828   20.4126 C   0  0  0  0  0  0  0  0  0  0  0  0
    9.5342   16.0654   19.1628 O   0  0  0  0  0  0  0  0  0  0  0  0
   10.6780   15.3620   19.3796 C   0  0  0  0  0  0  0  0  0  0  0  0
   11.4154   14.8111   18.2564 C   0  0  0  0  0  0  0  0  0  0  0  0
    7.8793   11.7272   25.2612 C   0  0  0  0  0  0  0  0  0  0  0  0
    7.6142   10.3625   25.2629 C   0  0  0  0  0  0  0  0  0  0  0  0
    6.5356    9.9449   26.0377 C   0  0  0  0  0  0  0  0  0  0  0  0
    5.8098   10.8216   26.8339 C   0  0  0  0  0  0  0  0  0  0  0  0
    6.1060   12.1802   26.8348 C   0  0  0  0  0  0  0  0  0  0  0  0
    7.1459   12.6455   26.0143 C   0  0  0  0  0  0  0  0  0  0  0  0
  1  2  1  0
  2  3  1  0
  3  4  2  0
  3  5  1  0
  5  6  2  0
  6  7  1  0
  7  8  1  0
  8  9  1  0
  9 10  2  0
  9 11  1  0
 11 12  1  0
 12 13  1  0
 13 14  1  0
 14 15  1  0
 15 16  2  0
 16 17  1  0
 17 18  1  0
 18 19  1  0
  7 20  1  0
 20 21  2  0
 21 22  1  0
 22 23  2  0
 23 24  1  0
 24 25  2  0
 25  5  1  0
 18 14  2  0
 25 20  1  0
M  END
>  <energy_score>  (1532) 
-11.519728

>  <inchikey>  (1532) 
GAZCAKNIIVMANI-UHFFFAOYSA-N

>  <smiles>  (1532) 
COC(=O)c1nn(CC(=O)NCCc2ncoc2C)c2ccccc12

>  <ref_pdb>  (1532) 
A0514a

>  <alias>  (1532) 
GAZCAKNIIVMANI-UHFFFAOYSA-N-P183-P126-P183-601502

>  <HIPPO Pose ID>  (1532) 
503419

>  <name>  (1532) 
GAZCAKNIIVMANI-UHFFFAOYSA-N-P183-P126-P183-601502

>  <HIPPO Compound ID>  (1532) 
289844

>  <ref_mols>  (1532) 
A2290a,A3436a

>  <distance_score>  (1532) 
1.608322

>  <inspiration_score>  (1532) 
None

$$$$
NFKBWSGWMMTOMN-UHFFFAOYSA-N-P183-P126-P183-601502
     RDKit          3D

 25 27  0  0  0  0  0  0  0  0999 V2000
    8.3970   17.5244   20.6515 C   0  0  0  0  0  0  0  0  0  0  0  0
    9.4411   16.5219   20.4949 C   0  0  0  0  0  0  0  0  0  0  0  0
   10.1575   15.9673   21.4431 N   0  0  0  0  0  0  0  0  0  0  0  0
   11.0693   15.2260   20.7672 C   0  0  0  0  0  0  0  0  0  0  0  0
   12.2544   14.6455   21.4184 C   0  0  0  0  0  0  0  0  0  0  0  0
   12.1301   14.5629   22.9215 C   0  0  0  0  0  0  0  0  0  0  0  0
   11.1627   13.5949   23.3098 N   0  0  0  0  0  0  0  0  0  0  0  0
   10.0799   13.6505   24.3805 C   0  0  0  0  0  0  0  0  0  0  0  0
    9.8466   14.4657   25.1753 O   0  0  0  0  0  0  0  0  0  0  0  0
    9.3337   12.3973   24.2955 C   0  0  0  0  0  0  0  0  0  0  0  0
    9.7812   11.3948   23.5212 N   0  0  0  0  0  0  0  0  0  0  0  0
    9.0739   10.3149   23.9306 N   0  0  0  0  0  0  0  0  0  0  0  0
    9.4891    8.9805   23.4779 C   0  0  0  0  0  0  0  0  0  0  0  0
    9.4278    8.8548   22.1358 F   0  0  0  0  0  0  0  0  0  0  0  0
    8.7110    8.0289   24.0231 F   0  0  0  0  0  0  0  0  0  0  0  0
   10.7714    8.7152   23.8234 F   0  0  0  0  0  0  0  0  0  0  0  0
    8.0955   10.6496   24.8539 C   0  0  0  0  0  0  0  0  0  0  0  0
    7.1458    9.9081   25.5652 C   0  0  0  0  0  0  0  0  0  0  0  0
    6.2788   10.5783   26.4338 C   0  0  0  0  0  0  0  0  0  0  0  0
    6.3531   11.9553   26.5954 C   0  0  0  0  0  0  0  0  0  0  0  0
    7.3112   12.6919   25.9013 C   0  0  0  0  0  0  0  0  0  0  0  0
    8.1953   12.0251   25.0333 C   0  0  0  0  0  0  0  0  0  0  0  0
   10.7848   15.2720   19.4304 C   0  0  0  0  0  0  0  0  0  0  0  0
   11.4739   14.7475   18.2691 C   0  0  0  0  0  0  0  0  0  0  0  0
    9.7260   16.0985   19.2331 O   0  0  0  0  0  0  0  0  0  0  0  0
  1  2  1  0
  2  3  2  0
  3  4  1  0
  4  5  1  0
  5  6  1  0
  6  7  1  0
  7  8  1  0
  8  9  2  0
  8 10  1  0
 10 11  2  0
 11 12  1  0
 12 13  1  0
 13 14  1  0
 13 15  1  0
 13 16  1  0
 12 17  1  0
 17 18  2  0
 18 19  1  0
 19 20  2  0
 20 21  1  0
 21 22  2  0
  4 23  2  0
 23 24  1  0
 23 25  1  0
 25  2  1  0
 22 10  1  0
 22 17  1  0
M  END
>  <energy_score>  (1533) 
-28.713104

>  <inchikey>  (1533) 
NFKBWSGWMMTOMN-UHFFFAOYSA-N

>  <smiles>  (1533) 
Cc1nc(CCNC(=O)c2nn(C(F)(F)F)c3ccccc23)c(C)o1

>  <ref_pdb>  (1533) 
A0514a

>  <alias>  (1533) 
NFKBWSGWMMTOMN-UHFFFAOYSA-N-P183-P126-P183-601502

>  <HIPPO Pose ID>  (1533) 
503421

>  <name>  (1533) 
NFKBWSGWMMTOMN-UHFFFAOYSA-N-P183-P126-P183-601502

>  <HIPPO Compound ID>  (1533) 
289845

>  <ref_mols>  (1533) 
A2290a,A3436a

>  <distance_score>  (1533) 
0.668755

>  <inspiration_score>  (1533) 
None

$$$$
JWCKBUWRPPQKGH-UHFFFAOYSA-N-P183-P126-P183-601502
     RDKit          3D

 25 27  0  0  0  0  0  0  0  0999 V2000
   12.4979   13.2365   24.8286 C   0  0  0  0  0  0  0  0  0  0  0  0
   12.7746   13.2246   23.4449 O   0  0  0  0  0  0  0  0  0  0  0  0
   12.5403   14.4099   22.8437 C   0  0  0  0  0  0  0  0  0  0  0  0
   13.4193   15.2201   22.6107 O   0  0  0  0  0  0  0  0  0  0  0  0
   11.1616   14.6543   22.3680 C   0  0  1  0  0  0  0  0  0  0  0  0
   11.2708   14.7825   20.8783 C   0  0  0  0  0  0  0  0  0  0  0  0
   10.2199   15.6413   20.3509 C   0  0  0  0  0  0  0  0  0  0  0  0
    9.9305   15.8474   19.0406 C   0  0  0  0  0  0  0  0  0  0  0  0
    9.0875   16.9038   18.9682 O   0  0  0  0  0  0  0  0  0  0  0  0
    8.8727   17.2550   20.2635 C   0  0  0  0  0  0  0  0  0  0  0  0
    9.4926   16.4947   21.1298 N   0  0  0  0  0  0  0  0  0  0  0  0
   10.2728   13.6564   22.8493 N   0  0  0  0  0  0  0  0  0  0  0  0
    9.3207   13.6700   24.0308 C   0  0  0  0  0  0  0  0  0  0  0  0
    9.0444   14.5243   24.7649 O   0  0  0  0  0  0  0  0  0  0  0  0
    8.8199   12.3187   24.2051 C   0  0  0  0  0  0  0  0  0  0  0  0
    9.3563   11.2836   23.5327 N   0  0  0  0  0  0  0  0  0  0  0  0
    8.7576   10.2094   24.0677 N   0  0  0  0  0  0  0  0  0  0  0  0
    9.1850    8.9037   23.6211 C   0  0  0  0  0  0  0  0  0  0  0  0
    7.8107   10.5351   25.0132 C   0  0  0  0  0  0  0  0  0  0  0  0
    6.8953    9.7865   25.7510 C   0  0  0  0  0  0  0  0  0  0  0  0
    6.0613   10.4459   26.6571 C   0  0  0  0  0  0  0  0  0  0  0  0
    6.1292   11.8207   26.8025 C   0  0  0  0  0  0  0  0  0  0  0  0
    5.3286   12.4251   27.6899 F   0  0  0  0  0  0  0  0  0  0  0  0
    7.0071   12.5801   26.0440 C   0  0  0  0  0  0  0  0  0  0  0  0
    7.8442   11.9169   25.1293 C   0  0  0  0  0  0  0  0  0  0  0  0
  1  2  1  0
  2  3  1  0
  3  4  2  0
  3  5  1  0
  5  6  1  6
  6  7  1  0
  7  8  2  0
  8  9  1  0
  9 10  1  0
 10 11  2  0
  5 12  1  0
 12 13  1  0
 13 14  2  0
 13 15  1  0
 15 16  2  0
 16 17  1  0
 17 18  1  0
 17 19  1  0
 19 20  2  0
 20 21  1  0
 21 22  2  0
 22 23  1  0
 22 24  1  0
 24 25  2  0
 11  7  1  0
 25 15  1  0
 25 19  1  0
M  END
>  <energy_score>  (1534) 
-24.502232

>  <inchikey>  (1534) 
JWCKBUWRPPQKGH-UHFFFAOYSA-N

>  <smiles>  (1534) 
COC(=O)C(Cc1cocn1)NC(=O)c1nn(C)c2ccc(F)cc12

>  <ref_pdb>  (1534) 
A0514a

>  <alias>  (1534) 
JWCKBUWRPPQKGH-UHFFFAOYSA-N-P183-P126-P183-601502

>  <HIPPO Pose ID>  (1534) 
503423

>  <name>  (1534) 
JWCKBUWRPPQKGH-UHFFFAOYSA-N-P183-P126-P183-601502

>  <HIPPO Compound ID>  (1534) 
289846

>  <ref_mols>  (1534) 
A2290a,A3436a

>  <distance_score>  (1534) 
0.956078

>  <inspiration_score>  (1534) 
None

$$$$
PBMCPYDYJVOWNM-UHFFFAOYSA-N-P183-P126-P183-601502
     RDKit          3D

 26 28  0  0  0  0  0  0  0  0999 V2000
    3.2807   12.6624   28.6252 C   0  0  0  0  0  0  0  0  0  0  0  0
    4.2090   11.9906   27.7732 O   0  0  0  0  0  0  0  0  0  0  0  0
    5.3635   12.6775   27.5773 C   0  0  0  0  0  0  0  0  0  0  0  0
    5.6574   13.7473   28.0854 O   0  0  0  0  0  0  0  0  0  0  0  0
    6.2536   11.9391   26.6485 C   0  0  0  0  0  0  0  0  0  0  0  0
    6.1618   10.5563   26.4867 C   0  0  0  0  0  0  0  0  0  0  0  0
    7.0240    9.8738   25.6220 C   0  0  0  0  0  0  0  0  0  0  0  0
    7.9873   10.6014   24.9196 C   0  0  0  0  0  0  0  0  0  0  0  0
    8.1130   11.9744   25.0924 C   0  0  0  0  0  0  0  0  0  0  0  0
    7.2402   12.6582   25.9617 C   0  0  0  0  0  0  0  0  0  0  0  0
    9.2549   12.3219   24.3391 C   0  0  0  0  0  0  0  0  0  0  0  0
   10.0049   13.5789   24.4009 C   0  0  0  0  0  0  0  0  0  0  0  0
    9.7934   14.3837   25.2127 O   0  0  0  0  0  0  0  0  0  0  0  0
   11.0819   13.5198   23.3240 N   0  0  0  0  0  0  0  0  0  0  0  0
   12.0707   14.4747   22.9496 C   0  0  0  0  0  0  0  0  0  0  0  0
   12.2144   14.5822   21.4489 C   0  0  0  0  0  0  0  0  0  0  0  0
   11.0508   15.1947   20.7876 C   0  0  0  0  0  0  0  0  0  0  0  0
   10.1421   15.9422   21.4613 N   0  0  0  0  0  0  0  0  0  0  0  0
    9.4422   16.5158   20.5118 C   0  0  0  0  0  0  0  0  0  0  0  0
    8.4046   17.5253   20.6680 C   0  0  0  0  0  0  0  0  0  0  0  0
    9.7378   16.1057   19.2484 O   0  0  0  0  0  0  0  0  0  0  0  0
   10.7849   15.2646   19.4472 C   0  0  0  0  0  0  0  0  0  0  0  0
   11.4774   14.7481   18.2841 C   0  0  0  0  0  0  0  0  0  0  0  0
    9.6974   11.2895   23.5955 N   0  0  0  0  0  0  0  0  0  0  0  0
    8.9473   10.2521   23.9963 N   0  0  0  0  0  0  0  0  0  0  0  0
    9.2798    8.9446   23.4788 C   0  0  0  0  0  0  0  0  0  0  0  0
  1  2  1  0
  2  3  1  0
  3  4  2  0
  3  5  1  0
  5  6  2  0
  6  7  1  0
  7  8  2  0
  8  9  1  0
  9 10  2  0
  9 11  1  0
 11 12  1  0
 12 13  2  0
 12 14  1  0
 14 15  1  0
 15 16  1  0
 16 17  1  0
 17 18  1  0
 18 19  2  0
 19 20  1  0
 19 21  1  0
 21 22  1  0
 22 23  1  0
 11 24  2  0
 24 25  1  0
 25 26  1  0
 10  5  1  0
 22 17  2  0
 25  8  1  0
M  END
>  <energy_score>  (1535) 
-15.582609

>  <inchikey>  (1535) 
PBMCPYDYJVOWNM-UHFFFAOYSA-N

>  <smiles>  (1535) 
COC(=O)c1ccc2c(c1)c(C(=O)NCCc1nc(C)oc1C)nn2C

>  <ref_pdb>  (1535) 
A0514a

>  <alias>  (1535) 
PBMCPYDYJVOWNM-UHFFFAOYSA-N-P183-P126-P183-601502

>  <HIPPO Pose ID>  (1535) 
503425

>  <name>  (1535) 
PBMCPYDYJVOWNM-UHFFFAOYSA-N-P183-P126-P183-601502

>  <HIPPO Compound ID>  (1535) 
289847

>  <ref_mols>  (1535) 
A2290a,A3436a

>  <distance_score>  (1535) 
0.70025

>  <inspiration_score>  (1535) 
None

$$$$
LXJABMRHPGHKIS-UHFFFAOYSA-N-P183-P126-P183-601502
     RDKit          3D

 27 30  0  0  0  0  0  0  0  0999 V2000
    9.3144    8.9273   23.4456 C   0  0  0  0  0  0  0  0  0  0  0  0
    9.0120   10.2534   23.9352 N   0  0  0  0  0  0  0  0  0  0  0  0
    9.7675   11.2709   23.4937 N   0  0  0  0  0  0  0  0  0  0  0  0
    9.3595   12.3294   24.2170 C   0  0  0  0  0  0  0  0  0  0  0  0
   10.1206   13.5847   24.2164 C   0  0  0  0  0  0  0  0  0  0  0  0
    9.9661   14.3960   25.0348 O   0  0  0  0  0  0  0  0  0  0  0  0
   11.0903   13.5374   23.0418 N   0  0  0  0  0  0  0  0  0  0  0  0
   12.0153   14.5151   22.5602 C   0  0  0  0  0  0  0  0  0  0  0  0
   12.3829   14.2698   21.1109 C   0  0  0  0  0  0  0  0  0  0  0  0
   11.3457   14.5838   20.1384 C   0  0  0  0  0  0  0  0  0  0  0  0
   11.4470   14.7893   18.7870 C   0  0  0  0  0  0  0  0  0  0  0  0
   10.3371   15.4629   18.4073 O   0  0  0  0  0  0  0  0  0  0  0  0
    9.6466   15.5654   19.5595 C   0  0  0  0  0  0  0  0  0  0  0  0
    9.0222   16.8201   19.7552 C   0  0  0  0  0  0  0  0  0  0  0  0
    9.2599   17.3682   20.9598 C   0  0  0  0  0  0  0  0  0  0  0  0
    8.8490   18.6356   21.1596 C   0  0  0  0  0  0  0  0  0  0  0  0
    8.1018   19.3259   20.2391 C   0  0  0  0  0  0  0  0  0  0  0  0
    7.7979   18.7775   19.0445 C   0  0  0  0  0  0  0  0  0  0  0  0
    8.3265   17.5397   18.8102 C   0  0  0  0  0  0  0  0  0  0  0  0
   10.0793   14.8178   20.5437 N   0  0  0  0  0  0  0  0  0  0  0  0
    8.2221   12.0186   24.9949 C   0  0  0  0  0  0  0  0  0  0  0  0
    7.3688   12.7411   25.8487 C   0  0  0  0  0  0  0  0  0  0  0  0
    6.4054   12.0436   26.5679 C   0  0  0  0  0  0  0  0  0  0  0  0
    5.6053   12.7072   27.4130 F   0  0  0  0  0  0  0  0  0  0  0  0
    6.2749   10.6677   26.4569 C   0  0  0  0  0  0  0  0  0  0  0  0
    7.1048    9.9439   25.5975 C   0  0  0  0  0  0  0  0  0  0  0  0
    8.0691   10.6412   24.8613 C   0  0  0  0  0  0  0  0  0  0  0  0
  1  2  1  0
  2  3  1  0
  3  4  2  0
  4  5  1  0
  5  6  2  0
  5  7  1  0
  7  8  1  0
  8  9  1  0
  9 10  1  0
 10 11  2  0
 11 12  1  0
 12 13  1  0
 13 14  1  0
 14 15  2  0
 15 16  1  0
 16 17  2  0
 17 18  1  0
 18 19  2  0
 13 20  2  0
  4 21  1  0
 21 22  2  0
 22 23  1  0
 23 24  1  0
 23 25  2  0
 25 26  1  0
 26 27  2  0
 27  2  1  0
 20 10  1  0
 27 21  1  0
 19 14  1  0
M  END
>  <energy_score>  (1536) 
-5.81646

>  <inchikey>  (1536) 
LXJABMRHPGHKIS-UHFFFAOYSA-N

>  <smiles>  (1536) 
Cn1nc(C(=O)NCCc2coc(-c3ccccc3)n2)c2cc(F)ccc21

>  <ref_pdb>  (1536) 
A0514a

>  <alias>  (1536) 
LXJABMRHPGHKIS-UHFFFAOYSA-N-P183-P126-P183-601502

>  <HIPPO Pose ID>  (1536) 
503433

>  <name>  (1536) 
LXJABMRHPGHKIS-UHFFFAOYSA-N-P183-P126-P183-601502

>  <HIPPO Compound ID>  (1536) 
289851

>  <ref_mols>  (1536) 
A2290a,A3436a

>  <distance_score>  (1536) 
0.875497

>  <inspiration_score>  (1536) 
None

$$$$
RQYODYAUANDZJE-UHFFFAOYSA-N-P126-P126-P183-601502
     RDKit          3D

 27 30  0  0  0  0  0  0  0  0999 V2000
   11.6791   14.5256   18.5548 C   0  0  0  0  0  0  0  0  0  0  0  0
   10.8406   14.9404   19.6746 C   0  0  0  0  0  0  0  0  0  0  0  0
    9.8114   15.8032   19.4461 O   0  0  0  0  0  0  0  0  0  0  0  0
    9.3273   16.0442   20.6916 C   0  0  0  0  0  0  0  0  0  0  0  0
    9.8942   15.3443   21.6501 N   0  0  0  0  0  0  0  0  0  0  0  0
   10.9296   14.7145   21.0229 C   0  0  0  0  0  0  0  0  0  0  0  0
   12.0116   14.0026   21.7365 C   0  0  0  0  0  0  0  0  0  0  0  0
   12.0612   14.2908   23.2203 C   0  0  0  0  0  0  0  0  0  0  0  0
   11.0306   13.6454   23.9736 N   0  0  0  0  0  0  0  0  0  0  0  0
   10.3929   14.0218   25.3249 C   0  0  0  0  0  0  0  0  0  0  0  0
   10.6593   14.8748   26.0762 O   0  0  0  0  0  0  0  0  0  0  0  0
    9.3145   13.0610   25.5413 C   0  0  0  0  0  0  0  0  0  0  0  0
    9.5015   11.8214   25.0703 N   0  0  0  0  0  0  0  0  0  0  0  0
    8.4087   11.1664   25.4434 N   0  0  0  0  0  0  0  0  0  0  0  0
    8.2187    9.8432   24.9638 C   0  0  0  0  0  0  0  0  0  0  0  0
    8.7691    9.7649   23.5991 C   0  0  1  0  0  0  0  0  0  0  0  0
   10.2397    9.6372   23.4213 C   0  0  0  0  0  0  0  0  0  0  0  0
   10.3144    8.6642   22.4140 N   0  0  0  0  0  0  0  0  0  0  0  0
    9.1624    7.9421   22.4280 C   0  0  0  0  0  0  0  0  0  0  0  0
    8.9256    6.8591   21.9613 O   0  0  0  0  0  0  0  0  0  0  0  0
    8.2316    8.5626   23.1526 O   0  0  0  0  0  0  0  0  0  0  0  0
    7.5136   11.8855   26.1501 C   0  0  0  0  0  0  0  0  0  0  0  0
    6.2894   11.5282   26.7132 C   0  0  0  0  0  0  0  0  0  0  0  0
    5.5939   12.5419   27.3553 C   0  0  0  0  0  0  0  0  0  0  0  0
    6.1105   13.8368   27.4203 C   0  0  0  0  0  0  0  0  0  0  0  0
    7.3485   14.1668   26.8551 C   0  0  0  0  0  0  0  0  0  0  0  0
    8.0676   13.1608   26.2072 C   0  0  0  0  0  0  0  0  0  0  0  0
  1  2  1  0
  2  3  1  0
  3  4  1  0
  4  5  2  0
  5  6  1  0
  6  7  1  0
  7  8  1  0
  8  9  1  0
  9 10  1  0
 10 11  2  0
 10 12  1  0
 12 13  2  0
 13 14  1  0
 14 15  1  0
 16 15  1  1
 16 17  1  0
 17 18  1  0
 18 19  1  0
 19 20  2  0
 19 21  1  0
 14 22  1  0
 22 23  2  0
 23 24  1  0
 24 25  2  0
 25 26  1  0
 26 27  2  0
  6  2  2  0
 27 12  1  0
 21 16  1  0
 27 22  1  0
M  END
>  <energy_score>  (1537) 
-3.619421

>  <inchikey>  (1537) 
RQYODYAUANDZJE-UHFFFAOYSA-N

>  <smiles>  (1537) 
Cc1ocnc1CCNC(=O)c1nn(CC2CNC(=O)O2)c2ccccc12

>  <ref_pdb>  (1537) 
A0514a

>  <alias>  (1537) 
RQYODYAUANDZJE-UHFFFAOYSA-N-P126-P126-P183-601502

>  <HIPPO Pose ID>  (1537) 
503436

>  <name>  (1537) 
RQYODYAUANDZJE-UHFFFAOYSA-N-P126-P126-P183-601502

>  <HIPPO Compound ID>  (1537) 
289853

>  <ref_mols>  (1537) 
A2290a,A3436a

>  <distance_score>  (1537) 
1.838078

>  <inspiration_score>  (1537) 
None

$$$$
JWQLFZZVZJQGJI-UHFFFAOYSA-N-P126-P126-P183-601502
     RDKit          3D

 27 30  0  0  0  0  0  0  0  0999 V2000
    9.2111    8.8270   23.2679 C   0  0  0  0  0  0  0  0  0  0  0  0
    9.0203   10.0659   23.9835 N   0  0  0  0  0  0  0  0  0  0  0  0
    9.8466   11.0823   23.7026 N   0  0  0  0  0  0  0  0  0  0  0  0
    9.4519   12.0691   24.5305 C   0  0  0  0  0  0  0  0  0  0  0  0
   10.2169   13.3116   24.6107 C   0  0  0  0  0  0  0  0  0  0  0  0
   10.0558   14.1099   25.4402 O   0  0  0  0  0  0  0  0  0  0  0  0
   11.2007   13.2780   23.4504 N   0  0  0  0  0  0  0  0  0  0  0  0
   12.2538   14.1603   23.1110 C   0  0  0  0  0  0  0  0  0  0  0  0
   12.6443   14.0885   21.6663 C   0  0  0  0  0  0  0  0  0  0  0  0
   11.6389   14.5708   20.7318 C   0  0  0  0  0  0  0  0  0  0  0  0
   11.6654   14.4237   19.3730 C   0  0  0  0  0  0  0  0  0  0  0  0
   10.6409   15.1162   18.8710 O   0  0  0  0  0  0  0  0  0  0  0  0
   10.1037   15.7346   19.9457 C   0  0  0  0  0  0  0  0  0  0  0  0
    9.3095   16.8681   19.6118 C   0  0  0  0  0  0  0  0  0  0  0  0
    9.0644   17.1944   18.2875 C   0  0  0  0  0  0  0  0  0  0  0  0
    8.1857   18.1973   17.9963 C   0  0  0  0  0  0  0  0  0  0  0  0
    7.6581   18.9582   19.0143 C   0  0  0  0  0  0  0  0  0  0  0  0
    8.0656   18.7708   20.3033 C   0  0  0  0  0  0  0  0  0  0  0  0
    8.8152   17.6735   20.6135 C   0  0  0  0  0  0  0  0  0  0  0  0
   10.5933   15.3632   21.1072 N   0  0  0  0  0  0  0  0  0  0  0  0
    8.3207   11.7076   25.2826 C   0  0  0  0  0  0  0  0  0  0  0  0
    7.5066   12.3548   26.2291 C   0  0  0  0  0  0  0  0  0  0  0  0
    6.4836   11.6268   26.8301 C   0  0  0  0  0  0  0  0  0  0  0  0
    5.3739   12.4602   28.1141 Br  0  0  0  0  0  0  0  0  0  0  0  0
    6.2779   10.2892   26.5138 C   0  0  0  0  0  0  0  0  0  0  0  0
    7.0814    9.6473   25.5676 C   0  0  0  0  0  0  0  0  0  0  0  0
    8.0934   10.3770   24.9496 C   0  0  0  0  0  0  0  0  0  0  0  0
  1  2  1  0
  2  3  1  0
  3  4  2  0
  4  5  1  0
  5  6  2  0
  5  7  1  0
  7  8  1  0
  8  9  1  0
  9 10  1  0
 10 11  2  0
 11 12  1  0
 12 13  1  0
 13 14  1  0
 14 15  2  0
 15 16  1  0
 16 17  2  0
 17 18  1  0
 18 19  2  0
 13 20  2  0
  4 21  1  0
 21 22  2  0
 22 23  1  0
 23 24  1  0
 23 25  2  0
 25 26  1  0
 26 27  2  0
 27  2  1  0
 20 10  1  0
 27 21  1  0
 19 14  1  0
M  END
>  <energy_score>  (1538) 
-18.414278

>  <inchikey>  (1538) 
JWQLFZZVZJQGJI-UHFFFAOYSA-N

>  <smiles>  (1538) 
Cn1nc(C(=O)NCCc2coc(-c3ccccc3)n2)c2cc(Br)ccc21

>  <ref_pdb>  (1538) 
A0514a

>  <alias>  (1538) 
JWQLFZZVZJQGJI-UHFFFAOYSA-N-P126-P126-P183-601502

>  <HIPPO Pose ID>  (1538) 
503442

>  <name>  (1538) 
JWQLFZZVZJQGJI-UHFFFAOYSA-N-P126-P126-P183-601502

>  <HIPPO Compound ID>  (1538) 
289856

>  <ref_mols>  (1538) 
A2290a,A3436a

>  <distance_score>  (1538) 
0.960052

>  <inspiration_score>  (1538) 
None

$$$$
IMVBRVKIBFNTFN-UHFFFAOYSA-N-P126-P126-P183-601502
     RDKit          3D

 27 30  0  0  0  0  0  0  0  0999 V2000
   12.7999   13.3391   23.8592 C   0  0  0  0  0  0  0  0  0  0  0  0
   11.7263   14.1619   23.1615 C   0  0  1  0  0  0  0  0  0  0  0  0
   11.9377   14.1358   21.6414 C   0  0  0  0  0  0  0  0  0  0  0  0
   10.9141   14.8620   20.8520 C   0  0  0  0  0  0  0  0  0  0  0  0
   10.7654   14.9644   19.4887 C   0  0  0  0  0  0  0  0  0  0  0  0
    9.7909   15.8847   19.2343 O   0  0  0  0  0  0  0  0  0  0  0  0
    9.4015   16.2933   20.4676 C   0  0  0  0  0  0  0  0  0  0  0  0
    9.9841   15.6603   21.4560 N   0  0  0  0  0  0  0  0  0  0  0  0
   10.4971   13.5919   23.6295 N   0  0  0  0  0  0  0  0  0  0  0  0
    9.7226   13.8223   24.9395 C   0  0  0  0  0  0  0  0  0  0  0  0
    9.9199   14.5697   25.8136 O   0  0  0  0  0  0  0  0  0  0  0  0
    8.6658   12.8125   24.9779 C   0  0  0  0  0  0  0  0  0  0  0  0
    8.6746   11.8509   24.0431 N   0  0  0  0  0  0  0  0  0  0  0  0
    8.0372   10.8461   24.6380 N   0  0  0  0  0  0  0  0  0  0  0  0
    8.4164    9.4984   24.3067 C   0  0  0  0  0  0  0  0  0  0  0  0
    9.2647    9.4779   23.0614 C   0  0  2  0  0  0  0  0  0  0  0  0
    9.1459    8.1601   22.3805 C   0  0  0  0  0  0  0  0  0  0  0  0
   10.0049    7.4213   23.1810 N   0  0  0  0  0  0  0  0  0  0  0  0
   10.9891    8.2448   23.5735 C   0  0  0  0  0  0  0  0  0  0  0  0
   12.0312    7.8610   24.0282 O   0  0  0  0  0  0  0  0  0  0  0  0
   10.6276    9.5376   23.4448 O   0  0  0  0  0  0  0  0  0  0  0  0
    7.3134   11.2103   25.7282 C   0  0  0  0  0  0  0  0  0  0  0  0
    6.4402   10.4934   26.5446 C   0  0  0  0  0  0  0  0  0  0  0  0
    5.9374   11.1701   27.6516 C   0  0  0  0  0  0  0  0  0  0  0  0
    6.3221   12.4820   27.9348 C   0  0  0  0  0  0  0  0  0  0  0  0
    7.2259   13.1683   27.1191 C   0  0  0  0  0  0  0  0  0  0  0  0
    7.7111   12.5218   25.9788 C   0  0  0  0  0  0  0  0  0  0  0  0
  2  1  1  1
  2  3  1  0
  3  4  1  0
  4  5  2  0
  5  6  1  0
  6  7  1  0
  7  8  2  0
  2  9  1  0
  9 10  1  0
 10 11  2  0
 10 12  1  0
 12 13  2  0
 13 14  1  0
 14 15  1  0
 16 15  1  1
 16 17  1  0
 17 18  1  0
 18 19  1  0
 19 20  2  0
 19 21  1  0
 14 22  1  0
 22 23  2  0
 23 24  1  0
 24 25  2  0
 25 26  1  0
 26 27  2  0
  8  4  1  0
 27 12  1  0
 21 16  1  0
 27 22  1  0
M  END
>  <energy_score>  (1539) 
-24.284124

>  <inchikey>  (1539) 
IMVBRVKIBFNTFN-UHFFFAOYSA-N

>  <smiles>  (1539) 
CC(Cc1cocn1)NC(=O)c1nn(CC2CNC(=O)O2)c2ccccc12

>  <ref_pdb>  (1539) 
A0514a

>  <alias>  (1539) 
IMVBRVKIBFNTFN-UHFFFAOYSA-N-P126-P126-P183-601502

>  <HIPPO Pose ID>  (1539) 
503446

>  <name>  (1539) 
IMVBRVKIBFNTFN-UHFFFAOYSA-N-P126-P126-P183-601502

>  <HIPPO Compound ID>  (1539) 
289858

>  <ref_mols>  (1539) 
A2290a,A3436a

>  <distance_score>  (1539) 
1.449777

>  <inspiration_score>  (1539) 
None

$$$$
ATWVTYZZYXHEHG-UHFFFAOYSA-N-P183-P126-P183-601502
     RDKit          3D

 28 31  0  0  0  0  0  0  0  0999 V2000
   11.7875   14.5293   18.4473 C   0  0  0  0  0  0  0  0  0  0  0  0
   11.0374   14.9089   19.6096 C   0  0  0  0  0  0  0  0  0  0  0  0
    9.8540   15.4396   19.3260 O   0  0  0  0  0  0  0  0  0  0  0  0
    9.5562   16.1032   20.4601 C   0  0  0  0  0  0  0  0  0  0  0  0
    8.8370   17.2814   20.1647 C   0  0  0  0  0  0  0  0  0  0  0  0
    8.3661   17.4683   18.8850 C   0  0  0  0  0  0  0  0  0  0  0  0
    7.6211   18.5418   18.5062 C   0  0  0  0  0  0  0  0  0  0  0  0
    7.5080   19.5280   19.3616 C   0  0  0  0  0  0  0  0  0  0  0  0
    8.2032   19.4668   20.5187 C   0  0  0  0  0  0  0  0  0  0  0  0
    8.7971   18.3392   20.9900 C   0  0  0  0  0  0  0  0  0  0  0  0
   10.2487   15.7532   21.5117 N   0  0  0  0  0  0  0  0  0  0  0  0
   11.2388   14.9999   20.9565 C   0  0  0  0  0  0  0  0  0  0  0  0
   12.3773   14.5236   21.7332 C   0  0  0  0  0  0  0  0  0  0  0  0
   12.0922   14.4177   23.2109 C   0  0  0  0  0  0  0  0  0  0  0  0
   11.0137   13.5266   23.4643 N   0  0  0  0  0  0  0  0  0  0  0  0
    9.9131   13.5792   24.5118 C   0  0  0  0  0  0  0  0  0  0  0  0
    9.6566   14.3978   25.2952 O   0  0  0  0  0  0  0  0  0  0  0  0
    9.1825   12.3168   24.4227 C   0  0  0  0  0  0  0  0  0  0  0  0
    9.6456   11.2997   23.6704 N   0  0  0  0  0  0  0  0  0  0  0  0
    8.8976   10.2508   24.0445 N   0  0  0  0  0  0  0  0  0  0  0  0
    9.2472    8.9539   23.5109 C   0  0  0  0  0  0  0  0  0  0  0  0
    7.9300   10.5803   24.9680 C   0  0  0  0  0  0  0  0  0  0  0  0
    6.9680    9.8387   25.6572 C   0  0  0  0  0  0  0  0  0  0  0  0
    6.1148   10.5064   26.5392 C   0  0  0  0  0  0  0  0  0  0  0  0
    6.2115   11.8776   26.7104 C   0  0  0  0  0  0  0  0  0  0  0  0
    5.3872   12.4874   27.5727 F   0  0  0  0  0  0  0  0  0  0  0  0
    7.1644   12.6233   26.0309 C   0  0  0  0  0  0  0  0  0  0  0  0
    8.0408   11.9527   25.1592 C   0  0  0  0  0  0  0  0  0  0  0  0
  1  2  1  0
  2  3  1  0
  3  4  1  0
  4  5  1  0
  5  6  2  0
  6  7  1  0
  7  8  2  0
  8  9  1  0
  9 10  2  0
  4 11  2  0
 11 12  1  0
 12 13  1  0
 13 14  1  0
 14 15  1  0
 15 16  1  0
 16 17  2  0
 16 18  1  0
 18 19  2  0
 19 20  1  0
 20 21  1  0
 20 22  1  0
 22 23  2  0
 23 24  1  0
 24 25  2  0
 25 26  1  0
 25 27  1  0
 27 28  2  0
 12  2  2  0
 28 18  1  0
 10  5  1  0
 28 22  1  0
M  END
>  <energy_score>  (1540) 
-0.807712

>  <inchikey>  (1540) 
ATWVTYZZYXHEHG-UHFFFAOYSA-N

>  <smiles>  (1540) 
Cc1oc(-c2ccccc2)nc1CCNC(=O)c1nn(C)c2ccc(F)cc12

>  <ref_pdb>  (1540) 
A0514a

>  <alias>  (1540) 
ATWVTYZZYXHEHG-UHFFFAOYSA-N-P183-P126-P183-601502

>  <HIPPO Pose ID>  (1540) 
503453

>  <name>  (1540) 
ATWVTYZZYXHEHG-UHFFFAOYSA-N-P183-P126-P183-601502

>  <HIPPO Compound ID>  (1540) 
289861

>  <ref_mols>  (1540) 
A2290a,A3436a

>  <distance_score>  (1540) 
0.851283

>  <inspiration_score>  (1540) 
None

$$$$
JNAGOACLKSWBJD-UHFFFAOYSA-N-P126-P126-P183-601502
     RDKit          3D

 28 31  0  0  0  0  0  0  0  0999 V2000
    9.1964    8.8285   23.2747 C   0  0  0  0  0  0  0  0  0  0  0  0
    8.9990   10.0716   23.9811 N   0  0  0  0  0  0  0  0  0  0  0  0
    9.8196   11.0897   23.6909 N   0  0  0  0  0  0  0  0  0  0  0  0
    9.4341   12.0750   24.5247 C   0  0  0  0  0  0  0  0  0  0  0  0
   10.2166   13.3057   24.6207 C   0  0  0  0  0  0  0  0  0  0  0  0
   10.0375   14.1150   25.4358 O   0  0  0  0  0  0  0  0  0  0  0  0
   11.2772   13.2178   23.5326 N   0  0  0  0  0  0  0  0  0  0  0  0
   12.2811   14.1382   23.1500 C   0  0  0  0  0  0  0  0  0  0  0  0
   12.6543   14.0599   21.7024 C   0  0  0  0  0  0  0  0  0  0  0  0
   11.6501   14.5449   20.7701 C   0  0  0  0  0  0  0  0  0  0  0  0
   11.6894   14.4042   19.4108 C   0  0  0  0  0  0  0  0  0  0  0  0
   10.6654   15.0913   18.9031 O   0  0  0  0  0  0  0  0  0  0  0  0
   10.1211   15.7065   19.9768 C   0  0  0  0  0  0  0  0  0  0  0  0
    9.3326   16.8416   19.6354 C   0  0  0  0  0  0  0  0  0  0  0  0
    9.1093   17.1630   18.3049 C   0  0  0  0  0  0  0  0  0  0  0  0
    8.2317   18.1570   17.9975 C   0  0  0  0  0  0  0  0  0  0  0  0
    7.7040   18.9137   19.0121 C   0  0  0  0  0  0  0  0  0  0  0  0
    6.7854   19.8191   18.7212 F   0  0  0  0  0  0  0  0  0  0  0  0
    8.0825   18.7499   20.3071 C   0  0  0  0  0  0  0  0  0  0  0  0
    8.8268   17.6531   20.6294 C   0  0  0  0  0  0  0  0  0  0  0  0
   10.6017   15.3346   21.1414 N   0  0  0  0  0  0  0  0  0  0  0  0
    8.3034   11.7171   25.2790 C   0  0  0  0  0  0  0  0  0  0  0  0
    7.4992   12.3625   26.2334 C   0  0  0  0  0  0  0  0  0  0  0  0
    6.4861   11.6320   26.8391 C   0  0  0  0  0  0  0  0  0  0  0  0
    5.7178   12.2173   27.7677 F   0  0  0  0  0  0  0  0  0  0  0  0
    6.2716   10.2985   26.5267 C   0  0  0  0  0  0  0  0  0  0  0  0
    7.0647    9.6546   25.5741 C   0  0  0  0  0  0  0  0  0  0  0  0
    8.0738   10.3848   24.9489 C   0  0  0  0  0  0  0  0  0  0  0  0
  1  2  1  0
  2  3  1  0
  3  4  2  0
  4  5  1  0
  5  6  2  0
  5  7  1  0
  7  8  1  0
  8  9  1  0
  9 10  1  0
 10 11  2  0
 11 12  1  0
 12 13  1  0
 13 14  1  0
 14 15  2  0
 15 16  1  0
 16 17  2  0
 17 18  1  0
 17 19  1  0
 19 20  2  0
 13 21  2  0
  4 22  1  0
 22 23  2  0
 23 24  1  0
 24 25  1  0
 24 26  2  0
 26 27  1  0
 27 28  2  0
 28  2  1  0
 21 10  1  0
 28 22  1  0
 20 14  1  0
M  END
>  <energy_score>  (1541) 
-0.652919

>  <inchikey>  (1541) 
JNAGOACLKSWBJD-UHFFFAOYSA-N

>  <smiles>  (1541) 
Cn1nc(C(=O)NCCc2coc(-c3ccc(F)cc3)n2)c2cc(F)ccc21

>  <ref_pdb>  (1541) 
A0514a

>  <alias>  (1541) 
JNAGOACLKSWBJD-UHFFFAOYSA-N-P126-P126-P183-601502

>  <HIPPO Pose ID>  (1541) 
503454

>  <name>  (1541) 
JNAGOACLKSWBJD-UHFFFAOYSA-N-P126-P126-P183-601502

>  <HIPPO Compound ID>  (1541) 
289862

>  <ref_mols>  (1541) 
A2290a,A3436a

>  <distance_score>  (1541) 
0.981433

>  <inspiration_score>  (1541) 
None

$$$$
OYDVKSICLADJQR-UHFFFAOYSA-N-P126-P126-P183-601502
     RDKit          3D

 28 31  0  0  0  0  0  0  0  0999 V2000
    9.2068    8.8257   23.2684 C   0  0  0  0  0  0  0  0  0  0  0  0
    9.0125   10.0662   23.9802 N   0  0  0  0  0  0  0  0  0  0  0  0
    9.8421   11.0803   23.7024 N   0  0  0  0  0  0  0  0  0  0  0  0
    9.4427   12.0703   24.5246 C   0  0  0  0  0  0  0  0  0  0  0  0
   10.2251   13.3007   24.6236 C   0  0  0  0  0  0  0  0  0  0  0  0
   10.0666   14.0939   25.4586 O   0  0  0  0  0  0  0  0  0  0  0  0
   11.2705   13.2239   23.5203 N   0  0  0  0  0  0  0  0  0  0  0  0
   12.2805   14.1397   23.1453 C   0  0  0  0  0  0  0  0  0  0  0  0
   12.6543   14.0635   21.6980 C   0  0  0  0  0  0  0  0  0  0  0  0
   11.6497   14.5485   20.7667 C   0  0  0  0  0  0  0  0  0  0  0  0
   11.6862   14.4054   19.4075 C   0  0  0  0  0  0  0  0  0  0  0  0
   10.6617   15.0925   18.9009 O   0  0  0  0  0  0  0  0  0  0  0  0
   10.1202   15.7097   19.9746 C   0  0  0  0  0  0  0  0  0  0  0  0
    9.3313   16.8442   19.6336 C   0  0  0  0  0  0  0  0  0  0  0  0
    9.1075   17.1651   18.3031 C   0  0  0  0  0  0  0  0  0  0  0  0
    8.2296   18.1588   17.9963 C   0  0  0  0  0  0  0  0  0  0  0  0
    7.7023   18.9152   19.0114 C   0  0  0  0  0  0  0  0  0  0  0  0
    6.7839   19.8208   18.7208 F   0  0  0  0  0  0  0  0  0  0  0  0
    8.0813   18.7517   20.3063 C   0  0  0  0  0  0  0  0  0  0  0  0
    8.8260   17.6553   20.6282 C   0  0  0  0  0  0  0  0  0  0  0  0
   10.6038   15.3410   21.1388 N   0  0  0  0  0  0  0  0  0  0  0  0
    8.3076   11.7120   25.2719 C   0  0  0  0  0  0  0  0  0  0  0  0
    7.4941   12.3598   26.2184 C   0  0  0  0  0  0  0  0  0  0  0  0
    6.4734   11.6313   26.8226 C   0  0  0  0  0  0  0  0  0  0  0  0
    5.3644   12.4653   28.1068 Br  0  0  0  0  0  0  0  0  0  0  0  0
    6.2701   10.2923   26.5104 C   0  0  0  0  0  0  0  0  0  0  0  0
    7.0740    9.6493   25.5653 C   0  0  0  0  0  0  0  0  0  0  0  0
    8.0836   10.3794   24.9439 C   0  0  0  0  0  0  0  0  0  0  0  0
  1  2  1  0
  2  3  1  0
  3  4  2  0
  4  5  1  0
  5  6  2  0
  5  7  1  0
  7  8  1  0
  8  9  1  0
  9 10  1  0
 10 11  2  0
 11 12  1  0
 12 13  1  0
 13 14  1  0
 14 15  2  0
 15 16  1  0
 16 17  2  0
 17 18  1  0
 17 19  1  0
 19 20  2  0
 13 21  2  0
  4 22  1  0
 22 23  2  0
 23 24  1  0
 24 25  1  0
 24 26  2  0
 26 27  1  0
 27 28  2  0
 28  2  1  0
 21 10  1  0
 28 22  1  0
 20 14  1  0
M  END
>  <energy_score>  (1542) 
-0.477967

>  <inchikey>  (1542) 
OYDVKSICLADJQR-UHFFFAOYSA-N

>  <smiles>  (1542) 
Cn1nc(C(=O)NCCc2coc(-c3ccc(F)cc3)n2)c2cc(Br)ccc21

>  <ref_pdb>  (1542) 
A0514a

>  <alias>  (1542) 
OYDVKSICLADJQR-UHFFFAOYSA-N-P126-P126-P183-601502

>  <HIPPO Pose ID>  (1542) 
503456

>  <name>  (1542) 
OYDVKSICLADJQR-UHFFFAOYSA-N-P126-P126-P183-601502

>  <HIPPO Compound ID>  (1542) 
289863

>  <ref_mols>  (1542) 
A2290a,A3436a

>  <distance_score>  (1542) 
0.978139

>  <inspiration_score>  (1542) 
None

$$$$
KMUFPHPBOXOVEH-UHFFFAOYSA-N-P126-P126-P183-601502
     RDKit          3D

 28 31  0  0  0  0  0  0  0  0999 V2000
    8.5999   17.3829   20.6674 C   0  0  0  0  0  0  0  0  0  0  0  0
    9.5441   16.2604   20.5594 C   0  0  0  0  0  0  0  0  0  0  0  0
   10.1411   15.6139   21.5373 N   0  0  0  0  0  0  0  0  0  0  0  0
   11.0868   14.8617   20.9151 C   0  0  0  0  0  0  0  0  0  0  0  0
   12.2043   14.2139   21.6333 C   0  0  0  0  0  0  0  0  0  0  0  0
   12.0771   14.3087   23.1374 C   0  0  0  0  0  0  0  0  0  0  0  0
   10.9458   13.6062   23.6408 N   0  0  0  0  0  0  0  0  0  0  0  0
   10.1395   13.8074   24.9324 C   0  0  0  0  0  0  0  0  0  0  0  0
   10.3172   14.5303   25.8301 O   0  0  0  0  0  0  0  0  0  0  0  0
    9.0753   12.8055   24.8829 C   0  0  0  0  0  0  0  0  0  0  0  0
    9.1273   11.8984   23.8937 N   0  0  0  0  0  0  0  0  0  0  0  0
    8.4261   10.8858   24.3757 N   0  0  0  0  0  0  0  0  0  0  0  0
    8.9566    9.5648   24.1852 C   0  0  0  0  0  0  0  0  0  0  0  0
   10.0894    9.4732   23.1544 C   0  0  1  0  0  0  0  0  0  0  0  0
   10.9936    8.3083   23.3820 C   0  0  0  0  0  0  0  0  0  0  0  0
   10.0492    7.2928   23.2751 N   0  0  0  0  0  0  0  0  0  0  0  0
    9.2220    7.6950   22.2611 C   0  0  0  0  0  0  0  0  0  0  0  0
    8.4210    6.9704   21.7242 O   0  0  0  0  0  0  0  0  0  0  0  0
    9.4835    8.9984   21.9814 O   0  0  0  0  0  0  0  0  0  0  0  0
    7.6145   11.2220   25.4236 C   0  0  0  0  0  0  0  0  0  0  0  0
    6.6723   10.4844   26.1439 C   0  0  0  0  0  0  0  0  0  0  0  0
    6.0831   11.1232   27.2319 C   0  0  0  0  0  0  0  0  0  0  0  0
    6.4539   12.4189   27.5955 C   0  0  0  0  0  0  0  0  0  0  0  0
    7.4372   13.1199   26.8893 C   0  0  0  0  0  0  0  0  0  0  0  0
    8.0194   12.5082   25.7737 C   0  0  0  0  0  0  0  0  0  0  0  0
   10.9183   14.9677   19.5631 C   0  0  0  0  0  0  0  0  0  0  0  0
   11.7187   14.4670   18.4578 C   0  0  0  0  0  0  0  0  0  0  0  0
    9.9127   15.8532   19.3113 O   0  0  0  0  0  0  0  0  0  0  0  0
  1  2  1  0
  2  3  2  0
  3  4  1  0
  4  5  1  0
  5  6  1  0
  6  7  1  0
  7  8  1  0
  8  9  2  0
  8 10  1  0
 10 11  2  0
 11 12  1  0
 12 13  1  0
 14 13  1  1
 14 15  1  0
 15 16  1  0
 16 17  1  0
 17 18  2  0
 17 19  1  0
 12 20  1  0
 20 21  2  0
 21 22  1  0
 22 23  2  0
 23 24  1  0
 24 25  2  0
  4 26  2  0
 26 27  1  0
 26 28  1  0
 28  2  1  0
 25 10  1  0
 19 14  1  0
 25 20  1  0
M  END
>  <energy_score>  (1543) 
-15.778055

>  <inchikey>  (1543) 
KMUFPHPBOXOVEH-UHFFFAOYSA-N

>  <smiles>  (1543) 
Cc1nc(CCNC(=O)c2nn(CC3CNC(=O)O3)c3ccccc23)c(C)o1

>  <ref_pdb>  (1543) 
A0514a

>  <alias>  (1543) 
KMUFPHPBOXOVEH-UHFFFAOYSA-N-P126-P126-P183-601502

>  <HIPPO Pose ID>  (1543) 
503460

>  <name>  (1543) 
KMUFPHPBOXOVEH-UHFFFAOYSA-N-P126-P126-P183-601502

>  <HIPPO Compound ID>  (1543) 
289865

>  <ref_mols>  (1543) 
A2290a,A3436a

>  <distance_score>  (1543) 
1.240093

>  <inspiration_score>  (1543) 
None

$$$$
QAFFVBNCZZHNSX-UHFFFAOYSA-N-P126-P126-P183-601502
     RDKit          3D

 28 30  0  0  0  0  0  0  0  0999 V2000
    3.5761   12.3969   29.0407 C   0  0  0  0  0  0  0  0  0  0  0  0
    4.4210   11.7617   28.0801 O   0  0  0  0  0  0  0  0  0  0  0  0
    5.5973   12.4076   27.8791 C   0  0  0  0  0  0  0  0  0  0  0  0
    5.9696   13.4252   28.4394 O   0  0  0  0  0  0  0  0  0  0  0  0
    6.3987   11.7005   26.8530 C   0  0  0  0  0  0  0  0  0  0  0  0
    6.2912   10.3221   26.6645 C   0  0  0  0  0  0  0  0  0  0  0  0
    7.0797    9.6651   25.7164 C   0  0  0  0  0  0  0  0  0  0  0  0
    7.9751   10.4140   24.9586 C   0  0  0  0  0  0  0  0  0  0  0  0
    8.0714   11.7894   25.1082 C   0  0  0  0  0  0  0  0  0  0  0  0
    7.2973   12.4486   26.0814 C   0  0  0  0  0  0  0  0  0  0  0  0
    9.0000   12.1839   24.1242 C   0  0  0  0  0  0  0  0  0  0  0  0
    9.4726   13.5369   23.8614 C   0  0  0  0  0  0  0  0  0  0  0  0
    9.3074   14.3979   24.6235 O   0  0  0  0  0  0  0  0  0  0  0  0
   10.2430   13.5148   22.5449 N   0  0  0  0  0  0  0  0  0  0  0  0
   11.0614   14.5240   21.9212 C   0  0  2  0  0  0  0  0  0  0  0  0
   10.7868   14.6487   20.4307 C   0  0  0  0  0  0  0  0  0  0  0  0
    9.9383   15.8143   20.0888 C   0  0  0  0  0  0  0  0  0  0  0  0
    9.8613   16.5226   18.9136 C   0  0  0  0  0  0  0  0  0  0  0  0
    9.0476   17.5925   19.1059 O   0  0  0  0  0  0  0  0  0  0  0  0
    8.6860   17.4860   20.4122 C   0  0  0  0  0  0  0  0  0  0  0  0
    9.1253   16.4049   21.0168 N   0  0  0  0  0  0  0  0  0  0  0  0
   12.5282   14.2424   22.1446 C   0  0  0  0  0  0  0  0  0  0  0  0
   13.4015   15.0125   21.7741 O   0  0  0  0  0  0  0  0  0  0  0  0
   12.8153   13.0504   22.7286 O   0  0  0  0  0  0  0  0  0  0  0  0
   12.6423   12.9909   24.1401 C   0  0  0  0  0  0  0  0  0  0  0  0
    9.4811   11.1386   23.4254 N   0  0  0  0  0  0  0  0  0  0  0  0
    8.8797   10.0787   23.9811 N   0  0  0  0  0  0  0  0  0  0  0  0
    9.2655    8.7610   23.5430 C   0  0  0  0  0  0  0  0  0  0  0  0
  1  2  1  0
  2  3  1  0
  3  4  2  0
  3  5  1  0
  5  6  2  0
  6  7  1  0
  7  8  2  0
  8  9  1  0
  9 10  2  0
  9 11  1  0
 11 12  1  0
 12 13  2  0
 12 14  1  0
 14 15  1  0
 15 16  1  6
 16 17  1  0
 17 18  2  0
 18 19  1  0
 19 20  1  0
 20 21  2  0
 15 22  1  0
 22 23  2  0
 22 24  1  0
 24 25  1  0
 11 26  2  0
 26 27  1  0
 27 28  1  0
 10  5  1  0
 21 17  1  0
 27  8  1  0
M  END
>  <energy_score>  (1544) 
-21.106384

>  <inchikey>  (1544) 
QAFFVBNCZZHNSX-UHFFFAOYSA-N

>  <smiles>  (1544) 
COC(=O)c1ccc2c(c1)c(C(=O)NC(Cc1cocn1)C(=O)OC)nn2C

>  <ref_pdb>  (1544) 
A0514a

>  <alias>  (1544) 
QAFFVBNCZZHNSX-UHFFFAOYSA-N-P126-P126-P183-601502

>  <HIPPO Pose ID>  (1544) 
503470

>  <name>  (1544) 
QAFFVBNCZZHNSX-UHFFFAOYSA-N-P126-P126-P183-601502

>  <HIPPO Compound ID>  (1544) 
289870

>  <ref_mols>  (1544) 
A2290a,A3436a

>  <distance_score>  (1544) 
1.01565

>  <inspiration_score>  (1544) 
None

$$$$
MGNDDFCFMJSPLL-UHFFFAOYSA-N-P183-P126-P183-601502
     RDKit          3D

 29 32  0  0  0  0  0  0  0  0999 V2000
    9.3269    8.9308   23.4241 C   0  0  0  0  0  0  0  0  0  0  0  0
    9.0277   10.2481   23.9389 N   0  0  0  0  0  0  0  0  0  0  0  0
    9.7861   11.2700   23.5179 N   0  0  0  0  0  0  0  0  0  0  0  0
    9.3568   12.3248   24.2337 C   0  0  0  0  0  0  0  0  0  0  0  0
   10.0967   13.5899   24.2226 C   0  0  0  0  0  0  0  0  0  0  0  0
    9.9805   14.3813   25.0658 O   0  0  0  0  0  0  0  0  0  0  0  0
   10.9868   13.5857   22.9882 N   0  0  0  0  0  0  0  0  0  0  0  0
   11.9959   14.5053   22.5672 C   0  0  0  0  0  0  0  0  0  0  0  0
   12.3783   14.2740   21.1185 C   0  0  0  0  0  0  0  0  0  0  0  0
   11.3501   14.5923   20.1361 C   0  0  0  0  0  0  0  0  0  0  0  0
   11.4597   14.7999   18.7858 C   0  0  0  0  0  0  0  0  0  0  0  0
   10.3528   15.4763   18.4006 O   0  0  0  0  0  0  0  0  0  0  0  0
    9.6523   15.5719   19.5471 C   0  0  0  0  0  0  0  0  0  0  0  0
    9.0249   16.8240   19.7482 C   0  0  0  0  0  0  0  0  0  0  0  0
    8.3242   17.5433   18.8071 C   0  0  0  0  0  0  0  0  0  0  0  0
    7.7957   18.7802   19.0445 C   0  0  0  0  0  0  0  0  0  0  0  0
    8.1014   19.3264   20.2397 C   0  0  0  0  0  0  0  0  0  0  0  0
    8.8490   18.6345   21.1589 C   0  0  0  0  0  0  0  0  0  0  0  0
    9.2621   17.3684   20.9552 C   0  0  0  0  0  0  0  0  0  0  0  0
   10.0786   14.8202   20.5297 N   0  0  0  0  0  0  0  0  0  0  0  0
    8.2155   12.0036   25.0000 C   0  0  0  0  0  0  0  0  0  0  0  0
    7.3392   12.7244   25.8335 C   0  0  0  0  0  0  0  0  0  0  0  0
    6.3512   12.0121   26.5226 C   0  0  0  0  0  0  0  0  0  0  0  0
    5.4172   12.7311   27.3885 N   0  0  0  0  0  0  0  0  0  0  0  0
    4.3239   12.1933   27.6227 O   0  0  0  0  0  0  0  0  0  0  0  0
    5.7945   13.8087   27.8678 O   0  0  0  0  0  0  0  0  0  0  0  0
    6.2468   10.6236   26.4181 C   0  0  0  0  0  0  0  0  0  0  0  0
    7.1117    9.9149   25.5815 C   0  0  0  0  0  0  0  0  0  0  0  0
    8.0762   10.6256   24.8611 C   0  0  0  0  0  0  0  0  0  0  0  0
  1  2  1  0
  2  3  1  0
  3  4  2  0
  4  5  1  0
  5  6  2  0
  5  7  1  0
  7  8  1  0
  8  9  1  0
  9 10  1  0
 10 11  2  0
 11 12  1  0
 12 13  1  0
 13 14  1  0
 14 15  2  0
 15 16  1  0
 16 17  2  0
 17 18  1  0
 18 19  2  0
 13 20  2  0
  4 21  1  0
 21 22  2  0
 22 23  1  0
 23 24  1  0
 24 25  2  0
 24 26  1  0
 23 27  2  0
 27 28  1  0
 28 29  2  0
 29  2  1  0
 20 10  1  0
 29 21  1  0
 19 14  1  0
M  CHG  2  24   1  26  -1
M  END
>  <energy_score>  (1545) 
-6.256166

>  <inchikey>  (1545) 
MGNDDFCFMJSPLL-UHFFFAOYSA-N

>  <smiles>  (1545) 
Cn1nc(C(=O)NCCc2coc(-c3ccccc3)n2)c2cc([N+](=O)[O-])ccc21

>  <ref_pdb>  (1545) 
A0514a

>  <alias>  (1545) 
MGNDDFCFMJSPLL-UHFFFAOYSA-N-P183-P126-P183-601502

>  <HIPPO Pose ID>  (1545) 
503477

>  <name>  (1545) 
MGNDDFCFMJSPLL-UHFFFAOYSA-N-P183-P126-P183-601502

>  <HIPPO Compound ID>  (1545) 
289873

>  <ref_mols>  (1545) 
A2290a,A3436a

>  <distance_score>  (1545) 
0.880924

>  <inspiration_score>  (1545) 
None

$$$$
VHOUMAQIVBBOSM-UHFFFAOYSA-N-P126-P126-P183-601502
     RDKit          3D

 29 32  0  0  0  0  0  0  0  0999 V2000
    8.6396   17.3572   20.7067 C   0  0  0  0  0  0  0  0  0  0  0  0
    9.5727   16.2243   20.5875 C   0  0  0  0  0  0  0  0  0  0  0  0
   10.1832   15.5623   21.5489 N   0  0  0  0  0  0  0  0  0  0  0  0
   11.0472   14.7321   20.8895 C   0  0  0  0  0  0  0  0  0  0  0  0
   12.1032   13.9851   21.6100 C   0  0  0  0  0  0  0  0  0  0  0  0
   11.9826   13.9686   23.1296 C   0  0  0  0  0  0  0  0  0  0  0  0
   10.8498   13.3020   23.7255 N   0  0  0  0  0  0  0  0  0  0  0  0
   10.2022   11.9450   23.3976 C   0  0  0  0  0  0  0  0  0  0  0  0
   10.5259   11.1169   22.6476 O   0  0  0  0  0  0  0  0  0  0  0  0
    9.0153   11.7133   24.2607 C   0  0  0  0  0  0  0  0  0  0  0  0
    8.6893   10.4714   24.6573 N   0  0  0  0  0  0  0  0  0  0  0  0
    7.5311   10.6146   25.3377 N   0  0  0  0  0  0  0  0  0  0  0  0
    6.8802    9.3852   25.7627 C   0  0  0  0  0  0  0  0  0  0  0  0
    5.5859    9.3484   26.5900 C   0  0  0  0  0  0  0  0  0  0  0  0
    4.4994    8.6128   26.0552 C   0  0  0  0  0  0  0  0  0  0  0  0
    3.3289    8.3410   26.7732 C   0  0  0  0  0  0  0  0  0  0  0  0
    3.1951    8.8250   28.0601 C   0  0  0  0  0  0  0  0  0  0  0  0
    1.7449    8.5444   28.9357 Cl  0  0  0  0  0  0  0  0  0  0  0  0
    4.2370    9.5344   28.6386 C   0  0  0  0  0  0  0  0  0  0  0  0
    5.4286    9.7654   27.9259 C   0  0  0  0  0  0  0  0  0  0  0  0
    6.6463   10.5787   28.8253 Cl  0  0  0  0  0  0  0  0  0  0  0  0
    7.1633   11.9077   25.5155 C   0  0  0  0  0  0  0  0  0  0  0  0
    6.0812   12.5031   26.1641 C   0  0  0  0  0  0  0  0  0  0  0  0
    5.9607   13.8829   26.1188 C   0  0  0  0  0  0  0  0  0  0  0  0
    6.8485   14.6443   25.3794 C   0  0  0  0  0  0  0  0  0  0  0  0
    7.8925   14.0398   24.6821 C   0  0  0  0  0  0  0  0  0  0  0  0
    8.0869   12.6529   24.7862 C   0  0  0  0  0  0  0  0  0  0  0  0
   10.8352   14.8502   19.5355 C   0  0  0  0  0  0  0  0  0  0  0  0
    9.8759   15.7956   19.3324 O   0  0  0  0  0  0  0  0  0  0  0  0
  1  2  1  0
  2  3  2  0
  3  4  1  0
  4  5  1  0
  5  6  1  0
  6  7  1  0
  7  8  1  0
  8  9  2  0
  8 10  1  0
 10 11  2  0
 11 12  1  0
 12 13  1  0
 13 14  1  0
 14 15  2  0
 15 16  1  0
 16 17  2  0
 17 18  1  0
 17 19  1  0
 19 20  2  0
 20 21  1  0
 12 22  1  0
 22 23  2  0
 23 24  1  0
 24 25  2  0
 25 26  1  0
 26 27  2  0
  4 28  2  0
 28 29  1  0
 29  2  1  0
 27 10  1  0
 20 14  1  0
 27 22  1  0
M  END
>  <energy_score>  (1546) 
-11.668992

>  <inchikey>  (1546) 
VHOUMAQIVBBOSM-UHFFFAOYSA-N

>  <smiles>  (1546) 
Cc1nc(CCNC(=O)c2nn(Cc3ccc(Cl)cc3Cl)c3ccccc23)co1

>  <ref_pdb>  (1546) 
A0514a

>  <alias>  (1546) 
VHOUMAQIVBBOSM-UHFFFAOYSA-N-P126-P126-P183-601502

>  <HIPPO Pose ID>  (1546) 
503482

>  <name>  (1546) 
VHOUMAQIVBBOSM-UHFFFAOYSA-N-P126-P126-P183-601502

>  <HIPPO Compound ID>  (1546) 
289876

>  <ref_mols>  (1546) 
A2290a,A3436a

>  <distance_score>  (1546) 
1.972129

>  <inspiration_score>  (1546) 
None

$$$$
WMPMKDVSPIZPCW-UHFFFAOYSA-N-P126-P126-P183-601502
     RDKit          3D

 29 32  0  0  0  0  0  0  0  0999 V2000
   10.2056   14.1031   25.3941 O   0  0  0  0  0  0  0  0  0  0  0  0
   10.3655   13.3212   24.5487 C   0  0  0  0  0  0  0  0  0  0  0  0
   11.3844   13.2831   23.4180 N   0  0  0  0  0  0  0  0  0  0  0  0
   12.3570   14.2298   23.0253 C   0  0  0  0  0  0  0  0  0  0  0  0
   12.6881   14.1464   21.5687 C   0  0  0  0  0  0  0  0  0  0  0  0
   11.6365   14.5927   20.6731 C   0  0  0  0  0  0  0  0  0  0  0  0
   11.6235   14.4343   19.3158 C   0  0  0  0  0  0  0  0  0  0  0  0
   10.5803   15.1172   18.8444 O   0  0  0  0  0  0  0  0  0  0  0  0
   10.0796   15.7446   19.9290 C   0  0  0  0  0  0  0  0  0  0  0  0
    9.2930   16.8841   19.6053 C   0  0  0  0  0  0  0  0  0  0  0  0
    9.0450   17.2115   18.2812 C   0  0  0  0  0  0  0  0  0  0  0  0
    8.1680   18.2153   17.9959 C   0  0  0  0  0  0  0  0  0  0  0  0
    7.6455   18.9733   19.0184 C   0  0  0  0  0  0  0  0  0  0  0  0
    8.0589   18.7849   20.3056 C   0  0  0  0  0  0  0  0  0  0  0  0
    8.8081   17.6876   20.6122 C   0  0  0  0  0  0  0  0  0  0  0  0
   10.5951   15.3751   21.0789 N   0  0  0  0  0  0  0  0  0  0  0  0
    9.6256   12.0662   24.4453 C   0  0  0  0  0  0  0  0  0  0  0  0
   10.0776   11.1064   23.6186 N   0  0  0  0  0  0  0  0  0  0  0  0
    9.2823   10.0405   23.8539 N   0  0  0  0  0  0  0  0  0  0  0  0
    9.4869    8.8146   23.0644 C   0  0  0  0  0  0  0  0  0  0  0  0
    9.9527    9.0936   21.8231 F   0  0  0  0  0  0  0  0  0  0  0  0
    8.3370    8.1324   22.9245 F   0  0  0  0  0  0  0  0  0  0  0  0
   10.3886    7.9690   23.6091 F   0  0  0  0  0  0  0  0  0  0  0  0
    8.3236   10.3182   24.8130 C   0  0  0  0  0  0  0  0  0  0  0  0
    7.3286    9.5523   25.4159 C   0  0  0  0  0  0  0  0  0  0  0  0
    6.4820   10.1598   26.3491 C   0  0  0  0  0  0  0  0  0  0  0  0
    6.6231   11.5024   26.6781 C   0  0  0  0  0  0  0  0  0  0  0  0
    7.6333   12.2635   26.0949 C   0  0  0  0  0  0  0  0  0  0  0  0
    8.4924   11.6557   25.1623 C   0  0  0  0  0  0  0  0  0  0  0  0
  1  2  2  0
  2  3  1  0
  3  4  1  0
  4  5  1  0
  5  6  1  0
  6  7  2  0
  7  8  1  0
  8  9  1  0
  9 10  1  0
 10 11  2  0
 11 12  1  0
 12 13  2  0
 13 14  1  0
 14 15  2  0
  9 16  2  0
  2 17  1  0
 17 18  2  0
 18 19  1  0
 19 20  1  0
 20 21  1  0
 20 22  1  0
 20 23  1  0
 19 24  1  0
 24 25  2  0
 25 26  1  0
 26 27  2  0
 27 28  1  0
 28 29  2  0
 16  6  1  0
 29 17  1  0
 15 10  1  0
 29 24  1  0
M  END
>  <energy_score>  (1547) 
-16.493409

>  <inchikey>  (1547) 
WMPMKDVSPIZPCW-UHFFFAOYSA-N

>  <smiles>  (1547) 
O=C(NCCc1coc(-c2ccccc2)n1)c1nn(C(F)(F)F)c2ccccc12

>  <ref_pdb>  (1547) 
A0514a

>  <alias>  (1547) 
WMPMKDVSPIZPCW-UHFFFAOYSA-N-P126-P126-P183-601502

>  <HIPPO Pose ID>  (1547) 
503488

>  <name>  (1547) 
WMPMKDVSPIZPCW-UHFFFAOYSA-N-P126-P126-P183-601502

>  <HIPPO Compound ID>  (1547) 
289879

>  <ref_mols>  (1547) 
A2290a,A3436a

>  <distance_score>  (1547) 
0.905136

>  <inspiration_score>  (1547) 
None

$$$$
GMVALWIXUGOHHG-UHFFFAOYSA-N-P126-P126-P183-601502
     RDKit          3D

 30 33  0  0  0  0  0  0  0  0999 V2000
    7.2236   19.3045   19.6675 C   0  0  0  0  0  0  0  0  0  0  0  0
    8.3156   18.3515   19.6937 C   0  0  0  0  0  0  0  0  0  0  0  0
    8.8399   17.8990   18.5069 C   0  0  0  0  0  0  0  0  0  0  0  0
    9.6692   16.8195   18.5298 C   0  0  0  0  0  0  0  0  0  0  0  0
    9.6968   16.0502   19.6748 C   0  0  0  0  0  0  0  0  0  0  0  0
   10.5351   14.9341   19.8903 C   0  0  0  0  0  0  0  0  0  0  0  0
   10.7457   14.4417   21.0891 N   0  0  0  0  0  0  0  0  0  0  0  0
   12.0458   14.1286   21.0276 C   0  0  0  0  0  0  0  0  0  0  0  0
   12.8032   13.8497   22.2314 C   0  0  0  0  0  0  0  0  0  0  0  0
   12.0960   14.1498   23.5174 C   0  0  0  0  0  0  0  0  0  0  0  0
   10.9955   13.3100   23.7556 N   0  0  0  0  0  0  0  0  0  0  0  0
    9.9217   13.3717   24.8219 C   0  0  0  0  0  0  0  0  0  0  0  0
    9.7173   14.1692   25.6400 O   0  0  0  0  0  0  0  0  0  0  0  0
    9.1917   12.1172   24.6981 C   0  0  0  0  0  0  0  0  0  0  0  0
    9.6424   11.1541   23.8709 N   0  0  0  0  0  0  0  0  0  0  0  0
    8.8483   10.1091   24.1135 N   0  0  0  0  0  0  0  0  0  0  0  0
    9.1059    8.8963   23.3750 C   0  0  0  0  0  0  0  0  0  0  0  0
    7.8885   10.3787   25.0609 C   0  0  0  0  0  0  0  0  0  0  0  0
    6.8827    9.6125   25.6391 C   0  0  0  0  0  0  0  0  0  0  0  0
    6.0295   10.2132   26.5673 C   0  0  0  0  0  0  0  0  0  0  0  0
    6.1918   11.5564   26.9070 C   0  0  0  0  0  0  0  0  0  0  0  0
    5.2824   12.1612   27.8786 N   0  0  0  0  0  0  0  0  0  0  0  0
    5.7166   13.1000   28.5605 O   0  0  0  0  0  0  0  0  0  0  0  0
    4.1465   11.6746   27.9823 O   0  0  0  0  0  0  0  0  0  0  0  0
    7.2168   12.3269   26.3564 C   0  0  0  0  0  0  0  0  0  0  0  0
    8.0631   11.7115   25.4192 C   0  0  0  0  0  0  0  0  0  0  0  0
   12.4611   14.1531   19.7282 C   0  0  0  0  0  0  0  0  0  0  0  0
   11.4810   14.6731   18.9634 O   0  0  0  0  0  0  0  0  0  0  0  0
    9.0545   16.4565   20.8297 C   0  0  0  0  0  0  0  0  0  0  0  0
    8.5084   17.6907   20.8848 C   0  0  0  0  0  0  0  0  0  0  0  0
  1  2  1  0
  2  3  2  0
  3  4  1  0
  4  5  2  0
  5  6  1  0
  6  7  2  0
  7  8  1  0
  8  9  1  0
  9 10  1  0
 10 11  1  0
 11 12  1  0
 12 13  2  0
 12 14  1  0
 14 15  2  0
 15 16  1  0
 16 17  1  0
 16 18  1  0
 18 19  2  0
 19 20  1  0
 20 21  2  0
 21 22  1  0
 22 23  2  0
 22 24  1  0
 21 25  1  0
 25 26  2  0
  8 27  2  0
 27 28  1  0
  5 29  1  0
 29 30  2  0
 30  2  1  0
 28  6  1  0
 26 14  1  0
 26 18  1  0
M  CHG  2  22   1  24  -1
M  END
>  <energy_score>  (1548) 
-5.730691

>  <inchikey>  (1548) 
GMVALWIXUGOHHG-UHFFFAOYSA-N

>  <smiles>  (1548) 
Cc1ccc(-c2nc(CCNC(=O)c3nn(C)c4ccc([N+](=O)[O-])cc34)co2)cc1

>  <ref_pdb>  (1548) 
A0514a

>  <alias>  (1548) 
GMVALWIXUGOHHG-UHFFFAOYSA-N-P126-P126-P183-601502

>  <HIPPO Pose ID>  (1548) 
503502

>  <name>  (1548) 
GMVALWIXUGOHHG-UHFFFAOYSA-N-P126-P126-P183-601502

>  <HIPPO Compound ID>  (1548) 
289886

>  <ref_mols>  (1548) 
A2290a,A3436a

>  <distance_score>  (1548) 
1.445808

>  <inspiration_score>  (1548) 
None

$$$$
IKFAMCKKRXRBRT-UHFFFAOYSA-N-P126-P126-P183-601502
     RDKit          3D

 30 33  0  0  0  0  0  0  0  0999 V2000
   10.1519   14.1245   25.4258 O   0  0  0  0  0  0  0  0  0  0  0  0
   10.3189   13.3362   24.5882 C   0  0  0  0  0  0  0  0  0  0  0  0
   11.2904   13.3305   23.4173 N   0  0  0  0  0  0  0  0  0  0  0  0
   12.3204   14.2327   23.0748 C   0  0  0  0  0  0  0  0  0  0  0  0
   12.7005   14.1423   21.6300 C   0  0  0  0  0  0  0  0  0  0  0  0
   11.6722   14.5846   20.7058 C   0  0  0  0  0  0  0  0  0  0  0  0
   11.6799   14.4195   19.3496 C   0  0  0  0  0  0  0  0  0  0  0  0
   10.6361   15.0897   18.8591 O   0  0  0  0  0  0  0  0  0  0  0  0
   10.1116   15.7120   19.9363 C   0  0  0  0  0  0  0  0  0  0  0  0
    9.3231   16.8480   19.6077 C   0  0  0  0  0  0  0  0  0  0  0  0
    8.8297   17.6517   20.6149 C   0  0  0  0  0  0  0  0  0  0  0  0
    8.0842   18.7508   20.3079 C   0  0  0  0  0  0  0  0  0  0  0  0
    7.6964   18.9242   19.0167 C   0  0  0  0  0  0  0  0  0  0  0  0
    6.7813   19.8365   18.7385 F   0  0  0  0  0  0  0  0  0  0  0  0
    8.2130   18.1741   17.9912 C   0  0  0  0  0  0  0  0  0  0  0  0
    9.0887   17.1752   18.2816 C   0  0  0  0  0  0  0  0  0  0  0  0
   10.6168   15.3557   21.0931 N   0  0  0  0  0  0  0  0  0  0  0  0
    9.5964   12.0727   24.4899 C   0  0  0  0  0  0  0  0  0  0  0  0
   10.0511   11.1250   23.6511 N   0  0  0  0  0  0  0  0  0  0  0  0
    9.2609   10.0528   23.8753 N   0  0  0  0  0  0  0  0  0  0  0  0
    9.4832    8.8346   23.0784 C   0  0  0  0  0  0  0  0  0  0  0  0
   10.4136    8.0133   23.6113 F   0  0  0  0  0  0  0  0  0  0  0  0
    8.3508    8.1262   22.9400 F   0  0  0  0  0  0  0  0  0  0  0  0
    9.9363    9.1326   21.8360 F   0  0  0  0  0  0  0  0  0  0  0  0
    8.3022   10.3174   24.8376 C   0  0  0  0  0  0  0  0  0  0  0  0
    7.3042    9.5458   25.4263 C   0  0  0  0  0  0  0  0  0  0  0  0
    6.4522   10.1431   26.3614 C   0  0  0  0  0  0  0  0  0  0  0  0
    6.5929   11.4807   26.7092 C   0  0  0  0  0  0  0  0  0  0  0  0
    7.6065   12.2478   26.1411 C   0  0  0  0  0  0  0  0  0  0  0  0
    8.4684   11.6503   25.2048 C   0  0  0  0  0  0  0  0  0  0  0  0
  1  2  2  0
  2  3  1  0
  3  4  1  0
  4  5  1  0
  5  6  1  0
  6  7  2  0
  7  8  1  0
  8  9  1  0
  9 10  1  0
 10 11  2  0
 11 12  1  0
 12 13  2  0
 13 14  1  0
 13 15  1  0
 15 16  2  0
  9 17  2  0
  2 18  1  0
 18 19  2  0
 19 20  1  0
 20 21  1  0
 21 22  1  0
 21 23  1  0
 21 24  1  0
 20 25  1  0
 25 26  2  0
 26 27  1  0
 27 28  2  0
 28 29  1  0
 29 30  2  0
 17  6  1  0
 30 18  1  0
 16 10  1  0
 30 25  1  0
M  END
>  <energy_score>  (1549) 
-13.841781

>  <inchikey>  (1549) 
IKFAMCKKRXRBRT-UHFFFAOYSA-N

>  <smiles>  (1549) 
O=C(NCCc1coc(-c2ccc(F)cc2)n1)c1nn(C(F)(F)F)c2ccccc12

>  <ref_pdb>  (1549) 
A0514a

>  <alias>  (1549) 
IKFAMCKKRXRBRT-UHFFFAOYSA-N-P126-P126-P183-601502

>  <HIPPO Pose ID>  (1549) 
503512

>  <name>  (1549) 
IKFAMCKKRXRBRT-UHFFFAOYSA-N-P126-P126-P183-601502

>  <HIPPO Compound ID>  (1549) 
289891

>  <ref_mols>  (1549) 
A2290a,A3436a

>  <distance_score>  (1549) 
0.939908

>  <inspiration_score>  (1549) 
None

$$$$
HTTSBEHOPRZHSA-UHFFFAOYSA-N-P126-P126-P183-601502
     RDKit          3D

 30 33  0  0  0  0  0  0  0  0999 V2000
   14.4196   12.0450   24.9628 C   0  0  0  0  0  0  0  0  0  0  0  0
   13.5845   12.6207   23.9399 O   0  0  0  0  0  0  0  0  0  0  0  0
   12.6022   13.4629   24.3199 C   0  0  0  0  0  0  0  0  0  0  0  0
   12.3585   13.7479   25.4966 O   0  0  0  0  0  0  0  0  0  0  0  0
   11.6978   13.9921   23.2037 C   0  0  1  0  0  0  0  0  0  0  0  0
   12.0848   13.9397   21.7408 C   0  0  0  0  0  0  0  0  0  0  0  0
   11.0978   14.6944   20.9033 C   0  0  0  0  0  0  0  0  0  0  0  0
   10.9520   14.7809   19.5385 C   0  0  0  0  0  0  0  0  0  0  0  0
    9.9576   15.6774   19.2691 O   0  0  0  0  0  0  0  0  0  0  0  0
    9.5577   16.1049   20.4900 C   0  0  0  0  0  0  0  0  0  0  0  0
   10.1692   15.5245   21.4957 N   0  0  0  0  0  0  0  0  0  0  0  0
   10.4947   13.3078   23.5861 N   0  0  0  0  0  0  0  0  0  0  0  0
   10.2232   11.8211   23.7939 C   0  0  0  0  0  0  0  0  0  0  0  0
   10.9050   10.9006   23.6158 O   0  0  0  0  0  0  0  0  0  0  0  0
    8.8996   11.6221   24.4067 C   0  0  0  0  0  0  0  0  0  0  0  0
    8.3213   10.4126   24.4012 N   0  0  0  0  0  0  0  0  0  0  0  0
    7.2736   10.5419   25.2294 N   0  0  0  0  0  0  0  0  0  0  0  0
    6.6339    9.3277   25.7044 C   0  0  0  0  0  0  0  0  0  0  0  0
    5.6914    9.4187   26.9090 C   0  0  0  0  0  0  0  0  0  0  0  0
    4.4077    8.8434   26.8256 C   0  0  0  0  0  0  0  0  0  0  0  0
    3.5388    8.8338   27.9202 C   0  0  0  0  0  0  0  0  0  0  0  0
    3.9346    9.4011   29.1262 C   0  0  0  0  0  0  0  0  0  0  0  0
    5.2018    9.9637   29.2396 C   0  0  0  0  0  0  0  0  0  0  0  0
    6.0733    9.9587   28.1462 C   0  0  0  0  0  0  0  0  0  0  0  0
    7.0435   11.8211   25.6258 C   0  0  0  0  0  0  0  0  0  0  0  0
    5.9849   12.4126   26.3140 C   0  0  0  0  0  0  0  0  0  0  0  0
    6.1663   13.6964   26.7994 C   0  0  0  0  0  0  0  0  0  0  0  0
    7.3585   14.3691   26.5869 C   0  0  0  0  0  0  0  0  0  0  0  0
    8.3759   13.7957   25.8224 C   0  0  0  0  0  0  0  0  0  0  0  0
    8.1870   12.5143   25.2678 C   0  0  0  0  0  0  0  0  0  0  0  0
  1  2  1  0
  2  3  1  0
  3  4  2  0
  3  5  1  0
  5  6  1  6
  6  7  1  0
  7  8  2  0
  8  9  1  0
  9 10  1  0
 10 11  2  0
  5 12  1  0
 12 13  1  0
 13 14  2  0
 13 15  1  0
 15 16  2  0
 16 17  1  0
 17 18  1  0
 18 19  1  0
 19 20  2  0
 20 21  1  0
 21 22  2  0
 22 23  1  0
 23 24  2  0
 17 25  1  0
 25 26  2  0
 26 27  1  0
 27 28  2  0
 28 29  1  0
 29 30  2  0
 11  7  1  0
 30 15  1  0
 24 19  1  0
 30 25  1  0
M  END
>  <energy_score>  (1550) 
-14.28737

>  <inchikey>  (1550) 
HTTSBEHOPRZHSA-UHFFFAOYSA-N

>  <smiles>  (1550) 
COC(=O)C(Cc1cocn1)NC(=O)c1nn(Cc2ccccc2)c2ccccc12

>  <ref_pdb>  (1550) 
A0514a

>  <alias>  (1550) 
HTTSBEHOPRZHSA-UHFFFAOYSA-N-P126-P126-P183-601502

>  <HIPPO Pose ID>  (1550) 
503520

>  <name>  (1550) 
HTTSBEHOPRZHSA-UHFFFAOYSA-N-P126-P126-P183-601502

>  <HIPPO Compound ID>  (1550) 
289895

>  <ref_mols>  (1550) 
A2290a,A3436a

>  <distance_score>  (1550) 
1.945645

>  <inspiration_score>  (1550) 
None

$$$$
XKVOTHLLZIIZSH-UHFFFAOYSA-N-P180-P141-P180-601502
     RDKit          3D

 23 26  0  0  0  0  0  0  0  0999 V2000
    9.4946    9.5454   24.3502 C   0  0  0  0  0  0  0  0  0  0  0  0
    9.1876   10.8645   24.8443 N   0  0  0  0  0  0  0  0  0  0  0  0
   10.0983   11.8231   24.6681 N   0  0  0  0  0  0  0  0  0  0  0  0
    9.5068   12.9395   25.1373 C   0  0  0  0  0  0  0  0  0  0  0  0
    9.9832   14.2833   24.7966 C   0  0  0  0  0  0  0  0  0  0  0  0
    9.6229   15.2598   25.3431 O   0  0  0  0  0  0  0  0  0  0  0  0
   10.8765   14.1121   23.6168 N   0  0  0  0  0  0  0  0  0  0  0  0
   11.6760   15.1322   22.8194 C   0  0  0  0  0  0  0  0  0  0  0  0
   11.3738   14.3161   21.6132 C   0  0  0  0  0  0  0  0  0  0  0  0
   11.2197   14.9666   20.3397 N   0  0  0  0  0  0  0  0  0  0  0  0
   11.8817   14.4576   19.2984 N   0  0  0  0  0  0  0  0  0  0  0  0
   11.2765   15.0672   18.2921 C   0  0  0  0  0  0  0  0  0  0  0  0
   10.2852   15.9366   18.6217 N   0  0  0  0  0  0  0  0  0  0  0  0
   10.2867   15.8843   19.9297 C   0  0  0  0  0  0  0  0  0  0  0  0
    9.2252   17.0900   20.9473 Br  0  0  0  0  0  0  0  0  0  0  0  0
   10.0817   14.1127   22.3080 C   0  0  0  0  0  0  0  0  0  0  0  0
    8.2345   12.6587   25.6891 C   0  0  0  0  0  0  0  0  0  0  0  0
    7.2075   13.4213   26.2763 C   0  0  0  0  0  0  0  0  0  0  0  0
    6.0728   12.7671   26.7360 C   0  0  0  0  0  0  0  0  0  0  0  0
    5.1144   13.4656   27.3579 F   0  0  0  0  0  0  0  0  0  0  0  0
    5.9247   11.4025   26.5847 C   0  0  0  0  0  0  0  0  0  0  0  0
    6.8980   10.6552   25.9212 C   0  0  0  0  0  0  0  0  0  0  0  0
    8.0567   11.2951   25.4889 C   0  0  0  0  0  0  0  0  0  0  0  0
  1  2  1  0
  2  3  1  0
  3  4  2  0
  4  5  1  0
  5  6  2  0
  5  7  1  0
  7  8  1  0
  8  9  1  0
  9 10  1  0
 10 11  1  0
 11 12  2  0
 12 13  1  0
 13 14  2  0
 14 15  1  0
  9 16  1  0
  4 17  1  0
 17 18  2  0
 18 19  1  0
 19 20  1  0
 19 21  2  0
 21 22  1  0
 22 23  2  0
 23  2  1  0
 16  7  1  0
 23 17  1  0
 14 10  1  0
M  END
>  <energy_score>  (1551) 
-33.529902

>  <inchikey>  (1551) 
XKVOTHLLZIIZSH-UHFFFAOYSA-N

>  <smiles>  (1551) 
Cn1nc(C(=O)N2CC(n3ncnc3Br)C2)c2cc(F)ccc21

>  <ref_pdb>  (1551) 
A0514a

>  <alias>  (1551) 
XKVOTHLLZIIZSH-UHFFFAOYSA-N-P180-P141-P180-601502

>  <HIPPO Pose ID>  (1551) 
503541

>  <name>  (1551) 
XKVOTHLLZIIZSH-UHFFFAOYSA-N-P180-P141-P180-601502

>  <HIPPO Compound ID>  (1551) 
299798

>  <ref_mols>  (1551) 
A3417a,A3176a

>  <distance_score>  (1551) 
1.112455

>  <inspiration_score>  (1551) 
None

$$$$
GKWXXOWHCNUEFJ-UHFFFAOYSA-N-P141-P141-P180-601502
     RDKit          3D

 23 25  0  0  0  0  0  0  0  0999 V2000
    9.2117    9.1238   23.1689 C   0  0  0  0  0  0  0  0  0  0  0  0
    8.8849   10.4150   23.7312 N   0  0  0  0  0  0  0  0  0  0  0  0
    9.6384   11.4749   23.3895 N   0  0  0  0  0  0  0  0  0  0  0  0
    9.1389   12.4940   24.1178 C   0  0  0  0  0  0  0  0  0  0  0  0
    9.7987   13.8152   24.1134 C   0  0  0  0  0  0  0  0  0  0  0  0
    9.5230   14.6405   24.8876 O   0  0  0  0  0  0  0  0  0  0  0  0
   10.8682   13.8001   23.0144 N   0  0  0  0  0  0  0  0  0  0  0  0
   11.8894   14.7569   22.6931 C   0  0  0  0  0  0  0  0  0  0  0  0
   12.1989   14.8315   21.2104 C   0  0  0  0  0  0  0  0  0  0  0  0
   11.1370   15.3579   20.3912 N   0  0  0  0  0  0  0  0  0  0  0  0
   10.9423   15.0997   19.0761 C   0  0  0  0  0  0  0  0  0  0  0  0
   10.0511   15.9315   18.6005 N   0  0  0  0  0  0  0  0  0  0  0  0
    9.7989   16.7602   19.6486 C   0  0  0  0  0  0  0  0  0  0  0  0
    9.0940   17.9932   19.4587 C   0  0  0  0  0  0  0  0  0  0  0  0
    8.5735   18.9975   19.1930 N   0  0  0  0  0  0  0  0  0  0  0  0
   10.3829   16.3927   20.7956 N   0  0  0  0  0  0  0  0  0  0  0  0
    8.0193   12.0804   24.8868 C   0  0  0  0  0  0  0  0  0  0  0  0
    7.1267   12.7006   25.7824 C   0  0  0  0  0  0  0  0  0  0  0  0
    6.1751   11.9132   26.4262 C   0  0  0  0  0  0  0  0  0  0  0  0
    5.3422   12.4784   27.3107 F   0  0  0  0  0  0  0  0  0  0  0  0
    6.0937   10.5464   26.2022 C   0  0  0  0  0  0  0  0  0  0  0  0
    6.9493    9.9235   25.2914 C   0  0  0  0  0  0  0  0  0  0  0  0
    7.9056   10.7125   24.6459 C   0  0  0  0  0  0  0  0  0  0  0  0
  1  2  1  0
  2  3  1  0
  3  4  2  0
  4  5  1  0
  5  6  2  0
  5  7  1  0
  7  8  1  0
  8  9  1  0
  9 10  1  0
 10 11  1  0
 11 12  2  0
 12 13  1  0
 13 14  1  0
 14 15  3  0
 13 16  2  0
  4 17  1  0
 17 18  2  0
 18 19  1  0
 19 20  1  0
 19 21  2  0
 21 22  1  0
 22 23  2  0
 23  2  1  0
 16 10  1  0
 23 17  1  0
M  END
>  <energy_score>  (1552) 
-7.451645

>  <inchikey>  (1552) 
GKWXXOWHCNUEFJ-UHFFFAOYSA-N

>  <smiles>  (1552) 
Cn1nc(C(=O)NCCn2cnc(C#N)n2)c2cc(F)ccc21

>  <ref_pdb>  (1552) 
A0514a

>  <alias>  (1552) 
GKWXXOWHCNUEFJ-UHFFFAOYSA-N-P141-P141-P180-601502

>  <HIPPO Pose ID>  (1552) 
503550

>  <name>  (1552) 
GKWXXOWHCNUEFJ-UHFFFAOYSA-N-P141-P141-P180-601502

>  <HIPPO Compound ID>  (1552) 
299803

>  <ref_mols>  (1552) 
A3417a,A3176a

>  <distance_score>  (1552) 
0.632166

>  <inspiration_score>  (1552) 
None

$$$$
SGWMMONGTDPZNP-UHFFFAOYSA-N-P141-P141-P180-601502
     RDKit          3D

 24 27  0  0  0  0  0  0  0  0999 V2000
    8.7923   18.4192   19.8731 C   0  0  0  0  0  0  0  0  0  0  0  0
    9.5666   17.1711   19.9695 C   0  0  0  0  0  0  0  0  0  0  0  0
   10.0728   16.5890   18.8554 N   0  0  0  0  0  0  0  0  0  0  0  0
   10.8559   15.6508   19.3331 C   0  0  0  0  0  0  0  0  0  0  0  0
   11.7031   14.7725   18.5285 C   0  0  0  0  0  0  0  0  0  0  0  0
   10.8171   15.6882   20.7029 N   0  0  0  0  0  0  0  0  0  0  0  0
   11.7408   14.9501   21.5644 C   0  0  0  0  0  0  0  0  0  0  0  0
   11.8180   15.1574   23.0255 C   0  0  0  0  0  0  0  0  0  0  0  0
   10.9139   14.0054   23.4205 N   0  0  0  0  0  0  0  0  0  0  0  0
    9.4404   13.9813   23.7669 C   0  0  0  0  0  0  0  0  0  0  0  0
    8.6355   14.8412   23.7336 O   0  0  0  0  0  0  0  0  0  0  0  0
    9.0331   12.5952   24.0958 C   0  0  0  0  0  0  0  0  0  0  0  0
    9.6484   11.5330   23.5399 N   0  0  0  0  0  0  0  0  0  0  0  0
    8.8932   10.4770   23.8753 N   0  0  0  0  0  0  0  0  0  0  0  0
    9.2397    9.1833   23.3295 C   0  0  0  0  0  0  0  0  0  0  0  0
    7.8828   10.7908   24.7488 C   0  0  0  0  0  0  0  0  0  0  0  0
    6.9269   10.0082   25.4027 C   0  0  0  0  0  0  0  0  0  0  0  0
    6.0350   10.6527   26.2612 C   0  0  0  0  0  0  0  0  0  0  0  0
    6.0602   12.0338   26.3984 C   0  0  0  0  0  0  0  0  0  0  0  0
    5.1808   12.6202   27.2225 F   0  0  0  0  0  0  0  0  0  0  0  0
    6.9854   12.8191   25.7139 C   0  0  0  0  0  0  0  0  0  0  0  0
    7.9349   12.1774   24.8961 C   0  0  0  0  0  0  0  0  0  0  0  0
   11.1484   13.6664   21.9379 C   0  0  0  0  0  0  0  0  0  0  0  0
    9.9049   16.5649   21.1123 N   0  0  0  0  0  0  0  0  0  0  0  0
  1  2  1  0
  2  3  1  0
  3  4  2  0
  4  5  1  0
  4  6  1  0
  6  7  1  0
  7  8  1  0
  8  9  1  0
  9 10  1  0
 10 11  2  0
 10 12  1  0
 12 13  2  0
 13 14  1  0
 14 15  1  0
 14 16  1  0
 16 17  2  0
 17 18  1  0
 18 19  2  0
 19 20  1  0
 19 21  1  0
 21 22  2  0
  9 23  1  0
  6 24  1  0
 24  2  2  0
 23  7  1  0
 22 12  1  0
 22 16  1  0
M  END
>  <energy_score>  (1553) 
-2.814944

>  <inchikey>  (1553) 
SGWMMONGTDPZNP-UHFFFAOYSA-N

>  <smiles>  (1553) 
Cc1nc(C)n(C2CN(C(=O)c3nn(C)c4ccc(F)cc34)C2)n1

>  <ref_pdb>  (1553) 
A0514a

>  <alias>  (1553) 
SGWMMONGTDPZNP-UHFFFAOYSA-N-P141-P141-P180-601502

>  <HIPPO Pose ID>  (1553) 
503560

>  <name>  (1553) 
SGWMMONGTDPZNP-UHFFFAOYSA-N-P141-P141-P180-601502

>  <HIPPO Compound ID>  (1553) 
299808

>  <ref_mols>  (1553) 
A3417a,A3176a

>  <distance_score>  (1553) 
0.909977

>  <inspiration_score>  (1553) 
None

$$$$
ZVXCLKSCZDSFCA-UHFFFAOYSA-N-P141-P141-P180-601502
     RDKit          3D

 24 26  0  0  0  0  0  0  0  0999 V2000
   12.8262   13.0913   24.4374 C   0  0  0  0  0  0  0  0  0  0  0  0
   12.5298   14.5548   24.1381 C   0  0  0  0  0  0  0  0  0  0  0  0
   12.1688   15.2178   25.4772 C   0  0  0  0  0  0  0  0  0  0  0  0
   11.4411   14.7761   23.0621 C   0  0  1  0  0  0  0  0  0  0  0  0
   11.9632   14.7305   21.6201 C   0  0  0  0  0  0  0  0  0  0  0  0
   11.0301   15.2704   20.6521 N   0  0  0  0  0  0  0  0  0  0  0  0
   11.1170   15.2143   19.2988 C   0  0  0  0  0  0  0  0  0  0  0  0
   10.2633   16.0660   18.7802 N   0  0  0  0  0  0  0  0  0  0  0  0
    9.6797   16.6360   19.8632 C   0  0  0  0  0  0  0  0  0  0  0  0
   10.0823   16.1400   21.0292 N   0  0  0  0  0  0  0  0  0  0  0  0
   10.4100   13.8151   23.2879 N   0  0  0  0  0  0  0  0  0  0  0  0
    9.1982   13.8604   24.2106 C   0  0  0  0  0  0  0  0  0  0  0  0
    8.7945   14.7178   24.8836 O   0  0  0  0  0  0  0  0  0  0  0  0
    8.6309   12.5106   24.1882 C   0  0  0  0  0  0  0  0  0  0  0  0
    9.2126   11.5421   23.4482 N   0  0  0  0  0  0  0  0  0  0  0  0
    8.5916   10.4167   23.8280 N   0  0  0  0  0  0  0  0  0  0  0  0
    9.0475    9.1601   23.2757 C   0  0  0  0  0  0  0  0  0  0  0  0
    7.6123   10.6349   24.7652 C   0  0  0  0  0  0  0  0  0  0  0  0
    6.7414    9.7773   25.4303 C   0  0  0  0  0  0  0  0  0  0  0  0
    5.8819   10.3222   26.3869 C   0  0  0  0  0  0  0  0  0  0  0  0
    5.8674   11.6868   26.6311 C   0  0  0  0  0  0  0  0  0  0  0  0
    5.0288   12.1746   27.5553 F   0  0  0  0  0  0  0  0  0  0  0  0
    6.7181   12.5504   25.9532 C   0  0  0  0  0  0  0  0  0  0  0  0
    7.6034   12.0051   25.0060 C   0  0  0  0  0  0  0  0  0  0  0  0
  1  2  1  0
  2  3  1  0
  2  4  1  0
  4  5  1  6
  5  6  1  0
  6  7  1  0
  7  8  2  0
  8  9  1  0
  9 10  2  0
  4 11  1  0
 11 12  1  0
 12 13  2  0
 12 14  1  0
 14 15  2  0
 15 16  1  0
 16 17  1  0
 16 18  1  0
 18 19  2  0
 19 20  1  0
 20 21  2  0
 21 22  1  0
 21 23  1  0
 23 24  2  0
 10  6  1  0
 24 14  1  0
 24 18  1  0
M  END
>  <energy_score>  (1554) 
-8.047845

>  <inchikey>  (1554) 
ZVXCLKSCZDSFCA-UHFFFAOYSA-N

>  <smiles>  (1554) 
CC(C)C(Cn1cncn1)NC(=O)c1nn(C)c2ccc(F)cc12

>  <ref_pdb>  (1554) 
A0514a

>  <alias>  (1554) 
ZVXCLKSCZDSFCA-UHFFFAOYSA-N-P141-P141-P180-601502

>  <HIPPO Pose ID>  (1554) 
503564

>  <name>  (1554) 
ZVXCLKSCZDSFCA-UHFFFAOYSA-N-P141-P141-P180-601502

>  <HIPPO Compound ID>  (1554) 
299810

>  <ref_mols>  (1554) 
A3417a,A3176a

>  <distance_score>  (1554) 
0.841356

>  <inspiration_score>  (1554) 
None

$$$$
CUKCWYGWPWXVTR-UHFFFAOYSA-N-P141-P141-P180-601502
     RDKit          3D

 24 26  0  0  0  0  0  0  0  0999 V2000
    9.8896   16.6553   18.5613 C   0  0  0  0  0  0  0  0  0  0  0  0
   11.0975   16.0524   19.0713 N   0  0  0  0  0  0  0  0  0  0  0  0
   11.8344   15.3749   18.0265 C   0  0  0  0  0  0  0  0  0  0  0  0
   10.9118   15.2153   20.2369 C   0  0  0  0  0  0  0  0  0  0  0  0
   12.2932   14.7555   20.6877 C   0  0  0  0  0  0  0  0  0  0  0  0
   12.3937   14.7235   22.1094 N   0  0  0  0  0  0  0  0  0  0  0  0
   12.2031   15.7592   22.9564 C   0  0  0  0  0  0  0  0  0  0  0  0
   11.7462   15.3078   24.1006 N   0  0  0  0  0  0  0  0  0  0  0  0
   11.6567   13.9917   23.8183 C   0  0  0  0  0  0  0  0  0  0  0  0
   10.6127   13.2390   24.1150 N   0  0  0  0  0  0  0  0  0  0  0  0
    9.3737   13.5488   24.9308 C   0  0  0  0  0  0  0  0  0  0  0  0
    9.0927   14.4923   25.5462 O   0  0  0  0  0  0  0  0  0  0  0  0
    8.5620   12.3521   24.7679 C   0  0  0  0  0  0  0  0  0  0  0  0
    8.9908   11.3878   23.9237 N   0  0  0  0  0  0  0  0  0  0  0  0
    8.2464   10.3286   24.2309 N   0  0  0  0  0  0  0  0  0  0  0  0
    8.6744    9.0433   23.7314 C   0  0  0  0  0  0  0  0  0  0  0  0
    7.2691   10.6207   25.1491 C   0  0  0  0  0  0  0  0  0  0  0  0
    6.2950    9.8452   25.7619 C   0  0  0  0  0  0  0  0  0  0  0  0
    5.5263   10.4307   26.7694 C   0  0  0  0  0  0  0  0  0  0  0  0
    5.6515   11.7779   27.0678 C   0  0  0  0  0  0  0  0  0  0  0  0
    4.8779   12.3094   28.0236 F   0  0  0  0  0  0  0  0  0  0  0  0
    6.5880   12.5738   26.4255 C   0  0  0  0  0  0  0  0  0  0  0  0
    7.4227   11.9657   25.4752 C   0  0  0  0  0  0  0  0  0  0  0  0
   12.3591   13.5788   22.7734 N   0  0  0  0  0  0  0  0  0  0  0  0
  1  2  1  0
  2  3  1  0
  2  4  1  0
  4  5  1  0
  5  6  1  0
  6  7  1  0
  7  8  2  0
  8  9  1  0
  9 10  1  0
 10 11  1  0
 11 12  2  0
 11 13  1  0
 13 14  2  0
 14 15  1  0
 15 16  1  0
 15 17  1  0
 17 18  2  0
 18 19  1  0
 19 20  2  0
 20 21  1  0
 20 22  1  0
 22 23  2  0
  9 24  2  0
 24  6  1  0
 23 13  1  0
 23 17  1  0
M  END
>  <energy_score>  (1555) 
-24.606629

>  <inchikey>  (1555) 
CUKCWYGWPWXVTR-UHFFFAOYSA-N

>  <smiles>  (1555) 
CN(C)CCn1cnc(NC(=O)c2nn(C)c3ccc(F)cc23)n1

>  <ref_pdb>  (1555) 
A0514a

>  <alias>  (1555) 
CUKCWYGWPWXVTR-UHFFFAOYSA-N-P141-P141-P180-601502

>  <HIPPO Pose ID>  (1555) 
503568

>  <name>  (1555) 
CUKCWYGWPWXVTR-UHFFFAOYSA-N-P141-P141-P180-601502

>  <HIPPO Compound ID>  (1555) 
299812

>  <ref_mols>  (1555) 
A3417a,A3176a

>  <distance_score>  (1555) 
1.872304

>  <inspiration_score>  (1555) 
None

$$$$
OGUVBYNAJBMCLL-UHFFFAOYSA-N-P141-P141-P180-601502
     RDKit          3D

 24 27  0  0  0  0  0  0  0  0999 V2000
    9.1170    9.1486   23.2344 C   0  0  0  0  0  0  0  0  0  0  0  0
    8.6612   10.4025   23.7920 N   0  0  0  0  0  0  0  0  0  0  0  0
    9.2602   11.5369   23.3959 N   0  0  0  0  0  0  0  0  0  0  0  0
    8.6852   12.4948   24.1512 C   0  0  0  0  0  0  0  0  0  0  0  0
    9.1801   13.8718   24.1277 C   0  0  0  0  0  0  0  0  0  0  0  0
    8.8264   14.6708   24.8944 O   0  0  0  0  0  0  0  0  0  0  0  0
   10.2407   13.9507   23.0349 N   0  0  0  0  0  0  0  0  0  0  0  0
   11.1494   14.9799   22.7118 C   0  0  0  0  0  0  0  0  0  0  0  0
   11.3343   15.1672   21.2306 C   0  0  0  0  0  0  0  0  0  0  0  0
   10.3283   16.0241   20.5301 N   0  0  0  0  0  0  0  0  0  0  0  0
   10.2286   16.3110   19.1896 C   0  0  0  0  0  0  0  0  0  0  0  0
    9.4982   17.3891   19.0215 N   0  0  0  0  0  0  0  0  0  0  0  0
    9.0274   17.6054   20.2725 C   0  0  0  0  0  0  0  0  0  0  0  0
    9.3833   16.6958   21.1792 N   0  0  0  0  0  0  0  0  0  0  0  0
   12.7990   15.6389   21.1281 C   0  0  0  0  0  0  0  0  0  0  0  0
   12.8516   14.9020   19.7796 C   0  0  0  0  0  0  0  0  0  0  0  0
   11.7739   14.0234   20.3344 C   0  0  0  0  0  0  0  0  0  0  0  0
    7.6712   11.9773   24.9820 C   0  0  0  0  0  0  0  0  0  0  0  0
    6.7762   12.5160   25.9251 C   0  0  0  0  0  0  0  0  0  0  0  0
    5.9171   11.6493   26.5882 C   0  0  0  0  0  0  0  0  0  0  0  0
    5.0675   12.1322   27.5048 F   0  0  0  0  0  0  0  0  0  0  0  0
    5.9328   10.2871   26.3333 C   0  0  0  0  0  0  0  0  0  0  0  0
    6.8043    9.7483   25.3834 C   0  0  0  0  0  0  0  0  0  0  0  0
    7.6801   10.6104   24.7300 C   0  0  0  0  0  0  0  0  0  0  0  0
  1  2  1  0
  2  3  1  0
  3  4  2  0
  4  5  1  0
  5  6  2  0
  5  7  1  0
  7  8  1  0
  8  9  1  0
  9 10  1  0
 10 11  1  0
 11 12  2  0
 12 13  1  0
 13 14  2  0
  9 15  1  0
 15 16  1  0
 16 17  1  0
  4 18  1  0
 18 19  2  0
 19 20  1  0
 20 21  1  0
 20 22  2  0
 22 23  1  0
 23 24  2  0
 24  2  1  0
 17  9  1  0
 24 18  1  0
 14 10  1  0
M  END
>  <energy_score>  (1556) 
-7.869021

>  <inchikey>  (1556) 
OGUVBYNAJBMCLL-UHFFFAOYSA-N

>  <smiles>  (1556) 
Cn1nc(C(=O)NCC2(n3cncn3)CCC2)c2cc(F)ccc21

>  <ref_pdb>  (1556) 
A0514a

>  <alias>  (1556) 
OGUVBYNAJBMCLL-UHFFFAOYSA-N-P141-P141-P180-601502

>  <HIPPO Pose ID>  (1556) 
503570

>  <name>  (1556) 
OGUVBYNAJBMCLL-UHFFFAOYSA-N-P141-P141-P180-601502

>  <HIPPO Compound ID>  (1556) 
299813

>  <ref_mols>  (1556) 
A3417a,A3176a

>  <distance_score>  (1556) 
1.034165

>  <inspiration_score>  (1556) 
None

$$$$
VFTTWDVHDNVEKD-UHFFFAOYSA-N-P141-P141-P180-601502
     RDKit          3D

 25 27  0  0  0  0  0  0  0  0999 V2000
    9.1181    9.0568   23.2338 C   0  0  0  0  0  0  0  0  0  0  0  0
    8.7992   10.3561   23.7782 N   0  0  0  0  0  0  0  0  0  0  0  0
    9.5199   11.4075   23.3651 N   0  0  0  0  0  0  0  0  0  0  0  0
    9.0210   12.4533   24.0545 C   0  0  0  0  0  0  0  0  0  0  0  0
    9.5966   13.7949   23.8686 C   0  0  0  0  0  0  0  0  0  0  0  0
    9.2920   14.7089   24.5219 O   0  0  0  0  0  0  0  0  0  0  0  0
   10.5694   13.6970   22.6887 N   0  0  0  0  0  0  0  0  0  0  0  0
   11.3046   14.7188   21.9981 C   0  0  0  0  0  0  0  0  0  0  0  0
   10.9908   14.7268   20.4896 C   0  0  1  0  0  0  0  0  0  0  0  0
   10.3217   15.9237   20.0379 N   0  0  0  0  0  0  0  0  0  0  0  0
   10.3645   16.5775   18.8463 C   0  0  0  0  0  0  0  0  0  0  0  0
    9.6278   17.6632   18.9136 N   0  0  0  0  0  0  0  0  0  0  0  0
    9.0956   17.5873   20.1590 C   0  0  0  0  0  0  0  0  0  0  0  0
    9.4015   16.4802   20.8361 N   0  0  0  0  0  0  0  0  0  0  0  0
   12.2861   14.4920   19.7865 C   0  0  0  0  0  0  0  0  0  0  0  0
   12.2394   14.6331   18.4529 F   0  0  0  0  0  0  0  0  0  0  0  0
   12.7548   13.2424   19.9880 F   0  0  0  0  0  0  0  0  0  0  0  0
   13.2063   15.3285   20.2916 F   0  0  0  0  0  0  0  0  0  0  0  0
    7.9509   12.0591   24.8939 C   0  0  0  0  0  0  0  0  0  0  0  0
    7.0757   12.7097   25.7841 C   0  0  0  0  0  0  0  0  0  0  0  0
    6.1360   11.9441   26.4692 C   0  0  0  0  0  0  0  0  0  0  0  0
    5.3174   12.5373   27.3485 F   0  0  0  0  0  0  0  0  0  0  0  0
    6.0438   10.5722   26.2833 C   0  0  0  0  0  0  0  0  0  0  0  0
    6.8824    9.9199   25.3771 C   0  0  0  0  0  0  0  0  0  0  0  0
    7.8370   10.6830   24.7007 C   0  0  0  0  0  0  0  0  0  0  0  0
  1  2  1  0
  2  3  1  0
  3  4  2  0
  4  5  1  0
  5  6  2  0
  5  7  1  0
  7  8  1  0
  9  8  1  1
  9 10  1  0
 10 11  1  0
 11 12  2  0
 12 13  1  0
 13 14  2  0
  9 15  1  0
 15 16  1  0
 15 17  1  0
 15 18  1  0
  4 19  1  0
 19 20  2  0
 20 21  1  0
 21 22  1  0
 21 23  2  0
 23 24  1  0
 24 25  2  0
 25  2  1  0
 14 10  1  0
 25 19  1  0
M  END
>  <energy_score>  (1557) 
-32.960919

>  <inchikey>  (1557) 
VFTTWDVHDNVEKD-UHFFFAOYSA-N

>  <smiles>  (1557) 
Cn1nc(C(=O)NCC(n2cncn2)C(F)(F)F)c2cc(F)ccc21

>  <ref_pdb>  (1557) 
A0514a

>  <alias>  (1557) 
VFTTWDVHDNVEKD-UHFFFAOYSA-N-P141-P141-P180-601502

>  <HIPPO Pose ID>  (1557) 
503576

>  <name>  (1557) 
VFTTWDVHDNVEKD-UHFFFAOYSA-N-P141-P141-P180-601502

>  <HIPPO Compound ID>  (1557) 
299816

>  <ref_mols>  (1557) 
A3417a,A3176a

>  <distance_score>  (1557) 
1.058025

>  <inspiration_score>  (1557) 
None

$$$$
UGXRHTOVWXZEJA-UHFFFAOYSA-N-P141-P141-P180-601502
     RDKit          3D

 26 29  0  0  0  0  0  0  0  0999 V2000
    8.9832   18.4987   18.4033 C   0  0  0  0  0  0  0  0  0  0  0  0
    8.3780   18.2781   19.6658 O   0  0  0  0  0  0  0  0  0  0  0  0
    8.7874   17.2427   20.4501 C   0  0  0  0  0  0  0  0  0  0  0  0
    8.1107   16.8190   21.3863 O   0  0  0  0  0  0  0  0  0  0  0  0
   10.0432   16.5787   20.1136 C   0  0  0  0  0  0  0  0  0  0  0  0
   10.2806   15.8448   18.9756 N   0  0  0  0  0  0  0  0  0  0  0  0
   11.2945   15.0784   19.3166 C   0  0  0  0  0  0  0  0  0  0  0  0
   11.5925   15.2953   20.6320 N   0  0  0  0  0  0  0  0  0  0  0  0
   11.7368   14.2149   21.6024 C   0  0  0  0  0  0  0  0  0  0  0  0
   11.9569   14.5956   23.0439 C   0  0  0  0  0  0  0  0  0  0  0  0
   10.9276   13.5485   23.4625 N   0  0  0  0  0  0  0  0  0  0  0  0
    9.8860   13.5765   24.5412 C   0  0  0  0  0  0  0  0  0  0  0  0
    9.5653   14.4454   25.2687 O   0  0  0  0  0  0  0  0  0  0  0  0
    9.1836   12.2806   24.5004 C   0  0  0  0  0  0  0  0  0  0  0  0
    9.6188   11.2727   23.7204 N   0  0  0  0  0  0  0  0  0  0  0  0
    8.7716   10.2662   23.9447 N   0  0  0  0  0  0  0  0  0  0  0  0
    9.0216    9.0150   23.2696 C   0  0  0  0  0  0  0  0  0  0  0  0
    7.7832   10.5849   24.8404 C   0  0  0  0  0  0  0  0  0  0  0  0
    6.7505    9.8422   25.4096 C   0  0  0  0  0  0  0  0  0  0  0  0
    5.9138   10.4789   26.3279 C   0  0  0  0  0  0  0  0  0  0  0  0
    6.0564   11.8313   26.5967 C   0  0  0  0  0  0  0  0  0  0  0  0
    5.2240   12.4139   27.4705 F   0  0  0  0  0  0  0  0  0  0  0  0
    7.0764   12.5798   26.0192 C   0  0  0  0  0  0  0  0  0  0  0  0
    7.9834   11.9260   25.1636 C   0  0  0  0  0  0  0  0  0  0  0  0
   10.3532   13.9657   22.1306 C   0  0  0  0  0  0  0  0  0  0  0  0
   10.9809   16.3989   21.0493 N   0  0  0  0  0  0  0  0  0  0  0  0
  1  2  1  0
  2  3  1  0
  3  4  2  0
  3  5  1  0
  5  6  1  0
  6  7  2  0
  7  8  1  0
  8  9  1  0
  9 10  1  0
 10 11  1  0
 11 12  1  0
 12 13  2  0
 12 14  1  0
 14 15  2  0
 15 16  1  0
 16 17  1  0
 16 18  1  0
 18 19  2  0
 19 20  1  0
 20 21  2  0
 21 22  1  0
 21 23  1  0
 23 24  2  0
 11 25  1  0
  8 26  1  0
 26  5  2  0
 25  9  1  0
 24 14  1  0
 24 18  1  0
M  END
>  <energy_score>  (1558) 
-7.73478

>  <inchikey>  (1558) 
UGXRHTOVWXZEJA-UHFFFAOYSA-N

>  <smiles>  (1558) 
COC(=O)c1ncn(C2CN(C(=O)c3nn(C)c4ccc(F)cc34)C2)n1

>  <ref_pdb>  (1558) 
A0514a

>  <alias>  (1558) 
UGXRHTOVWXZEJA-UHFFFAOYSA-N-P141-P141-P180-601502

>  <HIPPO Pose ID>  (1558) 
503610

>  <name>  (1558) 
UGXRHTOVWXZEJA-UHFFFAOYSA-N-P141-P141-P180-601502

>  <HIPPO Compound ID>  (1558) 
299834

>  <ref_mols>  (1558) 
A3417a,A3176a

>  <distance_score>  (1558) 
0.837418

>  <inspiration_score>  (1558) 
None

$$$$
ZSYQUYSXUNBJIZ-UHFFFAOYSA-N-P141-P141-P180-601502
     RDKit          3D

 27 30  0  0  0  0  0  0  0  0999 V2000
    8.9075    8.8883   23.5157 C   0  0  0  0  0  0  0  0  0  0  0  0
    8.4965   10.2293   23.8503 N   0  0  0  0  0  0  0  0  0  0  0  0
    9.1793   11.2433   23.3136 N   0  0  0  0  0  0  0  0  0  0  0  0
    8.7278   12.3301   23.9693 C   0  0  0  0  0  0  0  0  0  0  0  0
    9.5000   13.5691   23.9229 C   0  0  0  0  0  0  0  0  0  0  0  0
    9.1639   14.5583   24.4350 O   0  0  0  0  0  0  0  0  0  0  0  0
   10.7950   13.2234   23.1873 N   0  0  0  0  0  0  0  0  0  0  0  0
   11.9851   13.9805   23.0054 C   0  0  1  0  0  0  0  0  0  0  0  0
   11.7659   15.2968   22.2501 C   0  0  0  0  0  0  0  0  0  0  0  0
   11.3818   15.1506   20.8611 N   0  0  0  0  0  0  0  0  0  0  0  0
   12.0819   14.5477   19.8692 C   0  0  0  0  0  0  0  0  0  0  0  0
   11.5407   14.8075   18.7097 N   0  0  0  0  0  0  0  0  0  0  0  0
   10.5129   15.6463   19.0412 C   0  0  0  0  0  0  0  0  0  0  0  0
   10.3445   15.8402   20.3536 N   0  0  0  0  0  0  0  0  0  0  0  0
   12.5780   14.0598   24.4208 C   0  0  0  0  0  0  0  0  0  0  0  0
   12.1709   15.0173   25.3530 C   0  0  0  0  0  0  0  0  0  0  0  0
   12.6188   14.9887   26.6785 C   0  0  0  0  0  0  0  0  0  0  0  0
   13.5258   14.0215   27.0973 C   0  0  0  0  0  0  0  0  0  0  0  0
   13.9013   13.0209   26.2133 C   0  0  0  0  0  0  0  0  0  0  0  0
   13.3707   13.0118   24.9205 C   0  0  0  0  0  0  0  0  0  0  0  0
    7.6717   12.0157   24.8510 C   0  0  0  0  0  0  0  0  0  0  0  0
    6.8801   12.7295   25.7696 C   0  0  0  0  0  0  0  0  0  0  0  0
    5.9844   12.0189   26.5617 C   0  0  0  0  0  0  0  0  0  0  0  0
    5.2378   12.6723   27.4621 F   0  0  0  0  0  0  0  0  0  0  0  0
    5.8640   10.6411   26.4605 C   0  0  0  0  0  0  0  0  0  0  0  0
    6.6340    9.9266   25.5413 C   0  0  0  0  0  0  0  0  0  0  0  0
    7.5548   10.6307   24.7658 C   0  0  0  0  0  0  0  0  0  0  0  0
  1  2  1  0
  2  3  1  0
  3  4  2  0
  4  5  1  0
  5  6  2  0
  5  7  1  0
  7  8  1  0
  8  9  1  1
  9 10  1  0
 10 11  1  0
 11 12  2  0
 12 13  1  0
 13 14  2  0
  8 15  1  0
 15 16  2  0
 16 17  1  0
 17 18  2  0
 18 19  1  0
 19 20  2  0
  4 21  1  0
 21 22  2  0
 22 23  1  0
 23 24  1  0
 23 25  2  0
 25 26  1  0
 26 27  2  0
 27  2  1  0
 14 10  1  0
 20 15  1  0
 27 21  1  0
M  END
>  <energy_score>  (1559) 
-10.433306

>  <inchikey>  (1559) 
ZSYQUYSXUNBJIZ-UHFFFAOYSA-N

>  <smiles>  (1559) 
Cn1nc(C(=O)NC(Cn2cncn2)c2ccccc2)c2cc(F)ccc21

>  <ref_pdb>  (1559) 
A0514a

>  <alias>  (1559) 
ZSYQUYSXUNBJIZ-UHFFFAOYSA-N-P141-P141-P180-601502

>  <HIPPO Pose ID>  (1559) 
503620

>  <name>  (1559) 
ZSYQUYSXUNBJIZ-UHFFFAOYSA-N-P141-P141-P180-601502

>  <HIPPO Compound ID>  (1559) 
299839

>  <ref_mols>  (1559) 
A3417a,A3176a

>  <distance_score>  (1559) 
0.78349

>  <inspiration_score>  (1559) 
None

$$$$
PBDREPJUKDKSIL-UHFFFAOYSA-N-P637-P178-P637-601502
     RDKit          3D

 19 20  0  0  0  0  0  0  0  0999 V2000
   10.6158   15.5259   18.7272 C   0  0  0  0  0  0  0  0  0  0  0  0
   10.8348   15.4184   20.1747 C   0  0  0  0  0  0  0  0  0  0  0  0
   10.0233   14.9774   21.1122 N   0  0  0  0  0  0  0  0  0  0  0  0
   10.7933   15.0144   22.2479 C   0  0  0  0  0  0  0  0  0  0  0  0
   10.2579   14.5020   23.5182 C   0  0  0  0  0  0  0  0  0  0  0  0
   10.2274   12.9722   23.5225 C   0  0  0  0  0  0  0  0  0  0  0  0
    9.0589   12.5038   24.2167 N   0  0  0  0  0  0  0  0  0  0  0  0
    7.6986   12.4777   23.8303 C   0  0  0  0  0  0  0  0  0  0  0  0
    7.1747   12.7642   22.7976 O   0  0  0  0  0  0  0  0  0  0  0  0
    6.8215   12.1183   24.9649 C   0  0  0  0  0  0  0  0  0  0  0  0
    6.6111   10.7765   25.2872 C   0  0  0  0  0  0  0  0  0  0  0  0
    5.7252   10.4615   26.3151 C   0  0  0  0  0  0  0  0  0  0  0  0
    5.0965   11.4745   27.0394 C   0  0  0  0  0  0  0  0  0  0  0  0
    5.3377   12.8143   26.7323 C   0  0  0  0  0  0  0  0  0  0  0  0
    6.1966   13.1524   25.6801 C   0  0  0  0  0  0  0  0  0  0  0  0
    6.4672   14.5879   25.3297 C   0  0  0  0  0  0  0  0  0  0  0  0
    7.7528   14.9428   25.6155 F   0  0  0  0  0  0  0  0  0  0  0  0
   12.0318   15.5201   21.9531 C   0  0  0  0  0  0  0  0  0  0  0  0
   12.0736   15.7742   20.6229 O   0  0  0  0  0  0  0  0  0  0  0  0
  1  2  1  0
  2  3  2  0
  3  4  1  0
  4  5  1  0
  5  6  1  0
  6  7  1  0
  7  8  1  0
  8  9  2  0
  8 10  1  0
 10 11  2  0
 11 12  1  0
 12 13  2  0
 13 14  1  0
 14 15  2  0
 15 16  1  0
 16 17  1  0
  4 18  2  0
 18 19  1  0
 19  2  1  0
 15 10  1  0
M  END
>  <energy_score>  (1560) 
-17.009551

>  <inchikey>  (1560) 
PBDREPJUKDKSIL-UHFFFAOYSA-N

>  <smiles>  (1560) 
Cc1nc(CCNC(=O)c2ccccc2CF)co1

>  <ref_pdb>  (1560) 
A0514a

>  <alias>  (1560) 
PBDREPJUKDKSIL-UHFFFAOYSA-N-P637-P178-P637-601502

>  <HIPPO Pose ID>  (1560) 
503640

>  <name>  (1560) 
PBDREPJUKDKSIL-UHFFFAOYSA-N-P637-P178-P637-601502

>  <HIPPO Compound ID>  (1560) 
306233

>  <ref_mols>  (1560) 
A3408a,A5594a

>  <distance_score>  (1560) 
1.946462

>  <inspiration_score>  (1560) 
None

$$$$
KZMVVJAPHIHDFJ-UHFFFAOYSA-N-P637-P178-P637-601502
     RDKit          3D

 19 20  0  0  0  0  0  0  0  0999 V2000
    9.9386   15.6739   20.0034 C   0  0  0  0  0  0  0  0  0  0  0  0
   10.3384   15.2069   21.3298 C   0  0  0  0  0  0  0  0  0  0  0  0
    9.7940   14.2728   22.0818 N   0  0  0  0  0  0  0  0  0  0  0  0
   10.7744   14.0247   23.0090 C   0  0  0  0  0  0  0  0  0  0  0  0
   10.7604   12.8111   23.8472 C   0  0  0  0  0  0  0  0  0  0  0  0
    9.8762   11.7162   23.2410 C   0  0  0  0  0  0  0  0  0  0  0  0
    8.5639   11.8415   23.7941 N   0  0  0  0  0  0  0  0  0  0  0  0
    7.8284   10.9710   24.7976 C   0  0  0  0  0  0  0  0  0  0  0  0
    8.1330    9.9658   25.2853 O   0  0  0  0  0  0  0  0  0  0  0  0
    6.5552   11.5390   25.3215 C   0  0  0  0  0  0  0  0  0  0  0  0
    5.6726   10.5518   25.8108 C   0  0  0  0  0  0  0  0  0  0  0  0
    4.5639   10.8873   26.5648 C   0  0  0  0  0  0  0  0  0  0  0  0
    4.2828   12.2254   26.7837 C   0  0  0  0  0  0  0  0  0  0  0  0
    5.1345   13.2227   26.2928 C   0  0  0  0  0  0  0  0  0  0  0  0
    4.5763   15.0150   26.6364 Br  0  0  0  0  0  0  0  0  0  0  0  0
    6.3295   12.9075   25.6140 C   0  0  0  0  0  0  0  0  0  0  0  0
    7.3024   14.0111   25.2840 C   0  0  0  0  0  0  0  0  0  0  0  0
   11.7731   14.9573   22.8950 C   0  0  0  0  0  0  0  0  0  0  0  0
   11.5057   15.7239   21.8112 O   0  0  0  0  0  0  0  0  0  0  0  0
  1  2  1  0
  2  3  2  0
  3  4  1  0
  4  5  1  0
  5  6  1  0
  6  7  1  0
  7  8  1  0
  8  9  2  0
  8 10  1  0
 10 11  2  0
 11 12  1  0
 12 13  2  0
 13 14  1  0
 14 15  1  0
 14 16  2  0
 16 17  1  0
  4 18  2  0
 18 19  1  0
 19  2  1  0
 16 10  1  0
M  END
>  <energy_score>  (1561) 
-0.494151

>  <inchikey>  (1561) 
KZMVVJAPHIHDFJ-UHFFFAOYSA-N

>  <smiles>  (1561) 
Cc1nc(CCNC(=O)c2cccc(Br)c2C)co1

>  <ref_pdb>  (1561) 
A0514a

>  <alias>  (1561) 
KZMVVJAPHIHDFJ-UHFFFAOYSA-N-P637-P178-P637-601502

>  <HIPPO Pose ID>  (1561) 
503644

>  <name>  (1561) 
KZMVVJAPHIHDFJ-UHFFFAOYSA-N-P637-P178-P637-601502

>  <HIPPO Compound ID>  (1561) 
306237

>  <ref_mols>  (1561) 
A3408a,A5594a

>  <distance_score>  (1561) 
1.631218

>  <inspiration_score>  (1561) 
None

$$$$
QJXGJNXCMRTAMS-UHFFFAOYSA-N-P637-P178-P637-601502
     RDKit          3D

 19 20  0  0  0  0  0  0  0  0999 V2000
    6.2806   14.7693   24.5554 C   0  0  0  0  0  0  0  0  0  0  0  0
    5.8914   13.5208   25.2914 C   0  0  0  0  0  0  0  0  0  0  0  0
    4.6719   13.4568   25.9599 C   0  0  0  0  0  0  0  0  0  0  0  0
    4.3199   12.3116   26.6665 C   0  0  0  0  0  0  0  0  0  0  0  0
    5.1660   11.2057   26.6789 C   0  0  0  0  0  0  0  0  0  0  0  0
    4.6712    9.7491   27.7682 Br  0  0  0  0  0  0  0  0  0  0  0  0
    6.3764   11.2275   25.9933 C   0  0  0  0  0  0  0  0  0  0  0  0
    6.7462   12.4116   25.3433 C   0  0  0  0  0  0  0  0  0  0  0  0
    8.1260   12.6195   24.8685 C   0  0  0  0  0  0  0  0  0  0  0  0
    8.6951   13.5416   25.2872 O   0  0  0  0  0  0  0  0  0  0  0  0
    8.5794   11.5345   23.9012 N   0  0  0  0  0  0  0  0  0  0  0  0
    9.7987   11.3959   23.1630 C   0  0  0  0  0  0  0  0  0  0  0  0
   10.5861   12.7142   23.0796 C   0  0  0  0  0  0  0  0  0  0  0  0
    9.9384   13.8277   22.3385 C   0  0  0  0  0  0  0  0  0  0  0  0
    8.5891   13.8668   22.0633 N   0  0  0  0  0  0  0  0  0  0  0  0
    8.4412   15.0202   21.4566 C   0  0  0  0  0  0  0  0  0  0  0  0
    9.5812   15.7110   21.2260 O   0  0  0  0  0  0  0  0  0  0  0  0
   10.5442   14.9529   21.8183 C   0  0  0  0  0  0  0  0  0  0  0  0
   11.9149   15.4708   21.7537 C   0  0  0  0  0  0  0  0  0  0  0  0
  1  2  1  0
  2  3  2  0
  3  4  1  0
  4  5  2  0
  5  6  1  0
  5  7  1  0
  7  8  2  0
  8  9  1  0
  9 10  2  0
  9 11  1  0
 11 12  1  0
 12 13  1  0
 13 14  1  0
 14 15  1  0
 15 16  2  0
 16 17  1  0
 17 18  1  0
 18 19  1  0
  8  2  1  0
 18 14  2  0
M  END
>  <energy_score>  (1562) 
-0.963605

>  <inchikey>  (1562) 
QJXGJNXCMRTAMS-UHFFFAOYSA-N

>  <smiles>  (1562) 
Cc1ccc(Br)cc1C(=O)NCCc1ncoc1C

>  <ref_pdb>  (1562) 
A0514a

>  <alias>  (1562) 
QJXGJNXCMRTAMS-UHFFFAOYSA-N-P637-P178-P637-601502

>  <HIPPO Pose ID>  (1562) 
503648

>  <name>  (1562) 
QJXGJNXCMRTAMS-UHFFFAOYSA-N-P637-P178-P637-601502

>  <HIPPO Compound ID>  (1562) 
306241

>  <ref_mols>  (1562) 
A3408a,A5594a

>  <distance_score>  (1562) 
1.933384

>  <inspiration_score>  (1562) 
None

$$$$
BWCBNWZPONGZGT-UHFFFAOYSA-N-P637-P178-P637-601502
     RDKit          3D

 19 20  0  0  0  0  0  0  0  0999 V2000
    6.8130   14.0404   23.9301 C   0  0  0  0  0  0  0  0  0  0  0  0
    6.4325   13.0112   24.9466 C   0  0  0  0  0  0  0  0  0  0  0  0
    5.3397   13.3177   25.7668 C   0  0  0  0  0  0  0  0  0  0  0  0
    4.8318   12.3785   26.6510 C   0  0  0  0  0  0  0  0  0  0  0  0
    5.3940   11.1087   26.7061 C   0  0  0  0  0  0  0  0  0  0  0  0
    4.5699    9.7856   28.0786 I   0  0  0  0  0  0  0  0  0  0  0  0
    6.4948   10.7853   25.9083 C   0  0  0  0  0  0  0  0  0  0  0  0
    7.0665   11.7650   25.0785 C   0  0  0  0  0  0  0  0  0  0  0  0
    8.3357   11.4279   24.3493 C   0  0  0  0  0  0  0  0  0  0  0  0
    8.4202   10.3852   23.8376 O   0  0  0  0  0  0  0  0  0  0  0  0
    9.3348   12.6028   24.3954 N   0  0  0  0  0  0  0  0  0  0  0  0
   10.6111   12.7760   23.7396 C   0  0  0  0  0  0  0  0  0  0  0  0
   11.0899   14.2218   23.7352 C   0  0  0  0  0  0  0  0  0  0  0  0
   10.3555   15.0127   22.7299 C   0  0  0  0  0  0  0  0  0  0  0  0
    9.1393   15.5813   23.0040 N   0  0  0  0  0  0  0  0  0  0  0  0
    8.7997   16.1408   21.8628 C   0  0  0  0  0  0  0  0  0  0  0  0
    9.6851   15.9718   20.8505 O   0  0  0  0  0  0  0  0  0  0  0  0
   10.6990   15.2706   21.4248 C   0  0  0  0  0  0  0  0  0  0  0  0
   11.8504   14.9611   20.5786 C   0  0  0  0  0  0  0  0  0  0  0  0
  1  2  1  0
  2  3  2  0
  3  4  1  0
  4  5  2  0
  5  6  1  0
  5  7  1  0
  7  8  2  0
  8  9  1  0
  9 10  2  0
  9 11  1  0
 11 12  1  0
 12 13  1  0
 13 14  1  0
 14 15  1  0
 15 16  2  0
 16 17  1  0
 17 18  1  0
 18 19  1  0
  8  2  1  0
 18 14  2  0
M  END
>  <energy_score>  (1563) 
-4.945477

>  <inchikey>  (1563) 
BWCBNWZPONGZGT-UHFFFAOYSA-N

>  <smiles>  (1563) 
Cc1ccc(I)cc1C(=O)NCCc1ncoc1C

>  <ref_pdb>  (1563) 
A0514a

>  <alias>  (1563) 
BWCBNWZPONGZGT-UHFFFAOYSA-N-P637-P178-P637-601502

>  <HIPPO Pose ID>  (1563) 
503662

>  <name>  (1563) 
BWCBNWZPONGZGT-UHFFFAOYSA-N-P637-P178-P637-601502

>  <HIPPO Compound ID>  (1563) 
306255

>  <ref_mols>  (1563) 
A3408a,A5594a

>  <distance_score>  (1563) 
1.476185

>  <inspiration_score>  (1563) 
None

$$$$
XMQBKDVBLVABMW-UHFFFAOYSA-N-P637-P178-P637-601502
     RDKit          3D

 19 20  0  0  0  0  0  0  0  0999 V2000
    7.0696   14.0619   24.3572 C   0  0  0  0  0  0  0  0  0  0  0  0
    6.7545   12.7679   25.0369 C   0  0  0  0  0  0  0  0  0  0  0  0
    5.6376   12.7344   25.8862 C   0  0  0  0  0  0  0  0  0  0  0  0
    5.1947   11.5305   26.4117 C   0  0  0  0  0  0  0  0  0  0  0  0
    4.1050   11.5127   27.1902 F   0  0  0  0  0  0  0  0  0  0  0  0
    5.8428   10.3449   26.1067 C   0  0  0  0  0  0  0  0  0  0  0  0
    6.9883   10.3697   25.3075 C   0  0  0  0  0  0  0  0  0  0  0  0
    7.4801   11.5853   24.8067 C   0  0  0  0  0  0  0  0  0  0  0  0
    8.7458   11.5332   24.0010 C   0  0  0  0  0  0  0  0  0  0  0  0
    8.8647   10.6780   23.2216 O   0  0  0  0  0  0  0  0  0  0  0  0
    9.7141   12.6588   24.4009 N   0  0  0  0  0  0  0  0  0  0  0  0
   10.9997   13.0272   23.8571 C   0  0  0  0  0  0  0  0  0  0  0  0
   11.2279   14.5317   23.8468 C   0  0  0  0  0  0  0  0  0  0  0  0
   10.4012   15.1711   22.8042 C   0  0  0  0  0  0  0  0  0  0  0  0
    9.1631   15.6933   23.0759 N   0  0  0  0  0  0  0  0  0  0  0  0
    8.7522   16.1256   21.9025 C   0  0  0  0  0  0  0  0  0  0  0  0
    9.6028   15.8967   20.8708 O   0  0  0  0  0  0  0  0  0  0  0  0
   10.6762   15.3092   21.4648 C   0  0  0  0  0  0  0  0  0  0  0  0
   11.8111   14.9720   20.6054 C   0  0  0  0  0  0  0  0  0  0  0  0
  1  2  1  0
  2  3  2  0
  3  4  1  0
  4  5  1  0
  4  6  2  0
  6  7  1  0
  7  8  2  0
  8  9  1  0
  9 10  2  0
  9 11  1  0
 11 12  1  0
 12 13  1  0
 13 14  1  0
 14 15  1  0
 15 16  2  0
 16 17  1  0
 17 18  1  0
 18 19  1  0
  8  2  1  0
 18 14  2  0
M  END
>  <energy_score>  (1564) 
-7.64121

>  <inchikey>  (1564) 
XMQBKDVBLVABMW-UHFFFAOYSA-N

>  <smiles>  (1564) 
Cc1cc(F)ccc1C(=O)NCCc1ncoc1C

>  <ref_pdb>  (1564) 
A0514a

>  <alias>  (1564) 
XMQBKDVBLVABMW-UHFFFAOYSA-N-P637-P178-P637-601502

>  <HIPPO Pose ID>  (1564) 
503665

>  <name>  (1564) 
XMQBKDVBLVABMW-UHFFFAOYSA-N-P637-P178-P637-601502

>  <HIPPO Compound ID>  (1564) 
306258

>  <ref_mols>  (1564) 
A3408a,A5594a

>  <distance_score>  (1564) 
1.211698

>  <inspiration_score>  (1564) 
None

$$$$
OAMYKIXDYRQSQG-UHFFFAOYSA-N-P637-P178-P637-601502
     RDKit          3D

 19 20  0  0  0  0  0  0  0  0999 V2000
    9.9685   15.6505   20.0144 C   0  0  0  0  0  0  0  0  0  0  0  0
   10.3427   15.1439   21.3356 C   0  0  0  0  0  0  0  0  0  0  0  0
    9.7861   14.1883   22.0529 N   0  0  0  0  0  0  0  0  0  0  0  0
   10.7347   13.9367   23.0123 C   0  0  0  0  0  0  0  0  0  0  0  0
   10.6903   12.7315   23.8647 C   0  0  0  0  0  0  0  0  0  0  0  0
    9.7459   11.6546   23.3155 C   0  0  0  0  0  0  0  0  0  0  0  0
    8.4354   11.9343   23.8264 N   0  0  0  0  0  0  0  0  0  0  0  0
    7.6866   11.3365   25.0075 C   0  0  0  0  0  0  0  0  0  0  0  0
    7.9732   10.4662   25.7155 O   0  0  0  0  0  0  0  0  0  0  0  0
    6.4297   12.0508   25.3698 C   0  0  0  0  0  0  0  0  0  0  0  0
    5.3823   11.2943   25.9523 C   0  0  0  0  0  0  0  0  0  0  0  0
    5.3782    9.8001   26.0489 C   0  0  0  0  0  0  0  0  0  0  0  0
    4.3166   11.9489   26.5741 C   0  0  0  0  0  0  0  0  0  0  0  0
    4.2405   13.3296   26.5666 C   0  0  0  0  0  0  0  0  0  0  0  0
    5.2619   14.0778   25.9957 C   0  0  0  0  0  0  0  0  0  0  0  0
    6.3956   13.4645   25.4431 C   0  0  0  0  0  0  0  0  0  0  0  0
    7.5118   14.3921   25.0394 C   0  0  0  0  0  0  0  0  0  0  0  0
   11.7305   14.8777   22.9420 C   0  0  0  0  0  0  0  0  0  0  0  0
   11.4919   15.6590   21.8623 O   0  0  0  0  0  0  0  0  0  0  0  0
  1  2  1  0
  2  3  2  0
  3  4  1  0
  4  5  1  0
  5  6  1  0
  6  7  1  0
  7  8  1  0
  8  9  2  0
  8 10  1  0
 10 11  2  0
 11 12  1  0
 11 13  1  0
 13 14  2  0
 14 15  1  0
 15 16  2  0
 16 17  1  0
  4 18  2  0
 18 19  1  0
 19  2  1  0
 16 10  1  0
M  END
>  <energy_score>  (1565) 
-9.460664

>  <inchikey>  (1565) 
OAMYKIXDYRQSQG-UHFFFAOYSA-N

>  <smiles>  (1565) 
Cc1nc(CCNC(=O)c2c(C)cccc2C)co1

>  <ref_pdb>  (1565) 
A0514a

>  <alias>  (1565) 
OAMYKIXDYRQSQG-UHFFFAOYSA-N-P637-P178-P637-601502

>  <HIPPO Pose ID>  (1565) 
503669

>  <name>  (1565) 
OAMYKIXDYRQSQG-UHFFFAOYSA-N-P637-P178-P637-601502

>  <HIPPO Compound ID>  (1565) 
306262

>  <ref_mols>  (1565) 
A3408a,A5594a

>  <distance_score>  (1565) 
1.552809

>  <inspiration_score>  (1565) 
None

$$$$
SPMSOEPHPXNFEO-UHFFFAOYSA-N-P637-P178-P637-601502
     RDKit          3D

 19 20  0  0  0  0  0  0  0  0999 V2000
    5.2060    9.7205   26.2416 C   0  0  0  0  0  0  0  0  0  0  0  0
    5.3974   11.1981   26.1670 C   0  0  0  0  0  0  0  0  0  0  0  0
    4.4082   11.9655   26.8009 C   0  0  0  0  0  0  0  0  0  0  0  0
    4.4792   13.3486   26.8230 C   0  0  0  0  0  0  0  0  0  0  0  0
    5.5565   13.9897   26.2360 C   0  0  0  0  0  0  0  0  0  0  0  0
    6.5644   13.2405   25.6346 C   0  0  0  0  0  0  0  0  0  0  0  0
    7.6342   13.9488   25.1512 O   0  0  0  0  0  0  0  0  0  0  0  0
    6.5107   11.8315   25.5738 C   0  0  0  0  0  0  0  0  0  0  0  0
    7.6316   11.0056   24.9496 C   0  0  0  0  0  0  0  0  0  0  0  0
    7.7238    9.8797   25.2183 O   0  0  0  0  0  0  0  0  0  0  0  0
    8.5372   11.8993   24.1052 N   0  0  0  0  0  0  0  0  0  0  0  0
    9.6974   11.5822   23.3335 C   0  0  0  0  0  0  0  0  0  0  0  0
   10.5690   12.8384   23.2399 C   0  0  0  0  0  0  0  0  0  0  0  0
    9.9356   13.9705   22.5020 C   0  0  0  0  0  0  0  0  0  0  0  0
    8.5651   14.1316   22.4171 N   0  0  0  0  0  0  0  0  0  0  0  0
    8.4287   15.1978   21.6640 C   0  0  0  0  0  0  0  0  0  0  0  0
    9.5865   15.7654   21.2492 O   0  0  0  0  0  0  0  0  0  0  0  0
   10.5544   14.9908   21.8134 C   0  0  0  0  0  0  0  0  0  0  0  0
   11.9417   15.3812   21.5478 C   0  0  0  0  0  0  0  0  0  0  0  0
  1  2  1  0
  2  3  2  0
  3  4  1  0
  4  5  2  0
  5  6  1  0
  6  7  1  0
  6  8  2  0
  8  9  1  0
  9 10  2  0
  9 11  1  0
 11 12  1  0
 12 13  1  0
 13 14  1  0
 14 15  1  0
 15 16  2  0
 16 17  1  0
 17 18  1  0
 18 19  1  0
  8  2  1  0
 18 14  2  0
M  END
>  <energy_score>  (1566) 
-24.925266

>  <inchikey>  (1566) 
SPMSOEPHPXNFEO-UHFFFAOYSA-N

>  <smiles>  (1566) 
Cc1cccc(O)c1C(=O)NCCc1ncoc1C

>  <ref_pdb>  (1566) 
A0514a

>  <alias>  (1566) 
SPMSOEPHPXNFEO-UHFFFAOYSA-N-P637-P178-P637-601502

>  <HIPPO Pose ID>  (1566) 
503671

>  <name>  (1566) 
SPMSOEPHPXNFEO-UHFFFAOYSA-N-P637-P178-P637-601502

>  <HIPPO Compound ID>  (1566) 
306264

>  <ref_mols>  (1566) 
A3408a,A5594a

>  <distance_score>  (1566) 
1.78046

>  <inspiration_score>  (1566) 
None

$$$$
PZGYIPDAIOZVAY-UHFFFAOYSA-N-P637-P178-P637-601502
     RDKit          3D

 19 20  0  0  0  0  0  0  0  0999 V2000
    7.2754   13.9893   25.4715 C   0  0  0  0  0  0  0  0  0  0  0  0
    6.4561   12.7529   25.7123 C   0  0  0  0  0  0  0  0  0  0  0  0
    5.2792   12.9459   26.4641 C   0  0  0  0  0  0  0  0  0  0  0  0
    4.4769   11.8730   26.8484 C   0  0  0  0  0  0  0  0  0  0  0  0
    2.9349   12.1814   27.8985 Br  0  0  0  0  0  0  0  0  0  0  0  0
    4.8045   10.5831   26.4719 C   0  0  0  0  0  0  0  0  0  0  0  0
    5.9269   10.3804   25.6793 C   0  0  0  0  0  0  0  0  0  0  0  0
    6.7588   11.4467   25.2753 C   0  0  0  0  0  0  0  0  0  0  0  0
    8.0321   11.0012   24.6253 C   0  0  0  0  0  0  0  0  0  0  0  0
    8.3875    9.9416   24.9358 O   0  0  0  0  0  0  0  0  0  0  0  0
    8.7005   12.0479   23.7452 N   0  0  0  0  0  0  0  0  0  0  0  0
    9.9926   12.0592   23.1316 C   0  0  0  0  0  0  0  0  0  0  0  0
   10.7314   13.3635   23.3940 C   0  0  0  0  0  0  0  0  0  0  0  0
   10.1040   14.4634   22.6269 C   0  0  0  0  0  0  0  0  0  0  0  0
    8.7999   14.8442   22.8566 N   0  0  0  0  0  0  0  0  0  0  0  0
    8.5783   15.7465   21.9263 C   0  0  0  0  0  0  0  0  0  0  0  0
    9.6240   15.9871   21.0969 O   0  0  0  0  0  0  0  0  0  0  0  0
   10.6075   15.1687   21.5610 C   0  0  0  0  0  0  0  0  0  0  0  0
   11.8742   15.1807   20.8280 C   0  0  0  0  0  0  0  0  0  0  0  0
  1  2  1  0
  2  3  2  0
  3  4  1  0
  4  5  1  0
  4  6  2  0
  6  7  1  0
  7  8  2  0
  8  9  1  0
  9 10  2  0
  9 11  1  0
 11 12  1  0
 12 13  1  0
 13 14  1  0
 14 15  1  0
 15 16  2  0
 16 17  1  0
 17 18  1  0
 18 19  1  0
  8  2  1  0
 18 14  2  0
M  END
>  <energy_score>  (1567) 
-6.590005

>  <inchikey>  (1567) 
PZGYIPDAIOZVAY-UHFFFAOYSA-N

>  <smiles>  (1567) 
Cc1cc(Br)ccc1C(=O)NCCc1ncoc1C

>  <ref_pdb>  (1567) 
A0514a

>  <alias>  (1567) 
PZGYIPDAIOZVAY-UHFFFAOYSA-N-P637-P178-P637-601502

>  <HIPPO Pose ID>  (1567) 
503677

>  <name>  (1567) 
PZGYIPDAIOZVAY-UHFFFAOYSA-N-P637-P178-P637-601502

>  <HIPPO Compound ID>  (1567) 
306270

>  <ref_mols>  (1567) 
A3408a,A5594a

>  <distance_score>  (1567) 
1.729188

>  <inspiration_score>  (1567) 
None

$$$$
WRGSLYFIXGUZJY-UHFFFAOYSA-N-P637-P178-P637-601502
     RDKit          3D

 19 20  0  0  0  0  0  0  0  0999 V2000
    6.6141   14.3945   24.3215 C   0  0  0  0  0  0  0  0  0  0  0  0
    6.5481   13.0370   24.9573 C   0  0  0  0  0  0  0  0  0  0  0  0
    5.4535   12.7162   25.7697 C   0  0  0  0  0  0  0  0  0  0  0  0
    5.3109   11.4254   26.2686 C   0  0  0  0  0  0  0  0  0  0  0  0
    3.9029   11.0275   27.4657 Br  0  0  0  0  0  0  0  0  0  0  0  0
    6.2113   10.4291   25.9040 C   0  0  0  0  0  0  0  0  0  0  0  0
    7.3438   10.7509   25.1530 C   0  0  0  0  0  0  0  0  0  0  0  0
    7.5513   12.0746   24.7571 C   0  0  0  0  0  0  0  0  0  0  0  0
    8.9102   12.4837   24.2807 C   0  0  0  0  0  0  0  0  0  0  0  0
    9.4768   11.8676   23.4725 O   0  0  0  0  0  0  0  0  0  0  0  0
    9.3481   13.7321   25.0761 N   0  0  0  0  0  0  0  0  0  0  0  0
   10.5401   14.5386   24.9728 C   0  0  2  0  0  0  0  0  0  0  0  0
   10.7531   15.2878   26.2971 C   0  0  0  0  0  0  0  0  0  0  0  0
   10.3234   15.5990   23.9120 C   0  0  0  0  0  0  0  0  0  0  0  0
   10.3192   15.1584   22.5146 C   0  0  0  0  0  0  0  0  0  0  0  0
   11.3818   14.8090   21.7205 C   0  0  0  0  0  0  0  0  0  0  0  0
   10.9470   14.7897   20.4341 O   0  0  0  0  0  0  0  0  0  0  0  0
    9.6336   15.1119   20.5355 C   0  0  0  0  0  0  0  0  0  0  0  0
    9.1820   15.2825   21.7549 N   0  0  0  0  0  0  0  0  0  0  0  0
  1  2  1  0
  2  3  2  0
  3  4  1  0
  4  5  1  0
  4  6  2  0
  6  7  1  0
  7  8  2  0
  8  9  1  0
  9 10  2  0
  9 11  1  0
 11 12  1  0
 12 13  1  1
 12 14  1  0
 14 15  1  0
 15 16  2  0
 16 17  1  0
 17 18  1  0
 18 19  2  0
  8  2  1  0
 19 15  1  0
M  END
>  <energy_score>  (1568) 
-7.652906

>  <inchikey>  (1568) 
WRGSLYFIXGUZJY-UHFFFAOYSA-N

>  <smiles>  (1568) 
Cc1cc(Br)ccc1C(=O)NC(C)Cc1cocn1

>  <ref_pdb>  (1568) 
A0514a

>  <alias>  (1568) 
WRGSLYFIXGUZJY-UHFFFAOYSA-N-P637-P178-P637-601502

>  <HIPPO Pose ID>  (1568) 
503679

>  <name>  (1568) 
WRGSLYFIXGUZJY-UHFFFAOYSA-N-P637-P178-P637-601502

>  <HIPPO Compound ID>  (1568) 
306272

>  <ref_mols>  (1568) 
A3408a,A5594a

>  <distance_score>  (1568) 
1.236996

>  <inspiration_score>  (1568) 
None

$$$$
NSVXUVGOUCIDEY-UHFFFAOYSA-N-P637-P178-P637-601502
     RDKit          3D

 19 20  0  0  0  0  0  0  0  0999 V2000
   11.8005   15.0722   20.6782 C   0  0  0  0  0  0  0  0  0  0  0  0
   10.6759   15.3656   21.5687 C   0  0  0  0  0  0  0  0  0  0  0  0
    9.5837   15.9526   21.0127 O   0  0  0  0  0  0  0  0  0  0  0  0
    8.7324   16.1000   22.0591 C   0  0  0  0  0  0  0  0  0  0  0  0
    9.1692   15.6445   23.2182 N   0  0  0  0  0  0  0  0  0  0  0  0
   10.4165   15.1612   22.9033 C   0  0  0  0  0  0  0  0  0  0  0  0
   11.2568   14.4532   23.8889 C   0  0  0  0  0  0  0  0  0  0  0  0
   11.0112   12.9532   23.7945 C   0  0  0  0  0  0  0  0  0  0  0  0
    9.7039   12.5829   24.2768 N   0  0  0  0  0  0  0  0  0  0  0  0
    8.8281   11.3518   23.9562 C   0  0  0  0  0  0  0  0  0  0  0  0
    9.0587   10.4083   23.3129 O   0  0  0  0  0  0  0  0  0  0  0  0
    7.5205   11.4396   24.6731 C   0  0  0  0  0  0  0  0  0  0  0  0
    7.0483   10.3181   25.3557 C   0  0  0  0  0  0  0  0  0  0  0  0
    5.9228   10.4201   26.1787 C   0  0  0  0  0  0  0  0  0  0  0  0
    5.2723   11.6433   26.3332 C   0  0  0  0  0  0  0  0  0  0  0  0
    5.6859   12.7457   25.5892 C   0  0  0  0  0  0  0  0  0  0  0  0
    6.7729   12.6159   24.7190 C   0  0  0  0  0  0  0  0  0  0  0  0
    6.9690   13.6600   23.7083 C   0  0  0  0  0  0  0  0  0  0  0  0
    7.3278   13.3608   22.5747 O   0  0  0  0  0  0  0  0  0  0  0  0
  1  2  1  0
  2  3  1  0
  3  4  1  0
  4  5  2  0
  5  6  1  0
  6  7  1  0
  7  8  1  0
  8  9  1  0
  9 10  1  0
 10 11  2  0
 10 12  1  0
 12 13  2  0
 13 14  1  0
 14 15  2  0
 15 16  1  0
 16 17  2  0
 17 18  1  0
 18 19  2  0
  6  2  2  0
 17 12  1  0
M  END
>  <energy_score>  (1569) 
-2.616387

>  <inchikey>  (1569) 
NSVXUVGOUCIDEY-UHFFFAOYSA-N

>  <smiles>  (1569) 
Cc1ocnc1CCNC(=O)c1ccccc1C=O

>  <ref_pdb>  (1569) 
A0514a

>  <alias>  (1569) 
NSVXUVGOUCIDEY-UHFFFAOYSA-N-P637-P178-P637-601502

>  <HIPPO Pose ID>  (1569) 
503681

>  <name>  (1569) 
NSVXUVGOUCIDEY-UHFFFAOYSA-N-P637-P178-P637-601502

>  <HIPPO Compound ID>  (1569) 
306274

>  <ref_mols>  (1569) 
A3408a,A5594a

>  <distance_score>  (1569) 
1.579769

>  <inspiration_score>  (1569) 
None

$$$$
CTQNIHDSZAAVAC-UHFFFAOYSA-N-P637-P178-P637-601502
     RDKit          3D

 19 20  0  0  0  0  0  0  0  0999 V2000
    6.1960   14.5354   25.1950 C   0  0  0  0  0  0  0  0  0  0  0  0
    5.9206   13.1240   25.6327 C   0  0  0  0  0  0  0  0  0  0  0  0
    4.7632   12.8267   26.3562 C   0  0  0  0  0  0  0  0  0  0  0  0
    4.4796   11.5141   26.7382 C   0  0  0  0  0  0  0  0  0  0  0  0
    5.3323   10.4769   26.3739 C   0  0  0  0  0  0  0  0  0  0  0  0
    6.5004   10.7665   25.6839 C   0  0  0  0  0  0  0  0  0  0  0  0
    7.3282    9.7566   25.3830 F   0  0  0  0  0  0  0  0  0  0  0  0
    6.8152   12.0843   25.3476 C   0  0  0  0  0  0  0  0  0  0  0  0
    8.1433   12.4435   24.8165 C   0  0  0  0  0  0  0  0  0  0  0  0
    8.6326   13.4150   25.2224 O   0  0  0  0  0  0  0  0  0  0  0  0
    8.6375   11.4504   23.7770 N   0  0  0  0  0  0  0  0  0  0  0  0
    9.8760   11.3807   23.0795 C   0  0  0  0  0  0  0  0  0  0  0  0
   10.6067   12.7306   23.0418 C   0  0  0  0  0  0  0  0  0  0  0  0
    9.9156   13.8391   22.3314 C   0  0  0  0  0  0  0  0  0  0  0  0
    8.5522   13.8769   22.1251 N   0  0  0  0  0  0  0  0  0  0  0  0
    8.3693   15.0318   21.5315 C   0  0  0  0  0  0  0  0  0  0  0  0
    9.4972   15.7300   21.2542 O   0  0  0  0  0  0  0  0  0  0  0  0
   10.4911   14.9701   21.7916 C   0  0  0  0  0  0  0  0  0  0  0  0
   11.8584   15.4882   21.6692 C   0  0  0  0  0  0  0  0  0  0  0  0
  1  2  1  0
  2  3  2  0
  3  4  1  0
  4  5  2  0
  5  6  1  0
  6  7  1  0
  6  8  2  0
  8  9  1  0
  9 10  2  0
  9 11  1  0
 11 12  1  0
 12 13  1  0
 13 14  1  0
 14 15  1  0
 15 16  2  0
 16 17  1  0
 17 18  1  0
 18 19  1  0
  8  2  1  0
 18 14  2  0
M  END
>  <energy_score>  (1570) 
-3.915842

>  <inchikey>  (1570) 
CTQNIHDSZAAVAC-UHFFFAOYSA-N

>  <smiles>  (1570) 
Cc1cccc(F)c1C(=O)NCCc1ncoc1C

>  <ref_pdb>  (1570) 
A0514a

>  <alias>  (1570) 
CTQNIHDSZAAVAC-UHFFFAOYSA-N-P637-P178-P637-601502

>  <HIPPO Pose ID>  (1570) 
503687

>  <name>  (1570) 
CTQNIHDSZAAVAC-UHFFFAOYSA-N-P637-P178-P637-601502

>  <HIPPO Compound ID>  (1570) 
306280

>  <ref_mols>  (1570) 
A3408a,A5594a

>  <distance_score>  (1570) 
1.9167

>  <inspiration_score>  (1570) 
None

$$$$
IUBMMPAQRCKMEB-UHFFFAOYSA-N-P637-P178-P637-601502
     RDKit          3D

 19 20  0  0  0  0  0  0  0  0999 V2000
    7.4091   13.9561   25.3126 C   0  0  0  0  0  0  0  0  0  0  0  0
    6.4683   12.8453   25.6963 C   0  0  0  0  0  0  0  0  0  0  0  0
    5.3541   13.2573   26.4487 C   0  0  0  0  0  0  0  0  0  0  0  0
    4.4829   12.3348   27.0161 C   0  0  0  0  0  0  0  0  0  0  0  0
    4.6855   10.9804   26.8121 C   0  0  0  0  0  0  0  0  0  0  0  0
    3.7035    9.8598   27.6671 Cl  0  0  0  0  0  0  0  0  0  0  0  0
    5.7069   10.5465   25.9816 C   0  0  0  0  0  0  0  0  0  0  0  0
    6.6106   11.4660   25.4080 C   0  0  0  0  0  0  0  0  0  0  0  0
    7.8068   10.8247   24.7664 C   0  0  0  0  0  0  0  0  0  0  0  0
    8.0585    9.7521   25.1273 O   0  0  0  0  0  0  0  0  0  0  0  0
    8.5516   11.7438   23.8113 N   0  0  0  0  0  0  0  0  0  0  0  0
    9.8175   11.5840   23.1634 C   0  0  0  0  0  0  0  0  0  0  0  0
   10.6118   12.8882   23.2401 C   0  0  0  0  0  0  0  0  0  0  0  0
    9.9845   14.0007   22.4805 C   0  0  0  0  0  0  0  0  0  0  0  0
    8.6141   14.1230   22.3681 N   0  0  0  0  0  0  0  0  0  0  0  0
    8.4642   15.1968   21.6275 C   0  0  0  0  0  0  0  0  0  0  0  0
    9.6154   15.7874   21.2262 O   0  0  0  0  0  0  0  0  0  0  0  0
   10.5924   15.0307   21.7994 C   0  0  0  0  0  0  0  0  0  0  0  0
   11.9745   15.4505   21.5530 C   0  0  0  0  0  0  0  0  0  0  0  0
  1  2  1  0
  2  3  2  0
  3  4  1  0
  4  5  2  0
  5  6  1  0
  5  7  1  0
  7  8  2  0
  8  9  1  0
  9 10  2  0
  9 11  1  0
 11 12  1  0
 12 13  1  0
 13 14  1  0
 14 15  1  0
 15 16  2  0
 16 17  1  0
 17 18  1  0
 18 19  1  0
  8  2  1  0
 18 14  2  0
M  END
>  <energy_score>  (1571) 
-1.759711

>  <inchikey>  (1571) 
IUBMMPAQRCKMEB-UHFFFAOYSA-N

>  <smiles>  (1571) 
Cc1ccc(Cl)cc1C(=O)NCCc1ncoc1C

>  <ref_pdb>  (1571) 
A0514a

>  <alias>  (1571) 
IUBMMPAQRCKMEB-UHFFFAOYSA-N-P637-P178-P637-601502

>  <HIPPO Pose ID>  (1571) 
503690

>  <name>  (1571) 
IUBMMPAQRCKMEB-UHFFFAOYSA-N-P637-P178-P637-601502

>  <HIPPO Compound ID>  (1571) 
306283

>  <ref_mols>  (1571) 
A3408a,A5594a

>  <distance_score>  (1571) 
1.52149

>  <inspiration_score>  (1571) 
None

$$$$
OGLWVUIGHWZHIV-UHFFFAOYSA-N-P637-P178-P637-601502
     RDKit          3D

 19 20  0  0  0  0  0  0  0  0999 V2000
    7.2304   14.1146   22.7753 C   0  0  0  0  0  0  0  0  0  0  0  0
    7.2476   14.1737   24.2947 C   0  0  0  0  0  0  0  0  0  0  0  0
    6.8940   12.8610   24.9584 C   0  0  0  0  0  0  0  0  0  0  0  0
    5.7680   12.8332   25.8007 C   0  0  0  0  0  0  0  0  0  0  0  0
    5.2950   11.6354   26.3373 C   0  0  0  0  0  0  0  0  0  0  0  0
    5.9256   10.4370   26.0263 C   0  0  0  0  0  0  0  0  0  0  0  0
    7.0661   10.4424   25.2263 C   0  0  0  0  0  0  0  0  0  0  0  0
    7.5758   11.6505   24.7277 C   0  0  0  0  0  0  0  0  0  0  0  0
    8.8579   11.5697   23.9678 C   0  0  0  0  0  0  0  0  0  0  0  0
    8.9738   10.7809   23.1229 O   0  0  0  0  0  0  0  0  0  0  0  0
    9.8529   12.6061   24.5035 N   0  0  0  0  0  0  0  0  0  0  0  0
   11.1711   12.9565   24.0500 C   0  0  0  0  0  0  0  0  0  0  0  0
   11.4610   14.4371   24.2347 C   0  0  0  0  0  0  0  0  0  0  0  0
   11.3021   15.1114   22.9412 C   0  0  0  0  0  0  0  0  0  0  0  0
   12.2728   15.7172   22.1896 C   0  0  0  0  0  0  0  0  0  0  0  0
   11.7684   15.9626   20.9664 O   0  0  0  0  0  0  0  0  0  0  0  0
   10.5051   15.4714   21.0366 C   0  0  0  0  0  0  0  0  0  0  0  0
    9.7994   15.4619   19.7660 C   0  0  0  0  0  0  0  0  0  0  0  0
   10.1430   15.0184   22.2183 N   0  0  0  0  0  0  0  0  0  0  0  0
  1  2  1  0
  2  3  1  0
  3  4  2  0
  4  5  1  0
  5  6  2  0
  6  7  1  0
  7  8  2  0
  8  9  1  0
  9 10  2  0
  9 11  1  0
 11 12  1  0
 12 13  1  0
 13 14  1  0
 14 15  2  0
 15 16  1  0
 16 17  1  0
 17 18  1  0
 17 19  2  0
  8  3  1  0
 19 14  1  0
M  END
>  <energy_score>  (1572) 
-11.749265

>  <inchikey>  (1572) 
OGLWVUIGHWZHIV-UHFFFAOYSA-N

>  <smiles>  (1572) 
CCc1ccccc1C(=O)NCCc1coc(C)n1

>  <ref_pdb>  (1572) 
A0514a

>  <alias>  (1572) 
OGLWVUIGHWZHIV-UHFFFAOYSA-N-P637-P178-P637-601502

>  <HIPPO Pose ID>  (1572) 
503693

>  <name>  (1572) 
OGLWVUIGHWZHIV-UHFFFAOYSA-N-P637-P178-P637-601502

>  <HIPPO Compound ID>  (1572) 
306286

>  <ref_mols>  (1572) 
A3408a,A5594a

>  <distance_score>  (1572) 
1.15748

>  <inspiration_score>  (1572) 
None

$$$$
XROKWHOPPSZYRW-UHFFFAOYSA-N-P637-P178-P637-601502
     RDKit          3D

 19 20  0  0  0  0  0  0  0  0999 V2000
   12.0089   15.5235   21.5014 C   0  0  0  0  0  0  0  0  0  0  0  0
   10.6284   15.1331   21.7974 C   0  0  0  0  0  0  0  0  0  0  0  0
    9.6441   15.8868   21.2343 O   0  0  0  0  0  0  0  0  0  0  0  0
    8.4979   15.3338   21.7004 C   0  0  0  0  0  0  0  0  0  0  0  0
    8.6564   14.2737   22.4603 N   0  0  0  0  0  0  0  0  0  0  0  0
   10.0289   14.1326   22.5255 C   0  0  0  0  0  0  0  0  0  0  0  0
   10.6663   13.0250   23.2790 C   0  0  0  0  0  0  0  0  0  0  0  0
    9.8969   11.7173   23.1390 C   0  0  0  0  0  0  0  0  0  0  0  0
    8.6189   11.8099   23.7708 N   0  0  0  0  0  0  0  0  0  0  0  0
    7.9024   10.8422   24.6949 C   0  0  0  0  0  0  0  0  0  0  0  0
    8.1944    9.7747   25.0377 O   0  0  0  0  0  0  0  0  0  0  0  0
    6.6736   11.4077   25.3361 C   0  0  0  0  0  0  0  0  0  0  0  0
    5.7777   10.4132   25.7815 C   0  0  0  0  0  0  0  0  0  0  0  0
    4.6717   10.7219   26.5536 C   0  0  0  0  0  0  0  0  0  0  0  0
    4.4118   12.0481   26.8501 C   0  0  0  0  0  0  0  0  0  0  0  0
    5.2806   13.0535   26.4148 C   0  0  0  0  0  0  0  0  0  0  0  0
    4.8303   14.6760   26.8364 Cl  0  0  0  0  0  0  0  0  0  0  0  0
    6.4643   12.7587   25.7046 C   0  0  0  0  0  0  0  0  0  0  0  0
    7.4181   13.8899   25.4171 C   0  0  0  0  0  0  0  0  0  0  0  0
  1  2  1  0
  2  3  1  0
  3  4  1  0
  4  5  2  0
  5  6  1  0
  6  7  1  0
  7  8  1  0
  8  9  1  0
  9 10  1  0
 10 11  2  0
 10 12  1  0
 12 13  2  0
 13 14  1  0
 14 15  2  0
 15 16  1  0
 16 17  1  0
 16 18  2  0
 18 19  1  0
  6  2  2  0
 18 12  1  0
M  END
>  <energy_score>  (1573) 
-9.953491

>  <inchikey>  (1573) 
XROKWHOPPSZYRW-UHFFFAOYSA-N

>  <smiles>  (1573) 
Cc1ocnc1CCNC(=O)c1cccc(Cl)c1C

>  <ref_pdb>  (1573) 
A0514a

>  <alias>  (1573) 
XROKWHOPPSZYRW-UHFFFAOYSA-N-P637-P178-P637-601502

>  <HIPPO Pose ID>  (1573) 
503696

>  <name>  (1573) 
XROKWHOPPSZYRW-UHFFFAOYSA-N-P637-P178-P637-601502

>  <HIPPO Compound ID>  (1573) 
306289

>  <ref_mols>  (1573) 
A3408a,A5594a

>  <distance_score>  (1573) 
1.729258

>  <inspiration_score>  (1573) 
None

$$$$
ZQTVOQLPYNQASU-UHFFFAOYSA-N-P637-P178-P637-601502
     RDKit          3D

 19 20  0  0  0  0  0  0  0  0999 V2000
    7.9497   14.4030   25.3592 C   0  0  0  0  0  0  0  0  0  0  0  0
    6.7139   13.5982   25.6593 C   0  0  0  0  0  0  0  0  0  0  0  0
    5.6364   14.3434   26.1666 C   0  0  0  0  0  0  0  0  0  0  0  0
    4.4849   13.7268   26.6309 C   0  0  0  0  0  0  0  0  0  0  0  0
    4.3907   12.3503   26.5978 C   0  0  0  0  0  0  0  0  0  0  0  0
    5.4211   11.5891   26.0474 C   0  0  0  0  0  0  0  0  0  0  0  0
    5.1009    9.7453   26.1330 Br  0  0  0  0  0  0  0  0  0  0  0  0
    6.5740   12.1965   25.5241 C   0  0  0  0  0  0  0  0  0  0  0  0
    7.7036   11.3467   25.0341 C   0  0  0  0  0  0  0  0  0  0  0  0
    7.9352   10.3773   25.6226 O   0  0  0  0  0  0  0  0  0  0  0  0
    8.4318   11.9868   23.8621 N   0  0  0  0  0  0  0  0  0  0  0  0
    9.6614   11.6237   23.2168 C   0  0  0  0  0  0  0  0  0  0  0  0
   10.5617   12.8553   23.1068 C   0  0  0  0  0  0  0  0  0  0  0  0
    9.9540   13.9914   22.3654 C   0  0  0  0  0  0  0  0  0  0  0  0
    8.5879   14.1155   22.2004 N   0  0  0  0  0  0  0  0  0  0  0  0
    8.4664   15.2390   21.5333 C   0  0  0  0  0  0  0  0  0  0  0  0
    9.6300   15.8499   21.2083 O   0  0  0  0  0  0  0  0  0  0  0  0
   10.5863   15.0586   21.7684 C   0  0  0  0  0  0  0  0  0  0  0  0
   11.9764   15.4928   21.6038 C   0  0  0  0  0  0  0  0  0  0  0  0
  1  2  1  0
  2  3  2  0
  3  4  1  0
  4  5  2  0
  5  6  1  0
  6  7  1  0
  6  8  2  0
  8  9  1  0
  9 10  2  0
  9 11  1  0
 11 12  1  0
 12 13  1  0
 13 14  1  0
 14 15  1  0
 15 16  2  0
 16 17  1  0
 17 18  1  0
 18 19  1  0
  8  2  1  0
 18 14  2  0
M  END
>  <energy_score>  (1574) 
-7.72061

>  <inchikey>  (1574) 
ZQTVOQLPYNQASU-UHFFFAOYSA-N

>  <smiles>  (1574) 
Cc1cccc(Br)c1C(=O)NCCc1ncoc1C

>  <ref_pdb>  (1574) 
A0514a

>  <alias>  (1574) 
ZQTVOQLPYNQASU-UHFFFAOYSA-N-P637-P178-P637-601502

>  <HIPPO Pose ID>  (1574) 
503699

>  <name>  (1574) 
ZQTVOQLPYNQASU-UHFFFAOYSA-N-P637-P178-P637-601502

>  <HIPPO Compound ID>  (1574) 
306292

>  <ref_mols>  (1574) 
A3408a,A5594a

>  <distance_score>  (1574) 
1.730926

>  <inspiration_score>  (1574) 
None

$$$$
CUIPUQLLZJFLGC-UHFFFAOYSA-N-P637-P178-P637-601502
     RDKit          3D

 19 20  0  0  0  0  0  0  0  0999 V2000
    7.7927   14.3483   25.3756 C   0  0  0  0  0  0  0  0  0  0  0  0
    6.6432   13.4269   25.6774 C   0  0  0  0  0  0  0  0  0  0  0  0
    5.5370   14.0275   26.3018 C   0  0  0  0  0  0  0  0  0  0  0  0
    4.4673   13.2723   26.7657 C   0  0  0  0  0  0  0  0  0  0  0  0
    4.4719   11.9010   26.5914 C   0  0  0  0  0  0  0  0  0  0  0  0
    5.5200   11.2890   25.9093 C   0  0  0  0  0  0  0  0  0  0  0  0
    5.3593    9.5989   25.7204 Cl  0  0  0  0  0  0  0  0  0  0  0  0
    6.6057   12.0373   25.4250 C   0  0  0  0  0  0  0  0  0  0  0  0
    7.8042   11.3042   24.9383 C   0  0  0  0  0  0  0  0  0  0  0  0
    8.0950   10.3621   25.5432 O   0  0  0  0  0  0  0  0  0  0  0  0
    8.5063   11.9835   23.7759 N   0  0  0  0  0  0  0  0  0  0  0  0
    9.7735   11.7072   23.1609 C   0  0  0  0  0  0  0  0  0  0  0  0
   10.6390   12.9661   23.1652 C   0  0  0  0  0  0  0  0  0  0  0  0
   10.0329   14.0955   22.4135 C   0  0  0  0  0  0  0  0  0  0  0  0
    8.6645   14.2403   22.2884 N   0  0  0  0  0  0  0  0  0  0  0  0
    8.5398   15.3390   21.5809 C   0  0  0  0  0  0  0  0  0  0  0  0
    9.7037   15.9168   21.2005 O   0  0  0  0  0  0  0  0  0  0  0  0
   10.6622   15.1326   21.7655 C   0  0  0  0  0  0  0  0  0  0  0  0
   12.0518   15.5422   21.5548 C   0  0  0  0  0  0  0  0  0  0  0  0
  1  2  1  0
  2  3  2  0
  3  4  1  0
  4  5  2  0
  5  6  1  0
  6  7  1  0
  6  8  2  0
  8  9  1  0
  9 10  2  0
  9 11  1  0
 11 12  1  0
 12 13  1  0
 13 14  1  0
 14 15  1  0
 15 16  2  0
 16 17  1  0
 17 18  1  0
 18 19  1  0
  8  2  1  0
 18 14  2  0
M  END
>  <energy_score>  (1575) 
-4.534045

>  <inchikey>  (1575) 
CUIPUQLLZJFLGC-UHFFFAOYSA-N

>  <smiles>  (1575) 
Cc1cccc(Cl)c1C(=O)NCCc1ncoc1C

>  <ref_pdb>  (1575) 
A0514a

>  <alias>  (1575) 
CUIPUQLLZJFLGC-UHFFFAOYSA-N-P637-P178-P637-601502

>  <HIPPO Pose ID>  (1575) 
503702

>  <name>  (1575) 
CUIPUQLLZJFLGC-UHFFFAOYSA-N-P637-P178-P637-601502

>  <HIPPO Compound ID>  (1575) 
306295

>  <ref_mols>  (1575) 
A3408a,A5594a

>  <distance_score>  (1575) 
1.60565

>  <inspiration_score>  (1575) 
None

$$$$
LDIHPHSIUOWOAP-UHFFFAOYSA-N-P637-P178-P637-601502
     RDKit          3D

 19 20  0  0  0  0  0  0  0  0999 V2000
   10.2149   15.7602   19.7252 C   0  0  0  0  0  0  0  0  0  0  0  0
   10.3328   15.2860   21.1073 C   0  0  0  0  0  0  0  0  0  0  0  0
   10.1136   14.0796   21.5781 N   0  0  0  0  0  0  0  0  0  0  0  0
   10.6679   14.1215   22.8289 C   0  0  0  0  0  0  0  0  0  0  0  0
   10.9265   12.8896   23.5946 C   0  0  0  0  0  0  0  0  0  0  0  0
   10.0058   11.7421   23.1869 C   0  0  0  0  0  0  0  0  0  0  0  0
    8.6785   11.9083   23.6885 N   0  0  0  0  0  0  0  0  0  0  0  0
    8.1348   12.8456   24.7567 C   0  0  0  0  0  0  0  0  0  0  0  0
    8.6593   13.6925   25.3534 O   0  0  0  0  0  0  0  0  0  0  0  0
    6.7405   12.5283   25.1300 C   0  0  0  0  0  0  0  0  0  0  0  0
    6.3572   11.2349   25.5485 C   0  0  0  0  0  0  0  0  0  0  0  0
    7.1754   10.0176   25.2853 C   0  0  0  0  0  0  0  0  0  0  0  0
    5.1546   11.0827   26.2502 C   0  0  0  0  0  0  0  0  0  0  0  0
    4.3556   12.1901   26.5210 C   0  0  0  0  0  0  0  0  0  0  0  0
    4.7056   13.4459   26.0280 C   0  0  0  0  0  0  0  0  0  0  0  0
    5.8924   13.6137   25.3234 C   0  0  0  0  0  0  0  0  0  0  0  0
    6.2711   15.1713   24.6869 Cl  0  0  0  0  0  0  0  0  0  0  0  0
   11.0355   15.4050   23.1293 C   0  0  0  0  0  0  0  0  0  0  0  0
   10.8592   16.1601   22.0155 O   0  0  0  0  0  0  0  0  0  0  0  0
  1  2  1  0
  2  3  2  0
  3  4  1  0
  4  5  1  0
  5  6  1  0
  6  7  1  0
  7  8  1  0
  8  9  2  0
  8 10  1  0
 10 11  2  0
 11 12  1  0
 11 13  1  0
 13 14  2  0
 14 15  1  0
 15 16  2  0
 16 17  1  0
  4 18  2  0
 18 19  1  0
 19  2  1  0
 16 10  1  0
M  END
>  <energy_score>  (1576) 
-18.694163

>  <inchikey>  (1576) 
LDIHPHSIUOWOAP-UHFFFAOYSA-N

>  <smiles>  (1576) 
Cc1nc(CCNC(=O)c2c(C)cccc2Cl)co1

>  <ref_pdb>  (1576) 
A0514a

>  <alias>  (1576) 
LDIHPHSIUOWOAP-UHFFFAOYSA-N-P637-P178-P637-601502

>  <HIPPO Pose ID>  (1576) 
503703

>  <name>  (1576) 
LDIHPHSIUOWOAP-UHFFFAOYSA-N-P637-P178-P637-601502

>  <HIPPO Compound ID>  (1576) 
306296

>  <ref_mols>  (1576) 
A3408a,A5594a

>  <distance_score>  (1576) 
1.751136

>  <inspiration_score>  (1576) 
None

$$$$
XMEBKAHQBYWMCY-UHFFFAOYSA-N-P637-P178-P637-601502
     RDKit          3D

 19 20  0  0  0  0  0  0  0  0999 V2000
   10.8642   15.3311   19.0845 C   0  0  0  0  0  0  0  0  0  0  0  0
   10.7110   15.2206   20.5359 C   0  0  0  0  0  0  0  0  0  0  0  0
    9.6200   14.9678   21.2173 N   0  0  0  0  0  0  0  0  0  0  0  0
   10.0767   14.8058   22.4955 C   0  0  0  0  0  0  0  0  0  0  0  0
    9.1376   14.3008   23.4937 C   0  0  0  0  0  0  0  0  0  0  0  0
    8.3354   13.1680   22.8549 C   0  0  0  0  0  0  0  0  0  0  0  0
    7.4272   12.6342   23.7991 N   0  0  0  0  0  0  0  0  0  0  0  0
    7.5957   11.5071   24.8031 C   0  0  0  0  0  0  0  0  0  0  0  0
    8.4783   10.7780   24.9720 O   0  0  0  0  0  0  0  0  0  0  0  0
    6.4429   11.4851   25.7114 C   0  0  0  0  0  0  0  0  0  0  0  0
    5.8615   10.2550   26.0114 C   0  0  0  0  0  0  0  0  0  0  0  0
    4.8382   10.2268   26.9394 C   0  0  0  0  0  0  0  0  0  0  0  0
    4.2638    9.0663   27.3587 O   0  0  0  0  0  0  0  0  0  0  0  0
    4.3692   11.4014   27.5171 C   0  0  0  0  0  0  0  0  0  0  0  0
    4.9710   12.6239   27.2276 C   0  0  0  0  0  0  0  0  0  0  0  0
    6.0574   12.6801   26.3584 C   0  0  0  0  0  0  0  0  0  0  0  0
    6.7551   14.0037   26.1749 C   0  0  0  0  0  0  0  0  0  0  0  0
   11.4228   15.0550   22.5574 C   0  0  0  0  0  0  0  0  0  0  0  0
   11.8436   15.3319   21.2935 O   0  0  0  0  0  0  0  0  0  0  0  0
  1  2  1  0
  2  3  2  0
  3  4  1  0
  4  5  1  0
  5  6  1  0
  6  7  1  0
  7  8  1  0
  8  9  2  0
  8 10  1  0
 10 11  2  0
 11 12  1  0
 12 13  1  0
 12 14  2  0
 14 15  1  0
 15 16  2  0
 16 17  1  0
  4 18  2  0
 18 19  1  0
 19  2  1  0
 16 10  1  0
M  END
>  <energy_score>  (1577) 
-20.078065

>  <inchikey>  (1577) 
XMEBKAHQBYWMCY-UHFFFAOYSA-N

>  <smiles>  (1577) 
Cc1nc(CCNC(=O)c2cc(O)ccc2C)co1

>  <ref_pdb>  (1577) 
A0514a

>  <alias>  (1577) 
XMEBKAHQBYWMCY-UHFFFAOYSA-N-P637-P178-P637-601502

>  <HIPPO Pose ID>  (1577) 
503705

>  <name>  (1577) 
XMEBKAHQBYWMCY-UHFFFAOYSA-N-P637-P178-P637-601502

>  <HIPPO Compound ID>  (1577) 
306298

>  <ref_mols>  (1577) 
A3408a,A5594a

>  <distance_score>  (1577) 
1.835343

>  <inspiration_score>  (1577) 
None

$$$$
TWFRZASFWPOYPK-UHFFFAOYSA-N-P637-P178-P637-601502
     RDKit          3D

 19 20  0  0  0  0  0  0  0  0999 V2000
    4.5454   13.7071   26.1265 C   0  0  0  0  0  0  0  0  0  0  0  0
    5.5770   12.6726   25.7677 C   0  0  0  0  0  0  0  0  0  0  0  0
    5.3656   11.3482   26.1673 C   0  0  0  0  0  0  0  0  0  0  0  0
    6.2399   10.3396   25.7733 C   0  0  0  0  0  0  0  0  0  0  0  0
    7.3860   10.6430   25.0448 C   0  0  0  0  0  0  0  0  0  0  0  0
    7.6403   11.9680   24.6870 C   0  0  0  0  0  0  0  0  0  0  0  0
    8.9782   12.2924   24.0972 C   0  0  0  0  0  0  0  0  0  0  0  0
    9.3882   11.6974   23.1851 O   0  0  0  0  0  0  0  0  0  0  0  0
    9.6182   13.4312   24.9172 N   0  0  0  0  0  0  0  0  0  0  0  0
   10.8596   14.1408   24.7255 C   0  0  1  0  0  0  0  0  0  0  0  0
   11.9885   13.3191   24.1359 C   0  0  0  0  0  0  0  0  0  0  0  0
   10.6153   15.4564   24.0027 C   0  0  0  0  0  0  0  0  0  0  0  0
   10.4262   15.3250   22.5523 C   0  0  0  0  0  0  0  0  0  0  0  0
   11.3768   15.3223   21.5586 C   0  0  0  0  0  0  0  0  0  0  0  0
   10.7323   15.2190   20.3691 O   0  0  0  0  0  0  0  0  0  0  0  0
    9.4234   15.1726   20.7211 C   0  0  0  0  0  0  0  0  0  0  0  0
    9.1749   15.2172   22.0076 N   0  0  0  0  0  0  0  0  0  0  0  0
    6.6927   12.9765   24.9604 C   0  0  0  0  0  0  0  0  0  0  0  0
    6.8454   14.3460   24.3588 C   0  0  0  0  0  0  0  0  0  0  0  0
  1  2  1  0
  2  3  2  0
  3  4  1  0
  4  5  2  0
  5  6  1  0
  6  7  1  0
  7  8  2  0
  7  9  1  0
  9 10  1  0
 10 11  1  6
 10 12  1  0
 12 13  1  0
 13 14  2  0
 14 15  1  0
 15 16  1  0
 16 17  2  0
  6 18  2  0
 18 19  1  0
 18  2  1  0
 17 13  1  0
M  END
>  <energy_score>  (1578) 
-7.223807

>  <inchikey>  (1578) 
TWFRZASFWPOYPK-UHFFFAOYSA-N

>  <smiles>  (1578) 
Cc1cccc(C(=O)NC(C)Cc2cocn2)c1C

>  <ref_pdb>  (1578) 
A0514a

>  <alias>  (1578) 
TWFRZASFWPOYPK-UHFFFAOYSA-N-P637-P178-P637-601502

>  <HIPPO Pose ID>  (1578) 
503708

>  <name>  (1578) 
TWFRZASFWPOYPK-UHFFFAOYSA-N-P637-P178-P637-601502

>  <HIPPO Compound ID>  (1578) 
306301

>  <ref_mols>  (1578) 
A3408a,A5594a

>  <distance_score>  (1578) 
1.645292

>  <inspiration_score>  (1578) 
None

$$$$
IVLUXAZQIRRFDV-UHFFFAOYSA-N-P637-P178-P637-601502
     RDKit          3D

 19 20  0  0  0  0  0  0  0  0999 V2000
    7.4250   14.4463   24.8582 C   0  0  0  0  0  0  0  0  0  0  0  0
    7.1955   13.0189   25.2426 C   0  0  0  0  0  0  0  0  0  0  0  0
    6.0620   12.7463   26.0360 C   0  0  0  0  0  0  0  0  0  0  0  0
    5.6619   11.4400   26.2908 C   0  0  0  0  0  0  0  0  0  0  0  0
    4.2925   11.1427   27.2862 Cl  0  0  0  0  0  0  0  0  0  0  0  0
    6.3652   10.3821   25.7360 C   0  0  0  0  0  0  0  0  0  0  0  0
    7.5082   10.6317   24.9688 C   0  0  0  0  0  0  0  0  0  0  0  0
    7.9575   11.9476   24.7421 C   0  0  0  0  0  0  0  0  0  0  0  0
    9.1833   12.1019   23.8829 C   0  0  0  0  0  0  0  0  0  0  0  0
    9.2255   11.4407   22.9249 O   0  0  0  0  0  0  0  0  0  0  0  0
   10.2018   13.1174   24.4427 N   0  0  0  0  0  0  0  0  0  0  0  0
   11.4588   13.6073   23.8825 C   0  0  2  0  0  0  0  0  0  0  0  0
   12.5960   13.5591   24.8815 C   0  0  0  0  0  0  0  0  0  0  0  0
   11.3351   15.0537   23.3949 C   0  0  0  0  0  0  0  0  0  0  0  0
   10.3781   15.1449   22.2907 C   0  0  0  0  0  0  0  0  0  0  0  0
   10.6019   14.9652   20.9504 C   0  0  0  0  0  0  0  0  0  0  0  0
    9.4021   15.0615   20.3219 O   0  0  0  0  0  0  0  0  0  0  0  0
    8.5230   15.2756   21.3318 C   0  0  0  0  0  0  0  0  0  0  0  0
    9.0497   15.3637   22.5269 N   0  0  0  0  0  0  0  0  0  0  0  0
  1  2  1  0
  2  3  2  0
  3  4  1  0
  4  5  1  0
  4  6  2  0
  6  7  1  0
  7  8  2  0
  8  9  1  0
  9 10  2  0
  9 11  1  0
 11 12  1  0
 12 13  1  1
 12 14  1  0
 14 15  1  0
 15 16  2  0
 16 17  1  0
 17 18  1  0
 18 19  2  0
  8  2  1  0
 19 15  1  0
M  END
>  <energy_score>  (1579) 
-4.125073

>  <inchikey>  (1579) 
IVLUXAZQIRRFDV-UHFFFAOYSA-N

>  <smiles>  (1579) 
Cc1cc(Cl)ccc1C(=O)NC(C)Cc1cocn1

>  <ref_pdb>  (1579) 
A0514a

>  <alias>  (1579) 
IVLUXAZQIRRFDV-UHFFFAOYSA-N-P637-P178-P637-601502

>  <HIPPO Pose ID>  (1579) 
503710

>  <name>  (1579) 
IVLUXAZQIRRFDV-UHFFFAOYSA-N-P637-P178-P637-601502

>  <HIPPO Compound ID>  (1579) 
306303

>  <ref_mols>  (1579) 
A3408a,A5594a

>  <distance_score>  (1579) 
1.295297

>  <inspiration_score>  (1579) 
None

$$$$
IPZLCXUWTRRBKQ-UHFFFAOYSA-N-P637-P178-P637-601502
     RDKit          3D

 19 20  0  0  0  0  0  0  0  0999 V2000
    7.1085   14.6480   25.1973 C   0  0  0  0  0  0  0  0  0  0  0  0
    6.6200   13.2944   25.6130 C   0  0  0  0  0  0  0  0  0  0  0  0
    5.7476   13.1741   26.6922 C   0  0  0  0  0  0  0  0  0  0  0  0
    5.3033   11.9196   27.0881 C   0  0  0  0  0  0  0  0  0  0  0  0
    5.7340   10.7746   26.4235 C   0  0  0  0  0  0  0  0  0  0  0  0
    5.2563    9.6147   26.9460 O   0  0  0  0  0  0  0  0  0  0  0  0
    6.6046   10.8583   25.3407 C   0  0  0  0  0  0  0  0  0  0  0  0
    7.0236   12.1352   24.9309 C   0  0  0  0  0  0  0  0  0  0  0  0
    7.9383   12.3386   23.7785 C   0  0  0  0  0  0  0  0  0  0  0  0
    7.5133   12.5128   22.7127 O   0  0  0  0  0  0  0  0  0  0  0  0
    9.3784   12.3719   24.2888 N   0  0  0  0  0  0  0  0  0  0  0  0
   10.6034   12.7212   23.6142 C   0  0  0  0  0  0  0  0  0  0  0  0
   10.9532   14.1985   23.7442 C   0  0  0  0  0  0  0  0  0  0  0  0
   10.2289   14.9989   22.7457 C   0  0  0  0  0  0  0  0  0  0  0  0
    8.9959   15.5306   23.0044 N   0  0  0  0  0  0  0  0  0  0  0  0
    8.6564   16.0790   21.8592 C   0  0  0  0  0  0  0  0  0  0  0  0
    9.5778   15.9677   20.8679 O   0  0  0  0  0  0  0  0  0  0  0  0
   10.6010   15.2912   21.4558 C   0  0  0  0  0  0  0  0  0  0  0  0
   11.7820   15.0211   20.6346 C   0  0  0  0  0  0  0  0  0  0  0  0
  1  2  1  0
  2  3  2  0
  3  4  1  0
  4  5  2  0
  5  6  1  0
  5  7  1  0
  7  8  2  0
  8  9  1  0
  9 10  2  0
  9 11  1  0
 11 12  1  0
 12 13  1  0
 13 14  1  0
 14 15  1  0
 15 16  2  0
 16 17  1  0
 17 18  1  0
 18 19  1  0
  8  2  1  0
 18 14  2  0
M  END
>  <energy_score>  (1580) 
-5.250631

>  <inchikey>  (1580) 
IPZLCXUWTRRBKQ-UHFFFAOYSA-N

>  <smiles>  (1580) 
Cc1ccc(O)cc1C(=O)NCCc1ncoc1C

>  <ref_pdb>  (1580) 
A0514a

>  <alias>  (1580) 
IPZLCXUWTRRBKQ-UHFFFAOYSA-N-P637-P178-P637-601502

>  <HIPPO Pose ID>  (1580) 
503712

>  <name>  (1580) 
IPZLCXUWTRRBKQ-UHFFFAOYSA-N-P637-P178-P637-601502

>  <HIPPO Compound ID>  (1580) 
306305

>  <ref_mols>  (1580) 
A3408a,A5594a

>  <distance_score>  (1580) 
1.776438

>  <inspiration_score>  (1580) 
None

$$$$
HTNQUOAJSUCZCK-UHFFFAOYSA-N-P637-P178-P637-601502
     RDKit          3D

 19 20  0  0  0  0  0  0  0  0999 V2000
    3.1460   12.5985   27.6949 C   0  0  0  0  0  0  0  0  0  0  0  0
    4.3242   12.1965   26.8580 C   0  0  0  0  0  0  0  0  0  0  0  0
    4.5849   10.8529   26.6153 C   0  0  0  0  0  0  0  0  0  0  0  0
    5.6778   10.4937   25.8404 C   0  0  0  0  0  0  0  0  0  0  0  0
    6.5689   11.4576   25.3294 C   0  0  0  0  0  0  0  0  0  0  0  0
    7.8220   10.8715   24.7636 C   0  0  0  0  0  0  0  0  0  0  0  0
    8.0938    9.8132   25.1507 O   0  0  0  0  0  0  0  0  0  0  0  0
    8.5853   11.8110   23.8452 N   0  0  0  0  0  0  0  0  0  0  0  0
    9.8904   11.6969   23.2773 C   0  0  0  0  0  0  0  0  0  0  0  0
   10.7665   12.8055   23.8681 C   0  0  0  0  0  0  0  0  0  0  0  0
   10.7765   14.0120   23.0196 C   0  0  0  0  0  0  0  0  0  0  0  0
   11.7751   14.9437   22.8952 C   0  0  0  0  0  0  0  0  0  0  0  0
   11.5022   15.7057   21.8095 O   0  0  0  0  0  0  0  0  0  0  0  0
   10.3314   15.1869   21.3381 C   0  0  0  0  0  0  0  0  0  0  0  0
    9.9224   15.6482   20.0127 C   0  0  0  0  0  0  0  0  0  0  0  0
    9.7899   14.2589   22.0994 N   0  0  0  0  0  0  0  0  0  0  0  0
    6.3548   12.8228   25.6207 C   0  0  0  0  0  0  0  0  0  0  0  0
    7.2565   13.9702   25.2471 C   0  0  0  0  0  0  0  0  0  0  0  0
    5.2044   13.1646   26.3581 C   0  0  0  0  0  0  0  0  0  0  0  0
  1  2  1  0
  2  3  2  0
  3  4  1  0
  4  5  2  0
  5  6  1  0
  6  7  2  0
  6  8  1  0
  8  9  1  0
  9 10  1  0
 10 11  1  0
 11 12  2  0
 12 13  1  0
 13 14  1  0
 14 15  1  0
 14 16  2  0
  5 17  1  0
 17 18  1  0
 17 19  2  0
 19  2  1  0
 16 11  1  0
M  END
>  <energy_score>  (1581) 
-2.732321

>  <inchikey>  (1581) 
HTNQUOAJSUCZCK-UHFFFAOYSA-N

>  <smiles>  (1581) 
Cc1ccc(C(=O)NCCc2coc(C)n2)c(C)c1

>  <ref_pdb>  (1581) 
A0514a

>  <alias>  (1581) 
HTNQUOAJSUCZCK-UHFFFAOYSA-N-P637-P178-P637-601502

>  <HIPPO Pose ID>  (1581) 
503717

>  <name>  (1581) 
HTNQUOAJSUCZCK-UHFFFAOYSA-N-P637-P178-P637-601502

>  <HIPPO Compound ID>  (1581) 
306310

>  <ref_mols>  (1581) 
A3408a,A5594a

>  <distance_score>  (1581) 
1.705446

>  <inspiration_score>  (1581) 
None

$$$$
ZQWQSLMHSKINMQ-UHFFFAOYSA-N-P637-P178-P637-601502
     RDKit          3D

 19 20  0  0  0  0  0  0  0  0999 V2000
    6.8392   14.1401   24.2699 C   0  0  0  0  0  0  0  0  0  0  0  0
    6.5462   12.9469   25.1274 C   0  0  0  0  0  0  0  0  0  0  0  0
    5.4439   13.0141   25.9927 C   0  0  0  0  0  0  0  0  0  0  0  0
    5.0151   11.8841   26.6776 C   0  0  0  0  0  0  0  0  0  0  0  0
    5.6664   10.6781   26.4767 C   0  0  0  0  0  0  0  0  0  0  0  0
    5.2444    9.6063   27.1525 F   0  0  0  0  0  0  0  0  0  0  0  0
    6.7705   10.5848   25.6411 C   0  0  0  0  0  0  0  0  0  0  0  0
    7.2550   11.7362   25.0132 C   0  0  0  0  0  0  0  0  0  0  0  0
    8.5271   11.5988   24.2420 C   0  0  0  0  0  0  0  0  0  0  0  0
    8.6480   10.6906   23.5242 O   0  0  0  0  0  0  0  0  0  0  0  0
    9.5063   12.7372   24.5852 N   0  0  0  0  0  0  0  0  0  0  0  0
   10.8054   13.0495   24.0445 C   0  0  0  0  0  0  0  0  0  0  0  0
   10.7911   13.0794   22.5309 C   0  0  0  0  0  0  0  0  0  0  0  0
   10.1462   14.3019   22.0346 C   0  0  0  0  0  0  0  0  0  0  0  0
    8.7875   14.4437   21.9419 N   0  0  0  0  0  0  0  0  0  0  0  0
    8.6490   15.6758   21.5098 C   0  0  0  0  0  0  0  0  0  0  0  0
    9.8058   16.3407   21.2655 O   0  0  0  0  0  0  0  0  0  0  0  0
   10.7670   15.4556   21.6330 C   0  0  0  0  0  0  0  0  0  0  0  0
   12.1625   15.8734   21.5287 C   0  0  0  0  0  0  0  0  0  0  0  0
  1  2  1  0
  2  3  2  0
  3  4  1  0
  4  5  2  0
  5  6  1  0
  5  7  1  0
  7  8  2  0
  8  9  1  0
  9 10  2  0
  9 11  1  0
 11 12  1  0
 12 13  1  0
 13 14  1  0
 14 15  1  0
 15 16  2  0
 16 17  1  0
 17 18  1  0
 18 19  1  0
  8  2  1  0
 18 14  2  0
M  END
>  <energy_score>  (1582) 
-1.163801

>  <inchikey>  (1582) 
ZQWQSLMHSKINMQ-UHFFFAOYSA-N

>  <smiles>  (1582) 
Cc1ccc(F)cc1C(=O)NCCc1ncoc1C

>  <ref_pdb>  (1582) 
A0514a

>  <alias>  (1582) 
ZQWQSLMHSKINMQ-UHFFFAOYSA-N-P637-P178-P637-601502

>  <HIPPO Pose ID>  (1582) 
503723

>  <name>  (1582) 
ZQWQSLMHSKINMQ-UHFFFAOYSA-N-P637-P178-P637-601502

>  <HIPPO Compound ID>  (1582) 
306316

>  <ref_mols>  (1582) 
A3408a,A5594a

>  <distance_score>  (1582) 
1.556575

>  <inspiration_score>  (1582) 
None

$$$$
PGAJFGJQXFMSEH-UHFFFAOYSA-N-P637-P178-P637-601502
     RDKit          3D

 20 21  0  0  0  0  0  0  0  0999 V2000
    6.8669   14.2308   24.0483 C   0  0  0  0  0  0  0  0  0  0  0  0
    6.4394   13.1313   24.9744 C   0  0  0  0  0  0  0  0  0  0  0  0
    5.3087   13.3507   25.7725 C   0  0  0  0  0  0  0  0  0  0  0  0
    4.7961   12.3365   26.5759 C   0  0  0  0  0  0  0  0  0  0  0  0
    5.3952   11.0822   26.5732 C   0  0  0  0  0  0  0  0  0  0  0  0
    4.7492    9.8773   27.6147 Cl  0  0  0  0  0  0  0  0  0  0  0  0
    6.5274   10.8525   25.7970 C   0  0  0  0  0  0  0  0  0  0  0  0
    7.1114    9.6490   25.8229 F   0  0  0  0  0  0  0  0  0  0  0  0
    7.0914   11.8891   25.0491 C   0  0  0  0  0  0  0  0  0  0  0  0
    8.3729   11.6211   24.3454 C   0  0  0  0  0  0  0  0  0  0  0  0
    8.4905   10.6150   23.7728 O   0  0  0  0  0  0  0  0  0  0  0  0
    9.3483   12.8069   24.4934 N   0  0  0  0  0  0  0  0  0  0  0  0
   10.6413   13.0424   23.8855 C   0  0  1  0  0  0  0  0  0  0  0  0
   10.5619   12.6407   22.4245 C   0  0  0  0  0  0  0  0  0  0  0  0
   11.1330   14.4900   24.0617 C   0  0  0  0  0  0  0  0  0  0  0  0
   10.6237   15.3603   22.9790 C   0  0  0  0  0  0  0  0  0  0  0  0
   11.2825   15.7707   21.8422 C   0  0  0  0  0  0  0  0  0  0  0  0
   10.3636   16.3284   21.0089 O   0  0  0  0  0  0  0  0  0  0  0  0
    9.2038   16.2661   21.7142 C   0  0  0  0  0  0  0  0  0  0  0  0
    9.2937   15.6901   22.8930 N   0  0  0  0  0  0  0  0  0  0  0  0
  1  2  1  0
  2  3  2  0
  3  4  1  0
  4  5  2  0
  5  6  1  0
  5  7  1  0
  7  8  1  0
  7  9  2  0
  9 10  1  0
 10 11  2  0
 10 12  1  0
 12 13  1  0
 13 14  1  6
 13 15  1  0
 15 16  1  0
 16 17  2  0
 17 18  1  0
 18 19  1  0
 19 20  2  0
  9  2  1  0
 20 16  1  0
M  END
>  <energy_score>  (1583) 
-8.619888

>  <inchikey>  (1583) 
PGAJFGJQXFMSEH-UHFFFAOYSA-N

>  <smiles>  (1583) 
Cc1ccc(Cl)c(F)c1C(=O)NC(C)Cc1cocn1

>  <ref_pdb>  (1583) 
A0514a

>  <alias>  (1583) 
PGAJFGJQXFMSEH-UHFFFAOYSA-N-P637-P178-P637-601502

>  <HIPPO Pose ID>  (1583) 
503724

>  <name>  (1583) 
PGAJFGJQXFMSEH-UHFFFAOYSA-N-P637-P178-P637-601502

>  <HIPPO Compound ID>  (1583) 
306317

>  <ref_mols>  (1583) 
A3408a,A5594a

>  <distance_score>  (1583) 
1.360125

>  <inspiration_score>  (1583) 
None

$$$$
VRLICSYDIMFDJM-UHFFFAOYSA-N-P637-P178-P637-601502
     RDKit          3D

 20 21  0  0  0  0  0  0  0  0999 V2000
    9.9028   15.6426   19.9382 C   0  0  0  0  0  0  0  0  0  0  0  0
   10.4155   15.2544   21.2500 C   0  0  0  0  0  0  0  0  0  0  0  0
    9.9474   14.3648   22.1005 N   0  0  0  0  0  0  0  0  0  0  0  0
   10.9951   14.1917   22.9692 C   0  0  0  0  0  0  0  0  0  0  0  0
   11.0608   13.0548   23.9074 C   0  0  0  0  0  0  0  0  0  0  0  0
   10.0498   11.9731   23.5551 C   0  0  0  0  0  0  0  0  0  0  0  0
    8.8529   12.1537   24.3144 N   0  0  0  0  0  0  0  0  0  0  0  0
    7.6473   11.2444   24.4900 C   0  0  0  0  0  0  0  0  0  0  0  0
    7.4580   10.1677   24.1107 O   0  0  0  0  0  0  0  0  0  0  0  0
    6.5599   11.9751   25.2345 C   0  0  0  0  0  0  0  0  0  0  0  0
    5.7373   11.2595   26.1319 C   0  0  0  0  0  0  0  0  0  0  0  0
    5.7359    9.7741   26.2559 C   0  0  0  0  0  0  0  0  0  0  0  0
    4.7742   11.9357   26.8887 C   0  0  0  0  0  0  0  0  0  0  0  0
    4.6196   13.3037   26.7545 C   0  0  0  0  0  0  0  0  0  0  0  0
    3.3241   14.2082   27.7923 Br  0  0  0  0  0  0  0  0  0  0  0  0
    5.3758   14.0087   25.8273 C   0  0  0  0  0  0  0  0  0  0  0  0
    6.3169   13.3529   25.0197 C   0  0  0  0  0  0  0  0  0  0  0  0
    6.9451   14.1739   23.9196 C   0  0  0  0  0  0  0  0  0  0  0  0
   11.9676   15.1206   22.7092 C   0  0  0  0  0  0  0  0  0  0  0  0
   11.6079   15.8111   21.6036 O   0  0  0  0  0  0  0  0  0  0  0  0
  1  2  1  0
  2  3  2  0
  3  4  1  0
  4  5  1  0
  5  6  1  0
  6  7  1  0
  7  8  1  0
  8  9  2  0
  8 10  1  0
 10 11  2  0
 11 12  1  0
 11 13  1  0
 13 14  2  0
 14 15  1  0
 14 16  1  0
 16 17  2  0
 17 18  1  0
  4 19  2  0
 19 20  1  0
 20  2  1  0
 17 10  1  0
M  END
>  <energy_score>  (1584) 
-10.69994

>  <inchikey>  (1584) 
VRLICSYDIMFDJM-UHFFFAOYSA-N

>  <smiles>  (1584) 
Cc1nc(CCNC(=O)c2c(C)cc(Br)cc2C)co1

>  <ref_pdb>  (1584) 
A0514a

>  <alias>  (1584) 
VRLICSYDIMFDJM-UHFFFAOYSA-N-P637-P178-P637-601502

>  <HIPPO Pose ID>  (1584) 
503731

>  <name>  (1584) 
VRLICSYDIMFDJM-UHFFFAOYSA-N-P637-P178-P637-601502

>  <HIPPO Compound ID>  (1584) 
306324

>  <ref_mols>  (1584) 
A3408a,A5594a

>  <distance_score>  (1584) 
1.75746

>  <inspiration_score>  (1584) 
None

$$$$
SULAVEFHJJZJQW-UHFFFAOYSA-N-P637-P178-P637-601502
     RDKit          3D

 20 21  0  0  0  0  0  0  0  0999 V2000
    6.7231    9.8550   25.4869 C   0  0  0  0  0  0  0  0  0  0  0  0
    6.4680   11.3165   25.5511 C   0  0  0  0  0  0  0  0  0  0  0  0
    5.2945   11.7069   26.2131 C   0  0  0  0  0  0  0  0  0  0  0  0
    4.4926   10.7834   26.7636 F   0  0  0  0  0  0  0  0  0  0  0  0
    4.9317   13.0362   26.3371 C   0  0  0  0  0  0  0  0  0  0  0  0
    5.7367   14.0107   25.7690 C   0  0  0  0  0  0  0  0  0  0  0  0
    6.8919   13.6438   25.0845 C   0  0  0  0  0  0  0  0  0  0  0  0
    7.6114   14.6802   24.5585 O   0  0  0  0  0  0  0  0  0  0  0  0
    7.2905   12.3051   24.9835 C   0  0  0  0  0  0  0  0  0  0  0  0
    8.5829   11.9732   24.2967 C   0  0  0  0  0  0  0  0  0  0  0  0
    8.6432   11.0191   23.6327 O   0  0  0  0  0  0  0  0  0  0  0  0
    9.6432   13.0560   24.5902 N   0  0  0  0  0  0  0  0  0  0  0  0
   10.9720   13.2403   24.0496 C   0  0  2  0  0  0  0  0  0  0  0  0
   11.6015   14.5256   24.5799 C   0  0  0  0  0  0  0  0  0  0  0  0
   10.9407   13.1987   22.5229 C   0  0  0  0  0  0  0  0  0  0  0  0
   10.2423   14.3518   21.9237 C   0  0  0  0  0  0  0  0  0  0  0  0
   10.7639   15.2713   21.0487 C   0  0  0  0  0  0  0  0  0  0  0  0
    9.7907   16.1716   20.7674 O   0  0  0  0  0  0  0  0  0  0  0  0
    8.7314   15.7547   21.5091 C   0  0  0  0  0  0  0  0  0  0  0  0
    8.9287   14.6596   22.2110 N   0  0  0  0  0  0  0  0  0  0  0  0
  1  2  1  0
  2  3  2  0
  3  4  1  0
  3  5  1  0
  5  6  2  0
  6  7  1  0
  7  8  1  0
  7  9  2  0
  9 10  1  0
 10 11  2  0
 10 12  1  0
 12 13  1  0
 13 14  1  6
 13 15  1  0
 15 16  1  0
 16 17  2  0
 17 18  1  0
 18 19  1  0
 19 20  2  0
  9  2  1  0
 20 16  1  0
M  END
>  <energy_score>  (1585) 
-28.8708

>  <inchikey>  (1585) 
SULAVEFHJJZJQW-UHFFFAOYSA-N

>  <smiles>  (1585) 
Cc1c(F)ccc(O)c1C(=O)NC(C)Cc1cocn1

>  <ref_pdb>  (1585) 
A0514a

>  <alias>  (1585) 
SULAVEFHJJZJQW-UHFFFAOYSA-N-P637-P178-P637-601502

>  <HIPPO Pose ID>  (1585) 
503734

>  <name>  (1585) 
SULAVEFHJJZJQW-UHFFFAOYSA-N-P637-P178-P637-601502

>  <HIPPO Compound ID>  (1585) 
306327

>  <ref_mols>  (1585) 
A3408a,A5594a

>  <distance_score>  (1585) 
1.420848

>  <inspiration_score>  (1585) 
None

$$$$
DDUFQGTZUGBRQE-UHFFFAOYSA-N-P637-P178-P637-601502
     RDKit          3D

 20 21  0  0  0  0  0  0  0  0999 V2000
    9.9527   15.6306   20.0179 C   0  0  0  0  0  0  0  0  0  0  0  0
   10.3457   15.1265   21.3344 C   0  0  0  0  0  0  0  0  0  0  0  0
    9.8034   14.1679   22.0587 N   0  0  0  0  0  0  0  0  0  0  0  0
   10.7531   13.9371   23.0201 C   0  0  0  0  0  0  0  0  0  0  0  0
   10.7102   12.7479   23.8919 C   0  0  0  0  0  0  0  0  0  0  0  0
    9.7523   11.6685   23.3737 C   0  0  0  0  0  0  0  0  0  0  0  0
    8.4508   11.9366   23.9190 N   0  0  0  0  0  0  0  0  0  0  0  0
    7.6471   11.1905   24.9859 C   0  0  0  0  0  0  0  0  0  0  0  0
    7.8737   10.1970   25.5401 O   0  0  0  0  0  0  0  0  0  0  0  0
    6.4401   11.9491   25.4159 C   0  0  0  0  0  0  0  0  0  0  0  0
    6.4817   13.3557   25.4320 C   0  0  0  0  0  0  0  0  0  0  0  0
    7.5609   14.1019   25.0365 O   0  0  0  0  0  0  0  0  0  0  0  0
    5.4260   14.0978   25.9406 C   0  0  0  0  0  0  0  0  0  0  0  0
    4.3501   13.4453   26.5211 C   0  0  0  0  0  0  0  0  0  0  0  0
    4.3340   12.0609   26.5772 C   0  0  0  0  0  0  0  0  0  0  0  0
    3.2933   11.4715   27.1852 F   0  0  0  0  0  0  0  0  0  0  0  0
    5.3516   11.2881   26.0180 C   0  0  0  0  0  0  0  0  0  0  0  0
    5.2469    9.8074   26.1784 C   0  0  0  0  0  0  0  0  0  0  0  0
   11.7445   14.8812   22.9343 C   0  0  0  0  0  0  0  0  0  0  0  0
   11.4967   15.6502   21.8482 O   0  0  0  0  0  0  0  0  0  0  0  0
  1  2  1  0
  2  3  2  0
  3  4  1  0
  4  5  1  0
  5  6  1  0
  6  7  1  0
  7  8  1  0
  8  9  2  0
  8 10  1  0
 10 11  2  0
 11 12  1  0
 11 13  1  0
 13 14  2  0
 14 15  1  0
 15 16  1  0
 15 17  2  0
 17 18  1  0
  4 19  2  0
 19 20  1  0
 20  2  1  0
 17 10  1  0
M  END
>  <energy_score>  (1586) 
-20.432202

>  <inchikey>  (1586) 
DDUFQGTZUGBRQE-UHFFFAOYSA-N

>  <smiles>  (1586) 
Cc1nc(CCNC(=O)c2c(O)ccc(F)c2C)co1

>  <ref_pdb>  (1586) 
A0514a

>  <alias>  (1586) 
DDUFQGTZUGBRQE-UHFFFAOYSA-N-P637-P178-P637-601502

>  <HIPPO Pose ID>  (1586) 
503735

>  <name>  (1586) 
DDUFQGTZUGBRQE-UHFFFAOYSA-N-P637-P178-P637-601502

>  <HIPPO Compound ID>  (1586) 
306328

>  <ref_mols>  (1586) 
A3408a,A5594a

>  <distance_score>  (1586) 
1.643325

>  <inspiration_score>  (1586) 
None

$$$$
GYSJRLNDDQFBMJ-UHFFFAOYSA-N-P637-P178-P637-601502
     RDKit          3D

 20 21  0  0  0  0  0  0  0  0999 V2000
   12.1049   16.0665   21.5331 C   0  0  0  0  0  0  0  0  0  0  0  0
   10.7493   15.5327   21.6004 C   0  0  0  0  0  0  0  0  0  0  0  0
    9.7139   16.3203   21.2155 O   0  0  0  0  0  0  0  0  0  0  0  0
    8.6242   15.5458   21.4495 C   0  0  0  0  0  0  0  0  0  0  0  0
    8.8682   14.3338   21.8891 N   0  0  0  0  0  0  0  0  0  0  0  0
   10.2410   14.3253   21.9915 C   0  0  0  0  0  0  0  0  0  0  0  0
   11.0273   13.1901   22.5016 C   0  0  0  0  0  0  0  0  0  0  0  0
   11.0784   13.2056   24.0189 C   0  0  0  0  0  0  0  0  0  0  0  0
    9.7663   12.9701   24.5486 N   0  0  0  0  0  0  0  0  0  0  0  0
    8.6150   12.1151   24.0110 C   0  0  0  0  0  0  0  0  0  0  0  0
    8.5700   11.4039   23.0942 O   0  0  0  0  0  0  0  0  0  0  0  0
    7.3968   12.2017   24.8513 C   0  0  0  0  0  0  0  0  0  0  0  0
    6.7881   11.0341   25.3118 C   0  0  0  0  0  0  0  0  0  0  0  0
    7.4785    9.3646   24.8461 Br  0  0  0  0  0  0  0  0  0  0  0  0
    5.6357   11.0717   26.1018 C   0  0  0  0  0  0  0  0  0  0  0  0
    5.0525   12.2975   26.4037 C   0  0  0  0  0  0  0  0  0  0  0  0
    5.6086   13.4694   25.8935 C   0  0  0  0  0  0  0  0  0  0  0  0
    6.7716   13.4086   25.1178 C   0  0  0  0  0  0  0  0  0  0  0  0
    7.2994   14.6495   24.5717 C   0  0  0  0  0  0  0  0  0  0  0  0
    8.3445   15.0988   25.0211 O   0  0  0  0  0  0  0  0  0  0  0  0
  1  2  1  0
  2  3  1  0
  3  4  1  0
  4  5  2  0
  5  6  1  0
  6  7  1  0
  7  8  1  0
  8  9  1  0
  9 10  1  0
 10 11  2  0
 10 12  1  0
 12 13  2  0
 13 14  1  0
 13 15  1  0
 15 16  2  0
 16 17  1  0
 17 18  2  0
 18 19  1  0
 19 20  2  0
  6  2  2  0
 18 12  1  0
M  END
>  <energy_score>  (1587) 
-27.655941

>  <inchikey>  (1587) 
GYSJRLNDDQFBMJ-UHFFFAOYSA-N

>  <smiles>  (1587) 
Cc1ocnc1CCNC(=O)c1c(Br)cccc1C=O

>  <ref_pdb>  (1587) 
A0514a

>  <alias>  (1587) 
GYSJRLNDDQFBMJ-UHFFFAOYSA-N-P637-P178-P637-601502

>  <HIPPO Pose ID>  (1587) 
503738

>  <name>  (1587) 
GYSJRLNDDQFBMJ-UHFFFAOYSA-N-P637-P178-P637-601502

>  <HIPPO Compound ID>  (1587) 
306331

>  <ref_mols>  (1587) 
A3408a,A5594a

>  <distance_score>  (1587) 
1.585918

>  <inspiration_score>  (1587) 
None

$$$$
SZGRYLWDWLJSGF-UHFFFAOYSA-N-P637-P178-P637-601502
     RDKit          3D

 20 21  0  0  0  0  0  0  0  0999 V2000
   10.2678   15.5497   19.7679 C   0  0  0  0  0  0  0  0  0  0  0  0
   10.4235   15.1183   21.1603 C   0  0  0  0  0  0  0  0  0  0  0  0
   10.2445   13.9202   21.6657 N   0  0  0  0  0  0  0  0  0  0  0  0
   10.7114   14.0282   22.9438 C   0  0  0  0  0  0  0  0  0  0  0  0
   10.8910   12.8431   23.8034 C   0  0  0  0  0  0  0  0  0  0  0  0
   10.0056   11.6572   23.4152 C   0  0  0  0  0  0  0  0  0  0  0  0
    8.7927   11.7325   24.1565 N   0  0  0  0  0  0  0  0  0  0  0  0
    7.4463   12.3209   23.7859 C   0  0  0  0  0  0  0  0  0  0  0  0
    7.0732   12.7755   22.7873 O   0  0  0  0  0  0  0  0  0  0  0  0
    6.6029   12.3443   24.9890 C   0  0  0  0  0  0  0  0  0  0  0  0
    6.1222   11.1913   25.6199 C   0  0  0  0  0  0  0  0  0  0  0  0
    6.5102    9.8180   25.2052 C   0  0  0  0  0  0  0  0  0  0  0  0
    5.2610   11.3363   26.7130 C   0  0  0  0  0  0  0  0  0  0  0  0
    4.9144   12.6066   27.1726 C   0  0  0  0  0  0  0  0  0  0  0  0
    5.4588   13.7459   26.5773 C   0  0  0  0  0  0  0  0  0  0  0  0
    6.3258   13.6042   25.4992 C   0  0  0  0  0  0  0  0  0  0  0  0
    7.0482   14.7745   24.9794 C   0  0  0  0  0  0  0  0  0  0  0  0
    8.2643   14.7477   24.8386 O   0  0  0  0  0  0  0  0  0  0  0  0
   11.0566   15.3303   23.1956 C   0  0  0  0  0  0  0  0  0  0  0  0
   10.9041   16.0390   22.0476 O   0  0  0  0  0  0  0  0  0  0  0  0
  1  2  1  0
  2  3  2  0
  3  4  1  0
  4  5  1  0
  5  6  1  0
  6  7  1  0
  7  8  1  0
  8  9  2  0
  8 10  1  0
 10 11  2  0
 11 12  1  0
 11 13  1  0
 13 14  2  0
 14 15  1  0
 15 16  2  0
 16 17  1  0
 17 18  2  0
  4 19  2  0
 19 20  1  0
 20  2  1  0
 16 10  1  0
M  END
>  <energy_score>  (1588) 
-17.549231

>  <inchikey>  (1588) 
SZGRYLWDWLJSGF-UHFFFAOYSA-N

>  <smiles>  (1588) 
Cc1nc(CCNC(=O)c2c(C)cccc2C=O)co1

>  <ref_pdb>  (1588) 
A0514a

>  <alias>  (1588) 
SZGRYLWDWLJSGF-UHFFFAOYSA-N-P637-P178-P637-601502

>  <HIPPO Pose ID>  (1588) 
503739

>  <name>  (1588) 
SZGRYLWDWLJSGF-UHFFFAOYSA-N-P637-P178-P637-601502

>  <HIPPO Compound ID>  (1588) 
306332

>  <ref_mols>  (1588) 
A3408a,A5594a

>  <distance_score>  (1588) 
1.70335

>  <inspiration_score>  (1588) 
None

$$$$
QDJIOGOLXOIZLK-UHFFFAOYSA-N-P637-P178-P637-601502
     RDKit          3D

 20 21  0  0  0  0  0  0  0  0999 V2000
   10.9593   14.8254   24.5938 C   0  0  0  0  0  0  0  0  0  0  0  0
   10.8520   13.4105   24.0341 C   0  0  2  0  0  0  0  0  0  0  0  0
   11.1415   13.2621   22.5564 C   0  0  0  0  0  0  0  0  0  0  0  0
   10.8180   14.4178   21.7154 C   0  0  0  0  0  0  0  0  0  0  0  0
   11.6445   15.4602   21.3713 C   0  0  0  0  0  0  0  0  0  0  0  0
   11.0217   16.1723   20.4008 O   0  0  0  0  0  0  0  0  0  0  0  0
    9.8513   15.5145   20.2221 C   0  0  0  0  0  0  0  0  0  0  0  0
    9.6426   14.5009   21.0217 N   0  0  0  0  0  0  0  0  0  0  0  0
    9.6202   12.7924   24.4558 N   0  0  0  0  0  0  0  0  0  0  0  0
    8.2997   12.5889   23.7046 C   0  0  0  0  0  0  0  0  0  0  0  0
    8.0175   12.8174   22.6013 O   0  0  0  0  0  0  0  0  0  0  0  0
    7.2830   12.1114   24.6362 C   0  0  0  0  0  0  0  0  0  0  0  0
    7.1404   10.7592   24.9169 C   0  0  0  0  0  0  0  0  0  0  0  0
    8.2904    9.4879   24.1179 Br  0  0  0  0  0  0  0  0  0  0  0  0
    6.1256   10.3528   25.7824 C   0  0  0  0  0  0  0  0  0  0  0  0
    5.2754   11.2947   26.3699 C   0  0  0  0  0  0  0  0  0  0  0  0
    5.4285   12.6501   26.0839 C   0  0  0  0  0  0  0  0  0  0  0  0
    6.4404   13.0534   25.2141 C   0  0  0  0  0  0  0  0  0  0  0  0
    6.6120   14.4842   24.9283 C   0  0  0  0  0  0  0  0  0  0  0  0
    7.7081   14.9881   24.7369 O   0  0  0  0  0  0  0  0  0  0  0  0
  2  1  1  6
  2  3  1  0
  3  4  1  0
  4  5  2  0
  5  6  1  0
  6  7  1  0
  7  8  2  0
  2  9  1  0
  9 10  1  0
 10 11  2  0
 10 12  1  0
 12 13  2  0
 13 14  1  0
 13 15  1  0
 15 16  2  0
 16 17  1  0
 17 18  2  0
 18 19  1  0
 19 20  2  0
  8  4  1  0
 18 12  1  0
M  END
>  <energy_score>  (1589) 
-10.363759

>  <inchikey>  (1589) 
QDJIOGOLXOIZLK-UHFFFAOYSA-N

>  <smiles>  (1589) 
CC(Cc1cocn1)NC(=O)c1c(Br)cccc1C=O

>  <ref_pdb>  (1589) 
A0514a

>  <alias>  (1589) 
QDJIOGOLXOIZLK-UHFFFAOYSA-N-P637-P178-P637-601502

>  <HIPPO Pose ID>  (1589) 
503741

>  <name>  (1589) 
QDJIOGOLXOIZLK-UHFFFAOYSA-N-P637-P178-P637-601502

>  <HIPPO Compound ID>  (1589) 
306334

>  <ref_mols>  (1589) 
A3408a,A5594a

>  <distance_score>  (1589) 
1.9874

>  <inspiration_score>  (1589) 
None

$$$$
UEVQLUTYPHECSR-UHFFFAOYSA-N-P637-P178-P637-601502
     RDKit          3D

 20 21  0  0  0  0  0  0  0  0999 V2000
    6.8329   14.1159   22.8485 C   0  0  0  0  0  0  0  0  0  0  0  0
    7.0202   14.2412   24.3518 C   0  0  0  0  0  0  0  0  0  0  0  0
    6.7867   12.9306   25.0662 C   0  0  0  0  0  0  0  0  0  0  0  0
    5.6663   12.8405   25.9147 C   0  0  0  0  0  0  0  0  0  0  0  0
    5.2416   11.6161   26.4437 C   0  0  0  0  0  0  0  0  0  0  0  0
    4.0507   11.5478   27.3531 C   0  0  0  0  0  0  0  0  0  0  0  0
    5.9434   10.4582   26.1148 C   0  0  0  0  0  0  0  0  0  0  0  0
    7.0831   10.5315   25.3149 C   0  0  0  0  0  0  0  0  0  0  0  0
    7.5403   11.7679   24.8348 C   0  0  0  0  0  0  0  0  0  0  0  0
    8.8275   11.7513   24.0769 C   0  0  0  0  0  0  0  0  0  0  0  0
    8.9920   10.9130   23.2853 O   0  0  0  0  0  0  0  0  0  0  0  0
    9.7612   12.8879   24.5369 N   0  0  0  0  0  0  0  0  0  0  0  0
   11.0622   13.2901   24.0495 C   0  0  2  0  0  0  0  0  0  0  0  0
   11.5289   14.5894   24.6980 C   0  0  0  0  0  0  0  0  0  0  0  0
   11.1245   13.3304   22.5260 C   0  0  0  0  0  0  0  0  0  0  0  0
   10.6032   14.5503   21.8859 C   0  0  0  0  0  0  0  0  0  0  0  0
   11.1227   15.1786   20.7811 C   0  0  0  0  0  0  0  0  0  0  0  0
   10.3244   16.2331   20.4836 O   0  0  0  0  0  0  0  0  0  0  0  0
    9.3756   16.2040   21.4544 C   0  0  0  0  0  0  0  0  0  0  0  0
    9.4919   15.2242   22.3231 N   0  0  0  0  0  0  0  0  0  0  0  0
  1  2  1  0
  2  3  1  0
  3  4  2  0
  4  5  1  0
  5  6  1  0
  5  7  2  0
  7  8  1  0
  8  9  2  0
  9 10  1  0
 10 11  2  0
 10 12  1  0
 12 13  1  0
 13 14  1  1
 13 15  1  0
 15 16  1  0
 16 17  2  0
 17 18  1  0
 18 19  1  0
 19 20  2  0
  9  3  1  0
 20 16  1  0
M  END
>  <energy_score>  (1590) 
-18.048961

>  <inchikey>  (1590) 
UEVQLUTYPHECSR-UHFFFAOYSA-N

>  <smiles>  (1590) 
CCc1cc(C)ccc1C(=O)NC(C)Cc1cocn1

>  <ref_pdb>  (1590) 
A0514a

>  <alias>  (1590) 
UEVQLUTYPHECSR-UHFFFAOYSA-N-P637-P178-P637-601502

>  <HIPPO Pose ID>  (1590) 
503743

>  <name>  (1590) 
UEVQLUTYPHECSR-UHFFFAOYSA-N-P637-P178-P637-601502

>  <HIPPO Compound ID>  (1590) 
306336

>  <ref_mols>  (1590) 
A3408a,A5594a

>  <distance_score>  (1590) 
1.286231

>  <inspiration_score>  (1590) 
None

$$$$
ZTPHAHOHXPMFEW-UHFFFAOYSA-N-P637-P178-P637-601502
     RDKit          3D

 20 21  0  0  0  0  0  0  0  0999 V2000
    6.8882   14.0270   22.8918 C   0  0  0  0  0  0  0  0  0  0  0  0
    6.9099   14.1989   24.4024 C   0  0  0  0  0  0  0  0  0  0  0  0
    6.5724   12.9430   25.1783 C   0  0  0  0  0  0  0  0  0  0  0  0
    5.4743   13.0104   26.0521 C   0  0  0  0  0  0  0  0  0  0  0  0
    5.0054   11.8775   26.7137 C   0  0  0  0  0  0  0  0  0  0  0  0
    5.5999   10.6466   26.4893 C   0  0  0  0  0  0  0  0  0  0  0  0
    5.0800    9.5891   27.1700 O   0  0  0  0  0  0  0  0  0  0  0  0
    6.6977   10.5433   25.6478 C   0  0  0  0  0  0  0  0  0  0  0  0
    7.2272   11.7022   25.0425 C   0  0  0  0  0  0  0  0  0  0  0  0
    8.4865   11.5223   24.2602 C   0  0  0  0  0  0  0  0  0  0  0  0
    8.5880   10.5714   23.5951 O   0  0  0  0  0  0  0  0  0  0  0  0
    9.4614   12.6965   24.4806 N   0  0  0  0  0  0  0  0  0  0  0  0
   10.7318   12.9950   23.8523 C   0  0  1  0  0  0  0  0  0  0  0  0
   10.6362   12.6677   22.3745 C   0  0  0  0  0  0  0  0  0  0  0  0
   11.2060   14.4400   24.1023 C   0  0  0  0  0  0  0  0  0  0  0  0
   10.7646   15.3487   23.0201 C   0  0  0  0  0  0  0  0  0  0  0  0
   11.4788   15.7619   21.9177 C   0  0  0  0  0  0  0  0  0  0  0  0
   10.6098   16.3565   21.0572 O   0  0  0  0  0  0  0  0  0  0  0  0
    9.4237   16.3213   21.7178 C   0  0  0  0  0  0  0  0  0  0  0  0
    9.4515   15.7231   22.8898 N   0  0  0  0  0  0  0  0  0  0  0  0
  1  2  1  0
  2  3  1  0
  3  4  2  0
  4  5  1  0
  5  6  2  0
  6  7  1  0
  6  8  1  0
  8  9  2  0
  9 10  1  0
 10 11  2  0
 10 12  1  0
 12 13  1  0
 13 14  1  6
 13 15  1  0
 15 16  1  0
 16 17  2  0
 17 18  1  0
 18 19  1  0
 19 20  2  0
  9  3  1  0
 20 16  1  0
M  END
>  <energy_score>  (1591) 
-5.126213

>  <inchikey>  (1591) 
ZTPHAHOHXPMFEW-UHFFFAOYSA-N

>  <smiles>  (1591) 
CCc1ccc(O)cc1C(=O)NC(C)Cc1cocn1

>  <ref_pdb>  (1591) 
A0514a

>  <alias>  (1591) 
ZTPHAHOHXPMFEW-UHFFFAOYSA-N-P637-P178-P637-601502

>  <HIPPO Pose ID>  (1591) 
503751

>  <name>  (1591) 
ZTPHAHOHXPMFEW-UHFFFAOYSA-N-P637-P178-P637-601502

>  <HIPPO Compound ID>  (1591) 
306344

>  <ref_mols>  (1591) 
A3408a,A5594a

>  <distance_score>  (1591) 
1.35808

>  <inspiration_score>  (1591) 
None

$$$$
FSDLVZYIZXTDOG-UHFFFAOYSA-N-P637-P178-P637-601502
     RDKit          3D

 20 21  0  0  0  0  0  0  0  0999 V2000
    4.6656   14.6081   25.7484 C   0  0  0  0  0  0  0  0  0  0  0  0
    5.3822   13.2832   25.7818 C   0  0  0  0  0  0  0  0  0  0  0  0
    4.8953   12.2850   26.6259 C   0  0  0  0  0  0  0  0  0  0  0  0
    5.4699   11.0200   26.6294 C   0  0  0  0  0  0  0  0  0  0  0  0
    4.7490    9.7553   27.8311 Br  0  0  0  0  0  0  0  0  0  0  0  0
    6.5685   10.7360   25.8219 C   0  0  0  0  0  0  0  0  0  0  0  0
    7.1201   11.7487   25.0244 C   0  0  0  0  0  0  0  0  0  0  0  0
    8.3977   11.4469   24.2917 C   0  0  0  0  0  0  0  0  0  0  0  0
    8.5136   10.4108   23.7735 O   0  0  0  0  0  0  0  0  0  0  0  0
    9.3772   12.6344   24.3813 N   0  0  0  0  0  0  0  0  0  0  0  0
   10.6711   12.8318   23.7695 C   0  0  0  0  0  0  0  0  0  0  0  0
   11.1084   14.2909   23.7568 C   0  0  0  0  0  0  0  0  0  0  0  0
   10.3662   15.0539   22.7356 C   0  0  0  0  0  0  0  0  0  0  0  0
    9.1591   15.6424   23.0067 N   0  0  0  0  0  0  0  0  0  0  0  0
    8.8082   16.1666   21.8524 C   0  0  0  0  0  0  0  0  0  0  0  0
    9.6804   15.9604   20.8353 O   0  0  0  0  0  0  0  0  0  0  0  0
   10.6961   15.2697   21.4195 C   0  0  0  0  0  0  0  0  0  0  0  0
   11.8369   14.9282   20.5716 C   0  0  0  0  0  0  0  0  0  0  0  0
    6.4733   12.9987   24.9329 C   0  0  0  0  0  0  0  0  0  0  0  0
    6.8734   14.0234   23.9128 C   0  0  0  0  0  0  0  0  0  0  0  0
  1  2  1  0
  2  3  2  0
  3  4  1  0
  4  5  1  0
  4  6  2  0
  6  7  1  0
  7  8  1  0
  8  9  2  0
  8 10  1  0
 10 11  1  0
 11 12  1  0
 12 13  1  0
 13 14  1  0
 14 15  2  0
 15 16  1  0
 16 17  1  0
 17 18  1  0
  7 19  2  0
 19 20  1  0
 19  2  1  0
 17 13  2  0
M  END
>  <energy_score>  (1592) 
-12.833921

>  <inchikey>  (1592) 
FSDLVZYIZXTDOG-UHFFFAOYSA-N

>  <smiles>  (1592) 
Cc1cc(Br)cc(C(=O)NCCc2ncoc2C)c1C

>  <ref_pdb>  (1592) 
A0514a

>  <alias>  (1592) 
FSDLVZYIZXTDOG-UHFFFAOYSA-N-P637-P178-P637-601502

>  <HIPPO Pose ID>  (1592) 
503757

>  <name>  (1592) 
FSDLVZYIZXTDOG-UHFFFAOYSA-N-P637-P178-P637-601502

>  <HIPPO Compound ID>  (1592) 
306350

>  <ref_mols>  (1592) 
A3408a,A5594a

>  <distance_score>  (1592) 
1.408143

>  <inspiration_score>  (1592) 
None

$$$$
BGWKUVDZDCMYQS-UHFFFAOYSA-N-P637-P178-P637-601502
     RDKit          3D

 20 21  0  0  0  0  0  0  0  0999 V2000
    6.9908   14.5862   25.2336 C   0  0  0  0  0  0  0  0  0  0  0  0
    6.7063   13.1363   25.4698 C   0  0  0  0  0  0  0  0  0  0  0  0
    5.7183   12.7340   26.3646 C   0  0  0  0  0  0  0  0  0  0  0  0
    5.0247   13.6483   27.0568 F   0  0  0  0  0  0  0  0  0  0  0  0
    5.4254   11.3889   26.5631 C   0  0  0  0  0  0  0  0  0  0  0  0
    6.1499   10.4134   25.8791 C   0  0  0  0  0  0  0  0  0  0  0  0
    7.1682   10.7865   25.0024 C   0  0  0  0  0  0  0  0  0  0  0  0
    8.1225    9.5723   24.2456 Cl  0  0  0  0  0  0  0  0  0  0  0  0
    7.4199   12.1415   24.7893 C   0  0  0  0  0  0  0  0  0  0  0  0
    8.3422   12.5777   23.7354 C   0  0  0  0  0  0  0  0  0  0  0  0
    7.9403   12.6127   22.6460 O   0  0  0  0  0  0  0  0  0  0  0  0
    9.6936   13.0164   24.3111 N   0  0  0  0  0  0  0  0  0  0  0  0
   10.8080   13.6818   23.6824 C   0  0  2  0  0  0  0  0  0  0  0  0
   12.0694   13.6523   24.5256 C   0  0  0  0  0  0  0  0  0  0  0  0
   10.4286   15.1375   23.3730 C   0  0  0  0  0  0  0  0  0  0  0  0
   10.5235   15.3594   21.9282 C   0  0  0  0  0  0  0  0  0  0  0  0
   11.6554   15.5026   21.1649 C   0  0  0  0  0  0  0  0  0  0  0  0
   11.2673   15.5732   19.8670 O   0  0  0  0  0  0  0  0  0  0  0  0
    9.9139   15.4856   19.9274 C   0  0  0  0  0  0  0  0  0  0  0  0
    9.4091   15.3467   21.1316 N   0  0  0  0  0  0  0  0  0  0  0  0
  1  2  1  0
  2  3  2  0
  3  4  1  0
  3  5  1  0
  5  6  2  0
  6  7  1  0
  7  8  1  0
  7  9  2  0
  9 10  1  0
 10 11  2  0
 10 12  1  0
 12 13  1  0
 13 14  1  1
 13 15  1  0
 15 16  1  0
 16 17  2  0
 17 18  1  0
 18 19  1  0
 19 20  2  0
  9  2  1  0
 20 16  1  0
M  END
>  <energy_score>  (1593) 
-21.376188

>  <inchikey>  (1593) 
BGWKUVDZDCMYQS-UHFFFAOYSA-N

>  <smiles>  (1593) 
Cc1c(F)ccc(Cl)c1C(=O)NC(C)Cc1cocn1

>  <ref_pdb>  (1593) 
A0514a

>  <alias>  (1593) 
BGWKUVDZDCMYQS-UHFFFAOYSA-N-P637-P178-P637-601502

>  <HIPPO Pose ID>  (1593) 
503760

>  <name>  (1593) 
BGWKUVDZDCMYQS-UHFFFAOYSA-N-P637-P178-P637-601502

>  <HIPPO Compound ID>  (1593) 
306353

>  <ref_mols>  (1593) 
A3408a,A5594a

>  <distance_score>  (1593) 
1.72112

>  <inspiration_score>  (1593) 
None

$$$$
VZOQUEJVDNIXBT-UHFFFAOYSA-N-P637-P178-P637-601502
     RDKit          3D

 20 21  0  0  0  0  0  0  0  0999 V2000
    9.9824   15.6802   19.9661 C   0  0  0  0  0  0  0  0  0  0  0  0
   10.3715   15.1934   21.2901 C   0  0  0  0  0  0  0  0  0  0  0  0
    9.8295   14.2413   22.0226 N   0  0  0  0  0  0  0  0  0  0  0  0
   10.7924   14.0050   22.9730 C   0  0  0  0  0  0  0  0  0  0  0  0
   10.7717   12.8016   23.8280 C   0  0  0  0  0  0  0  0  0  0  0  0
    9.8190   11.7305   23.2893 C   0  0  0  0  0  0  0  0  0  0  0  0
    8.5129   12.0152   23.8050 N   0  0  0  0  0  0  0  0  0  0  0  0
    7.7526   11.3948   24.9636 C   0  0  0  0  0  0  0  0  0  0  0  0
    8.0229   10.5001   25.6448 O   0  0  0  0  0  0  0  0  0  0  0  0
    6.5127   12.1206   25.3356 C   0  0  0  0  0  0  0  0  0  0  0  0
    5.4521   11.3762   25.8894 C   0  0  0  0  0  0  0  0  0  0  0  0
    5.3320    9.6707   25.8250 Cl  0  0  0  0  0  0  0  0  0  0  0  0
    4.3944   12.0089   26.5353 C   0  0  0  0  0  0  0  0  0  0  0  0
    4.3532   13.3892   26.5925 C   0  0  0  0  0  0  0  0  0  0  0  0
    5.3901   14.1291   26.0429 C   0  0  0  0  0  0  0  0  0  0  0  0
    5.3254   15.4652   26.1478 F   0  0  0  0  0  0  0  0  0  0  0  0
    6.5065   13.5295   25.4502 C   0  0  0  0  0  0  0  0  0  0  0  0
    7.6294   14.4421   25.0420 C   0  0  0  0  0  0  0  0  0  0  0  0
   11.7808   14.9507   22.8808 C   0  0  0  0  0  0  0  0  0  0  0  0
   11.5234   15.7204   21.7976 O   0  0  0  0  0  0  0  0  0  0  0  0
  1  2  1  0
  2  3  2  0
  3  4  1  0
  4  5  1  0
  5  6  1  0
  6  7  1  0
  7  8  1  0
  8  9  2  0
  8 10  1  0
 10 11  2  0
 11 12  1  0
 11 13  1  0
 13 14  2  0
 14 15  1  0
 15 16  1  0
 15 17  2  0
 17 18  1  0
  4 19  2  0
 19 20  1  0
 20  2  1  0
 17 10  1  0
M  END
>  <energy_score>  (1594) 
-19.292491

>  <inchikey>  (1594) 
VZOQUEJVDNIXBT-UHFFFAOYSA-N

>  <smiles>  (1594) 
Cc1nc(CCNC(=O)c2c(Cl)ccc(F)c2C)co1

>  <ref_pdb>  (1594) 
A0514a

>  <alias>  (1594) 
VZOQUEJVDNIXBT-UHFFFAOYSA-N-P637-P178-P637-601502

>  <HIPPO Pose ID>  (1594) 
503761

>  <name>  (1594) 
VZOQUEJVDNIXBT-UHFFFAOYSA-N-P637-P178-P637-601502

>  <HIPPO Compound ID>  (1594) 
306354

>  <ref_mols>  (1594) 
A3408a,A5594a

>  <distance_score>  (1594) 
1.611304

>  <inspiration_score>  (1594) 
None

$$$$
BPHFETZYEHXKEG-UHFFFAOYSA-N-P637-P178-P637-601502
     RDKit          3D

 20 21  0  0  0  0  0  0  0  0999 V2000
    4.7604    9.8494   27.2975 C   0  0  0  0  0  0  0  0  0  0  0  0
    5.4295   10.9351   26.5068 C   0  0  0  0  0  0  0  0  0  0  0  0
    4.8696   12.2163   26.4736 C   0  0  0  0  0  0  0  0  0  0  0  0
    5.4137   13.2031   25.6553 C   0  0  0  0  0  0  0  0  0  0  0  0
    6.5447   12.9206   24.8900 C   0  0  0  0  0  0  0  0  0  0  0  0
    6.9577   13.8790   23.8550 C   0  0  0  0  0  0  0  0  0  0  0  0
    6.6981   15.0672   23.9632 O   0  0  0  0  0  0  0  0  0  0  0  0
    7.1936   11.6977   25.0204 C   0  0  0  0  0  0  0  0  0  0  0  0
    8.5009   11.4516   24.3654 C   0  0  0  0  0  0  0  0  0  0  0  0
    8.6421   10.4435   23.7968 O   0  0  0  0  0  0  0  0  0  0  0  0
    9.4454   12.6737   24.4924 N   0  0  0  0  0  0  0  0  0  0  0  0
   10.7238   12.9448   23.8637 C   0  0  1  0  0  0  0  0  0  0  0  0
   10.5936   12.6108   22.3897 C   0  0  0  0  0  0  0  0  0  0  0  0
   11.2256   14.3839   24.0894 C   0  0  0  0  0  0  0  0  0  0  0  0
   10.7013   15.2898   23.0440 C   0  0  0  0  0  0  0  0  0  0  0  0
   11.3453   15.7803   21.9315 C   0  0  0  0  0  0  0  0  0  0  0  0
   10.4039   16.3288   21.1144 O   0  0  0  0  0  0  0  0  0  0  0  0
    9.2437   16.1838   21.8094 C   0  0  0  0  0  0  0  0  0  0  0  0
    9.3599   15.5507   22.9557 N   0  0  0  0  0  0  0  0  0  0  0  0
    6.5946   10.6779   25.7693 C   0  0  0  0  0  0  0  0  0  0  0  0
  1  2  1  0
  2  3  2  0
  3  4  1  0
  4  5  2  0
  5  6  1  0
  6  7  2  0
  5  8  1  0
  8  9  1  0
  9 10  2  0
  9 11  1  0
 11 12  1  0
 12 13  1  6
 12 14  1  0
 14 15  1  0
 15 16  2  0
 16 17  1  0
 17 18  1  0
 18 19  2  0
  8 20  2  0
 20  2  1  0
 19 15  1  0
M  END
>  <energy_score>  (1595) 
-11.582494

>  <inchikey>  (1595) 
BPHFETZYEHXKEG-UHFFFAOYSA-N

>  <smiles>  (1595) 
Cc1ccc(C=O)c(C(=O)NC(C)Cc2cocn2)c1

>  <ref_pdb>  (1595) 
A0514a

>  <alias>  (1595) 
BPHFETZYEHXKEG-UHFFFAOYSA-N-P637-P178-P637-601502

>  <HIPPO Pose ID>  (1595) 
503764

>  <name>  (1595) 
BPHFETZYEHXKEG-UHFFFAOYSA-N-P637-P178-P637-601502

>  <HIPPO Compound ID>  (1595) 
306357

>  <ref_mols>  (1595) 
A3408a,A5594a

>  <distance_score>  (1595) 
1.430344

>  <inspiration_score>  (1595) 
None

$$$$
RVLWNESPEVASIQ-UHFFFAOYSA-N-P637-P178-P637-601502
     RDKit          3D

 20 21  0  0  0  0  0  0  0  0999 V2000
    6.7823   14.1058   23.8739 C   0  0  0  0  0  0  0  0  0  0  0  0
    6.3581   13.1265   24.9316 C   0  0  0  0  0  0  0  0  0  0  0  0
    5.2330   13.4002   25.7222 C   0  0  0  0  0  0  0  0  0  0  0  0
    4.4121   14.9232   25.6527 Cl  0  0  0  0  0  0  0  0  0  0  0  0
    4.7286   12.4537   26.6104 C   0  0  0  0  0  0  0  0  0  0  0  0
    5.3239   11.2028   26.7050 C   0  0  0  0  0  0  0  0  0  0  0  0
    4.5253    9.8597   28.0695 I   0  0  0  0  0  0  0  0  0  0  0  0
    6.4567   10.9097   25.9526 C   0  0  0  0  0  0  0  0  0  0  0  0
    7.0179   11.8996   25.1284 C   0  0  0  0  0  0  0  0  0  0  0  0
    8.3247   11.5860   24.4794 C   0  0  0  0  0  0  0  0  0  0  0  0
    8.4550   10.5399   23.9833 O   0  0  0  0  0  0  0  0  0  0  0  0
    9.2899   12.7910   24.5434 N   0  0  0  0  0  0  0  0  0  0  0  0
   10.5853   12.9933   23.9250 C   0  0  1  0  0  0  0  0  0  0  0  0
   10.4871   12.5789   22.4691 C   0  0  0  0  0  0  0  0  0  0  0  0
   11.1099   14.4316   24.0889 C   0  0  0  0  0  0  0  0  0  0  0  0
   10.6131   15.3051   23.0029 C   0  0  0  0  0  0  0  0  0  0  0  0
   11.2838   15.7247   21.8767 C   0  0  0  0  0  0  0  0  0  0  0  0
   10.3736   16.2888   21.0378 O   0  0  0  0  0  0  0  0  0  0  0  0
    9.2063   16.2232   21.7310 C   0  0  0  0  0  0  0  0  0  0  0  0
    9.2832   15.6310   22.9028 N   0  0  0  0  0  0  0  0  0  0  0  0
  1  2  1  0
  2  3  2  0
  3  4  1  0
  3  5  1  0
  5  6  2  0
  6  7  1  0
  6  8  1  0
  8  9  2  0
  9 10  1  0
 10 11  2  0
 10 12  1  0
 12 13  1  0
 13 14  1  6
 13 15  1  0
 15 16  1  0
 16 17  2  0
 17 18  1  0
 18 19  1  0
 19 20  2  0
  9  2  1  0
 20 16  1  0
M  END
>  <energy_score>  (1596) 
-3.531011

>  <inchikey>  (1596) 
RVLWNESPEVASIQ-UHFFFAOYSA-N

>  <smiles>  (1596) 
Cc1c(Cl)cc(I)cc1C(=O)NC(C)Cc1cocn1

>  <ref_pdb>  (1596) 
A0514a

>  <alias>  (1596) 
RVLWNESPEVASIQ-UHFFFAOYSA-N-P637-P178-P637-601502

>  <HIPPO Pose ID>  (1596) 
503769

>  <name>  (1596) 
RVLWNESPEVASIQ-UHFFFAOYSA-N-P637-P178-P637-601502

>  <HIPPO Compound ID>  (1596) 
306362

>  <ref_mols>  (1596) 
A3408a,A5594a

>  <distance_score>  (1596) 
1.39898

>  <inspiration_score>  (1596) 
None

$$$$
CZHJMHYBSWAUMO-UHFFFAOYSA-N-P637-P178-P637-601502
     RDKit          3D

 20 21  0  0  0  0  0  0  0  0999 V2000
    7.1318   14.5391   22.9255 C   0  0  0  0  0  0  0  0  0  0  0  0
    6.7468   14.4066   24.3761 C   0  0  0  0  0  0  0  0  0  0  0  0
    6.5588   15.3731   25.1127 O   0  0  0  0  0  0  0  0  0  0  0  0
    6.5755   13.0606   24.9468 C   0  0  0  0  0  0  0  0  0  0  0  0
    5.4055   12.7708   25.6516 C   0  0  0  0  0  0  0  0  0  0  0  0
    5.1867   11.4774   26.1211 C   0  0  0  0  0  0  0  0  0  0  0  0
    6.1133   10.4730   25.8480 C   0  0  0  0  0  0  0  0  0  0  0  0
    7.3094   10.7791   25.1965 C   0  0  0  0  0  0  0  0  0  0  0  0
    7.5709   12.0998   24.8152 C   0  0  0  0  0  0  0  0  0  0  0  0
    8.9575   12.4856   24.4373 C   0  0  0  0  0  0  0  0  0  0  0  0
    9.5703   11.7717   23.7471 O   0  0  0  0  0  0  0  0  0  0  0  0
    9.3789   13.7971   25.1569 N   0  0  0  0  0  0  0  0  0  0  0  0
   10.6080   14.5427   25.0960 C   0  0  0  0  0  0  0  0  0  0  0  0
   11.6493   14.0168   24.1322 C   0  0  0  0  0  0  0  0  0  0  0  0
   11.4648   14.6324   22.8092 C   0  0  0  0  0  0  0  0  0  0  0  0
   12.3277   15.4787   22.1656 C   0  0  0  0  0  0  0  0  0  0  0  0
   11.7799   15.8393   20.9928 O   0  0  0  0  0  0  0  0  0  0  0  0
   10.5860   15.1938   20.9853 C   0  0  0  0  0  0  0  0  0  0  0  0
    9.7982   15.4256   19.7858 C   0  0  0  0  0  0  0  0  0  0  0  0
   10.3236   14.4818   22.0622 N   0  0  0  0  0  0  0  0  0  0  0  0
  1  2  1  0
  2  3  2  0
  2  4  1  0
  4  5  2  0
  5  6  1  0
  6  7  2  0
  7  8  1  0
  8  9  2  0
  9 10  1  0
 10 11  2  0
 10 12  1  0
 12 13  1  0
 13 14  1  0
 14 15  1  0
 15 16  2  0
 16 17  1  0
 17 18  1  0
 18 19  1  0
 18 20  2  0
  9  4  1  0
 20 15  1  0
M  END
>  <energy_score>  (1597) 
-10.235893

>  <inchikey>  (1597) 
CZHJMHYBSWAUMO-UHFFFAOYSA-N

>  <smiles>  (1597) 
CC(=O)c1ccccc1C(=O)NCCc1coc(C)n1

>  <ref_pdb>  (1597) 
A0514a

>  <alias>  (1597) 
CZHJMHYBSWAUMO-UHFFFAOYSA-N-P637-P178-P637-601502

>  <HIPPO Pose ID>  (1597) 
503771

>  <name>  (1597) 
CZHJMHYBSWAUMO-UHFFFAOYSA-N-P637-P178-P637-601502

>  <HIPPO Compound ID>  (1597) 
306364

>  <ref_mols>  (1597) 
A3408a,A5594a

>  <distance_score>  (1597) 
1.626566

>  <inspiration_score>  (1597) 
None

$$$$
HOBGWVLGXIQGFJ-UHFFFAOYSA-N-P637-P178-P637-601502
     RDKit          3D

 20 21  0  0  0  0  0  0  0  0999 V2000
    9.9728   15.5810   19.9920 C   0  0  0  0  0  0  0  0  0  0  0  0
   10.4042   15.0783   21.2962 C   0  0  0  0  0  0  0  0  0  0  0  0
    9.8973   14.1055   22.0233 N   0  0  0  0  0  0  0  0  0  0  0  0
   10.8368   13.9160   22.9979 C   0  0  0  0  0  0  0  0  0  0  0  0
   10.7970   12.7698   23.9242 C   0  0  0  0  0  0  0  0  0  0  0  0
    9.9733   11.5774   23.4200 C   0  0  0  0  0  0  0  0  0  0  0  0
    8.7554   11.5254   24.1557 N   0  0  0  0  0  0  0  0  0  0  0  0
    7.4115   12.1652   23.8809 C   0  0  0  0  0  0  0  0  0  0  0  0
    7.0442   12.7797   22.9719 O   0  0  0  0  0  0  0  0  0  0  0  0
    6.5781   11.9714   25.0770 C   0  0  0  0  0  0  0  0  0  0  0  0
    6.1616   10.6870   25.4373 C   0  0  0  0  0  0  0  0  0  0  0  0
    5.3459   10.5320   26.5460 C   0  0  0  0  0  0  0  0  0  0  0  0
    4.9946   11.6528   27.3031 C   0  0  0  0  0  0  0  0  0  0  0  0
    3.8502   11.3402   28.7928 Br  0  0  0  0  0  0  0  0  0  0  0  0
    5.4922   12.9328   26.9791 C   0  0  0  0  0  0  0  0  0  0  0  0
    5.0802   14.3026   27.9638 Cl  0  0  0  0  0  0  0  0  0  0  0  0
    6.3325   13.1005   25.8702 C   0  0  0  0  0  0  0  0  0  0  0  0
    6.9600   14.4163   25.4787 C   0  0  0  0  0  0  0  0  0  0  0  0
   11.8053   14.8828   22.8985 C   0  0  0  0  0  0  0  0  0  0  0  0
   11.5432   15.6343   21.8032 O   0  0  0  0  0  0  0  0  0  0  0  0
  1  2  1  0
  2  3  2  0
  3  4  1  0
  4  5  1  0
  5  6  1  0
  6  7  1  0
  7  8  1  0
  8  9  2  0
  8 10  1  0
 10 11  2  0
 11 12  1  0
 12 13  2  0
 13 14  1  0
 13 15  1  0
 15 16  1  0
 15 17  2  0
 17 18  1  0
  4 19  2  0
 19 20  1  0
 20  2  1  0
 17 10  1  0
M  END
>  <energy_score>  (1598) 
-3.816148

>  <inchikey>  (1598) 
HOBGWVLGXIQGFJ-UHFFFAOYSA-N

>  <smiles>  (1598) 
Cc1nc(CCNC(=O)c2ccc(Br)c(Cl)c2C)co1

>  <ref_pdb>  (1598) 
A0514a

>  <alias>  (1598) 
HOBGWVLGXIQGFJ-UHFFFAOYSA-N-P637-P178-P637-601502

>  <HIPPO Pose ID>  (1598) 
503775

>  <name>  (1598) 
HOBGWVLGXIQGFJ-UHFFFAOYSA-N-P637-P178-P637-601502

>  <HIPPO Compound ID>  (1598) 
306368

>  <ref_mols>  (1598) 
A3408a,A5594a

>  <distance_score>  (1598) 
1.566368

>  <inspiration_score>  (1598) 
None

$$$$
HVQXGMVMDKKIQQ-UHFFFAOYSA-N-P637-P178-P637-601502
     RDKit          3D

 20 21  0  0  0  0  0  0  0  0999 V2000
    6.5832   14.4627   23.1702 C   0  0  0  0  0  0  0  0  0  0  0  0
    6.1747   14.5129   24.6469 C   0  0  0  0  0  0  0  0  0  0  0  0
    5.8735   13.1771   25.2976 C   0  0  0  0  0  0  0  0  0  0  0  0
    4.6944   12.9721   26.0134 C   0  0  0  0  0  0  0  0  0  0  0  0
    4.4153   11.7265   26.5921 C   0  0  0  0  0  0  0  0  0  0  0  0
    5.2844   10.6490   26.4291 C   0  0  0  0  0  0  0  0  0  0  0  0
    6.4833   10.8419   25.7600 C   0  0  0  0  0  0  0  0  0  0  0  0
    6.7775   12.1137   25.2507 C   0  0  0  0  0  0  0  0  0  0  0  0
    8.1410   12.4428   24.8467 C   0  0  0  0  0  0  0  0  0  0  0  0
    8.6117   13.3949   25.3101 O   0  0  0  0  0  0  0  0  0  0  0  0
    8.7276   11.4186   23.8978 N   0  0  0  0  0  0  0  0  0  0  0  0
    9.9887   11.3855   23.2339 C   0  0  0  0  0  0  0  0  0  0  0  0
   10.8564   12.5919   23.6235 C   0  0  0  0  0  0  0  0  0  0  0  0
   10.4840   13.8580   22.9701 C   0  0  0  0  0  0  0  0  0  0  0  0
   10.1648   13.9073   21.6463 N   0  0  0  0  0  0  0  0  0  0  0  0
   10.1938   15.1901   21.3691 C   0  0  0  0  0  0  0  0  0  0  0  0
   10.1760   15.8267   20.0475 C   0  0  0  0  0  0  0  0  0  0  0  0
   10.3709   16.0010   22.4570 O   0  0  0  0  0  0  0  0  0  0  0  0
   10.5241   15.1261   23.4931 C   0  0  0  0  0  0  0  0  0  0  0  0
   10.7147   15.6562   24.8509 C   0  0  0  0  0  0  0  0  0  0  0  0
  1  2  1  0
  2  3  1  0
  3  4  2  0
  4  5  1  0
  5  6  2  0
  6  7  1  0
  7  8  2  0
  8  9  1  0
  9 10  2  0
  9 11  1  0
 11 12  1  0
 12 13  1  0
 13 14  1  0
 14 15  1  0
 15 16  2  0
 16 17  1  0
 16 18  1  0
 18 19  1  0
 19 20  1  0
  8  3  1  0
 19 14  2  0
M  END
>  <energy_score>  (1599) 
-0.640064

>  <inchikey>  (1599) 
HVQXGMVMDKKIQQ-UHFFFAOYSA-N

>  <smiles>  (1599) 
CCc1ccccc1C(=O)NCCc1nc(C)oc1C

>  <ref_pdb>  (1599) 
A0514a

>  <alias>  (1599) 
HVQXGMVMDKKIQQ-UHFFFAOYSA-N-P637-P178-P637-601502

>  <HIPPO Pose ID>  (1599) 
503777

>  <name>  (1599) 
HVQXGMVMDKKIQQ-UHFFFAOYSA-N-P637-P178-P637-601502

>  <HIPPO Compound ID>  (1599) 
306370

>  <ref_mols>  (1599) 
A3408a,A5594a

>  <distance_score>  (1599) 
1.862563

>  <inspiration_score>  (1599) 
None

$$$$
IGFOFSBWWFICDY-UHFFFAOYSA-N-P637-P178-P637-601502
     RDKit          3D

 20 21  0  0  0  0  0  0  0  0999 V2000
   11.9187   15.0088   20.7402 C   0  0  0  0  0  0  0  0  0  0  0  0
   10.6845   14.9733   21.5212 C   0  0  0  0  0  0  0  0  0  0  0  0
    9.6947   15.8100   21.0990 O   0  0  0  0  0  0  0  0  0  0  0  0
    8.6938   15.6024   21.9869 C   0  0  0  0  0  0  0  0  0  0  0  0
    8.9650   14.7162   22.9155 N   0  0  0  0  0  0  0  0  0  0  0  0
   10.2185   14.2668   22.6063 C   0  0  0  0  0  0  0  0  0  0  0  0
   10.8445   13.1714   23.3896 C   0  0  0  0  0  0  0  0  0  0  0  0
   10.0725   11.8517   23.2828 C   0  0  0  0  0  0  0  0  0  0  0  0
    8.8985   11.8049   24.0930 N   0  0  0  0  0  0  0  0  0  0  0  0
    7.4785   12.2353   23.7940 C   0  0  0  0  0  0  0  0  0  0  0  0
    7.0039   12.6296   22.8155 O   0  0  0  0  0  0  0  0  0  0  0  0
    6.7041   12.1874   25.0344 C   0  0  0  0  0  0  0  0  0  0  0  0
    6.1069   11.0271   25.5258 C   0  0  0  0  0  0  0  0  0  0  0  0
    5.2966   11.1450   26.6518 C   0  0  0  0  0  0  0  0  0  0  0  0
    4.4969    9.7828   27.3148 Cl  0  0  0  0  0  0  0  0  0  0  0  0
    5.1101   12.3823   27.2778 C   0  0  0  0  0  0  0  0  0  0  0  0
    5.7627   13.5190   26.8053 C   0  0  0  0  0  0  0  0  0  0  0  0
    6.5833   13.4039   25.6934 C   0  0  0  0  0  0  0  0  0  0  0  0
    7.4108   14.5347   25.2622 C   0  0  0  0  0  0  0  0  0  0  0  0
    6.9240   15.6333   25.0538 O   0  0  0  0  0  0  0  0  0  0  0  0
  1  2  1  0
  2  3  1  0
  3  4  1  0
  4  5  2  0
  5  6  1  0
  6  7  1  0
  7  8  1  0
  8  9  1  0
  9 10  1  0
 10 11  2  0
 10 12  1  0
 12 13  2  0
 13 14  1  0
 14 15  1  0
 14 16  2  0
 16 17  1  0
 17 18  2  0
 18 19  1  0
 19 20  2  0
  6  2  2  0
 18 12  1  0
M  END
>  <energy_score>  (1600) 
-15.425946

>  <inchikey>  (1600) 
IGFOFSBWWFICDY-UHFFFAOYSA-N

>  <smiles>  (1600) 
Cc1ocnc1CCNC(=O)c1cc(Cl)ccc1C=O

>  <ref_pdb>  (1600) 
A0514a

>  <alias>  (1600) 
IGFOFSBWWFICDY-UHFFFAOYSA-N-P637-P178-P637-601502

>  <HIPPO Pose ID>  (1600) 
503779

>  <name>  (1600) 
IGFOFSBWWFICDY-UHFFFAOYSA-N-P637-P178-P637-601502

>  <HIPPO Compound ID>  (1600) 
306372

>  <ref_mols>  (1600) 
A3408a,A5594a

>  <distance_score>  (1600) 
1.738558

>  <inspiration_score>  (1600) 
None

$$$$
UDGJRXWDDYDNOP-UHFFFAOYSA-N-P637-P178-P637-601502
     RDKit          3D

 20 21  0  0  0  0  0  0  0  0999 V2000
    9.9234   15.6393   20.0050 C   0  0  0  0  0  0  0  0  0  0  0  0
   10.3301   15.1682   21.3279 C   0  0  0  0  0  0  0  0  0  0  0  0
    9.7944   14.2270   22.0776 N   0  0  0  0  0  0  0  0  0  0  0  0
   10.7750   13.9894   23.0075 C   0  0  0  0  0  0  0  0  0  0  0  0
   10.7680   12.7853   23.8599 C   0  0  0  0  0  0  0  0  0  0  0  0
    9.8845   11.6748   23.2811 C   0  0  0  0  0  0  0  0  0  0  0  0
    8.5805   11.8177   23.8457 N   0  0  0  0  0  0  0  0  0  0  0  0
    7.8034   10.9060   24.7802 C   0  0  0  0  0  0  0  0  0  0  0  0
    8.0599    9.8514   25.1864 O   0  0  0  0  0  0  0  0  0  0  0  0
    6.5546   11.5195   25.3372 C   0  0  0  0  0  0  0  0  0  0  0  0
    5.6800   10.5812   25.9333 C   0  0  0  0  0  0  0  0  0  0  0  0
    4.6115   10.9644   26.7490 C   0  0  0  0  0  0  0  0  0  0  0  0
    3.8329    9.9064   27.4796 C   0  0  0  0  0  0  0  0  0  0  0  0
    4.3741   12.3273   26.9077 C   0  0  0  0  0  0  0  0  0  0  0  0
    2.9388   12.9833   27.9669 Br  0  0  0  0  0  0  0  0  0  0  0  0
    5.2138   13.2723   26.3101 C   0  0  0  0  0  0  0  0  0  0  0  0
    6.3479   12.8965   25.5680 C   0  0  0  0  0  0  0  0  0  0  0  0
    7.2506   14.0278   25.1487 C   0  0  0  0  0  0  0  0  0  0  0  0
   11.7650   14.9319   22.8944 C   0  0  0  0  0  0  0  0  0  0  0  0
   11.4918   15.6963   21.8108 O   0  0  0  0  0  0  0  0  0  0  0  0
  1  2  1  0
  2  3  2  0
  3  4  1  0
  4  5  1  0
  5  6  1  0
  6  7  1  0
  7  8  1  0
  8  9  2  0
  8 10  1  0
 10 11  2  0
 11 12  1  0
 12 13  1  0
 12 14  2  0
 14 15  1  0
 14 16  1  0
 16 17  2  0
 17 18  1  0
  4 19  2  0
 19 20  1  0
 20  2  1  0
 17 10  1  0
M  END
>  <energy_score>  (1601) 
-2.707087

>  <inchikey>  (1601) 
UDGJRXWDDYDNOP-UHFFFAOYSA-N

>  <smiles>  (1601) 
Cc1nc(CCNC(=O)c2cc(C)c(Br)cc2C)co1

>  <ref_pdb>  (1601) 
A0514a

>  <alias>  (1601) 
UDGJRXWDDYDNOP-UHFFFAOYSA-N-P637-P178-P637-601502

>  <HIPPO Pose ID>  (1601) 
503781

>  <name>  (1601) 
UDGJRXWDDYDNOP-UHFFFAOYSA-N-P637-P178-P637-601502

>  <HIPPO Compound ID>  (1601) 
306374

>  <ref_mols>  (1601) 
A3408a,A5594a

>  <distance_score>  (1601) 
1.547714

>  <inspiration_score>  (1601) 
None

$$$$
KTACDVHEJHZSTD-UHFFFAOYSA-N-P637-P178-P637-601502
     RDKit          3D

 20 21  0  0  0  0  0  0  0  0999 V2000
    6.8094   14.1248   23.9630 C   0  0  0  0  0  0  0  0  0  0  0  0
    6.3832   13.0953   24.9717 C   0  0  0  0  0  0  0  0  0  0  0  0
    5.2636   13.3322   25.7827 C   0  0  0  0  0  0  0  0  0  0  0  0
    4.4460   14.8582   25.7955 Cl  0  0  0  0  0  0  0  0  0  0  0  0
    4.7648   12.3445   26.6279 C   0  0  0  0  0  0  0  0  0  0  0  0
    5.3622   11.0929   26.6578 C   0  0  0  0  0  0  0  0  0  0  0  0
    4.6542    9.8045   27.8400 Br  0  0  0  0  0  0  0  0  0  0  0  0
    6.4899   10.8341   25.8878 C   0  0  0  0  0  0  0  0  0  0  0  0
    7.0435   11.8592   25.1049 C   0  0  0  0  0  0  0  0  0  0  0  0
    8.3455   11.5730   24.4337 C   0  0  0  0  0  0  0  0  0  0  0  0
    8.4936   10.5304   23.9361 O   0  0  0  0  0  0  0  0  0  0  0  0
    9.2946   12.7876   24.5125 N   0  0  0  0  0  0  0  0  0  0  0  0
   10.5937   13.0069   23.9104 C   0  0  1  0  0  0  0  0  0  0  0  0
   10.5142   12.5967   22.4523 C   0  0  0  0  0  0  0  0  0  0  0  0
   11.0985   14.4513   24.0810 C   0  0  0  0  0  0  0  0  0  0  0  0
   10.5988   15.3223   22.9946 C   0  0  0  0  0  0  0  0  0  0  0  0
   11.2676   15.7413   21.8671 C   0  0  0  0  0  0  0  0  0  0  0  0
   10.3558   16.3041   21.0290 O   0  0  0  0  0  0  0  0  0  0  0  0
    9.1898   16.2386   21.7244 C   0  0  0  0  0  0  0  0  0  0  0  0
    9.2688   15.6479   22.8966 N   0  0  0  0  0  0  0  0  0  0  0  0
  1  2  1  0
  2  3  2  0
  3  4  1  0
  3  5  1  0
  5  6  2  0
  6  7  1  0
  6  8  1  0
  8  9  2  0
  9 10  1  0
 10 11  2  0
 10 12  1  0
 12 13  1  0
 13 14  1  6
 13 15  1  0
 15 16  1  0
 16 17  2  0
 17 18  1  0
 18 19  1  0
 19 20  2  0
  9  2  1  0
 20 16  1  0
M  END
>  <energy_score>  (1602) 
-8.000247

>  <inchikey>  (1602) 
KTACDVHEJHZSTD-UHFFFAOYSA-N

>  <smiles>  (1602) 
Cc1c(Cl)cc(Br)cc1C(=O)NC(C)Cc1cocn1

>  <ref_pdb>  (1602) 
A0514a

>  <alias>  (1602) 
KTACDVHEJHZSTD-UHFFFAOYSA-N-P637-P178-P637-601502

>  <HIPPO Pose ID>  (1602) 
503785

>  <name>  (1602) 
KTACDVHEJHZSTD-UHFFFAOYSA-N-P637-P178-P637-601502

>  <HIPPO Compound ID>  (1602) 
306378

>  <ref_mols>  (1602) 
A3408a,A5594a

>  <distance_score>  (1602) 
1.339057

>  <inspiration_score>  (1602) 
None

$$$$
LGNFJFDAYJJWCX-UHFFFAOYSA-N-P637-P178-P637-601502
     RDKit          3D

 20 21  0  0  0  0  0  0  0  0999 V2000
   10.0228   15.5360   19.9279 C   0  0  0  0  0  0  0  0  0  0  0  0
   10.4329   15.0288   21.2362 C   0  0  0  0  0  0  0  0  0  0  0  0
    9.9542   14.0104   21.9154 N   0  0  0  0  0  0  0  0  0  0  0  0
   10.8395   13.8724   22.9482 C   0  0  0  0  0  0  0  0  0  0  0  0
   10.8112   12.7288   23.8792 C   0  0  0  0  0  0  0  0  0  0  0  0
   10.0009   11.5202   23.3896 C   0  0  0  0  0  0  0  0  0  0  0  0
    8.7799   11.4817   24.1135 N   0  0  0  0  0  0  0  0  0  0  0  0
    7.4372   12.1054   23.8098 C   0  0  0  0  0  0  0  0  0  0  0  0
    7.0743   12.6930   22.8807 O   0  0  0  0  0  0  0  0  0  0  0  0
    6.5915   11.9458   24.9928 C   0  0  0  0  0  0  0  0  0  0  0  0
    6.1857   10.6887   25.4444 C   0  0  0  0  0  0  0  0  0  0  0  0
    5.3435   10.6189   26.5449 C   0  0  0  0  0  0  0  0  0  0  0  0
    4.9511   11.7942   27.1958 C   0  0  0  0  0  0  0  0  0  0  0  0
    5.4165   13.0559   26.7792 C   0  0  0  0  0  0  0  0  0  0  0  0
    5.0143   14.2881   27.5363 C   0  0  0  0  0  0  0  0  0  0  0  0
    6.2671   13.1153   25.6714 C   0  0  0  0  0  0  0  0  0  0  0  0
    6.9134   14.3762   25.2475 C   0  0  0  0  0  0  0  0  0  0  0  0
    8.1276   14.4518   25.1011 O   0  0  0  0  0  0  0  0  0  0  0  0
   11.7600   14.8894   22.9037 C   0  0  0  0  0  0  0  0  0  0  0  0
   11.5149   15.6386   21.8025 O   0  0  0  0  0  0  0  0  0  0  0  0
  1  2  1  0
  2  3  2  0
  3  4  1  0
  4  5  1  0
  5  6  1  0
  6  7  1  0
  7  8  1  0
  8  9  2  0
  8 10  1  0
 10 11  2  0
 11 12  1  0
 12 13  2  0
 13 14  1  0
 14 15  1  0
 14 16  2  0
 16 17  1  0
 17 18  2  0
  4 19  2  0
 19 20  1  0
 20  2  1  0
 16 10  1  0
M  END
>  <energy_score>  (1603) 
-14.239725

>  <inchikey>  (1603) 
LGNFJFDAYJJWCX-UHFFFAOYSA-N

>  <smiles>  (1603) 
Cc1nc(CCNC(=O)c2cccc(C)c2C=O)co1

>  <ref_pdb>  (1603) 
A0514a

>  <alias>  (1603) 
LGNFJFDAYJJWCX-UHFFFAOYSA-N-P637-P178-P637-601502

>  <HIPPO Pose ID>  (1603) 
503789

>  <name>  (1603) 
LGNFJFDAYJJWCX-UHFFFAOYSA-N-P637-P178-P637-601502

>  <HIPPO Compound ID>  (1603) 
306382

>  <ref_mols>  (1603) 
A3408a,A5594a

>  <distance_score>  (1603) 
1.870079

>  <inspiration_score>  (1603) 
None

$$$$
CSRSHYYBWFWURH-UHFFFAOYSA-N-P637-P178-P637-601502
     RDKit          3D

 20 21  0  0  0  0  0  0  0  0999 V2000
    4.8364   14.0314   25.6892 C   0  0  0  0  0  0  0  0  0  0  0  0
    5.6536   12.7719   25.6202 C   0  0  0  0  0  0  0  0  0  0  0  0
    5.2451   11.6526   26.3579 C   0  0  0  0  0  0  0  0  0  0  0  0
    5.8888   10.4258   26.2011 C   0  0  0  0  0  0  0  0  0  0  0  0
    7.0116   10.3223   25.3811 C   0  0  0  0  0  0  0  0  0  0  0  0
    7.4876   11.4442   24.7028 C   0  0  0  0  0  0  0  0  0  0  0  0
    8.7983   11.3420   23.9905 C   0  0  0  0  0  0  0  0  0  0  0  0
    9.0390   10.3750   23.3876 O   0  0  0  0  0  0  0  0  0  0  0  0
    9.6673   12.5857   24.2750 N   0  0  0  0  0  0  0  0  0  0  0  0
   10.9803   12.9397   23.7967 C   0  0  0  0  0  0  0  0  0  0  0  0
   11.2332   14.4395   23.8613 C   0  0  0  0  0  0  0  0  0  0  0  0
   10.3993   15.1338   22.8614 C   0  0  0  0  0  0  0  0  0  0  0  0
    9.1446   15.6049   23.1603 N   0  0  0  0  0  0  0  0  0  0  0  0
    8.7142   16.0533   21.9969 C   0  0  0  0  0  0  0  0  0  0  0  0
    9.5804   15.9178   20.9613 O   0  0  0  0  0  0  0  0  0  0  0  0
   10.6716   15.3401   21.5300 C   0  0  0  0  0  0  0  0  0  0  0  0
   11.8084   15.0562   20.6529 C   0  0  0  0  0  0  0  0  0  0  0  0
    6.7469   12.6299   24.7439 C   0  0  0  0  0  0  0  0  0  0  0  0
    6.9856   13.6460   23.7069 C   0  0  0  0  0  0  0  0  0  0  0  0
    7.2851   13.3063   22.5666 O   0  0  0  0  0  0  0  0  0  0  0  0
  1  2  1  0
  2  3  2  0
  3  4  1  0
  4  5  2  0
  5  6  1  0
  6  7  1  0
  7  8  2  0
  7  9  1  0
  9 10  1  0
 10 11  1  0
 11 12  1  0
 12 13  1  0
 13 14  2  0
 14 15  1  0
 15 16  1  0
 16 17  1  0
  6 18  2  0
 18 19  1  0
 19 20  2  0
 18  2  1  0
 16 12  2  0
M  END
>  <energy_score>  (1604) 
-18.632654

>  <inchikey>  (1604) 
CSRSHYYBWFWURH-UHFFFAOYSA-N

>  <smiles>  (1604) 
Cc1cccc(C(=O)NCCc2ncoc2C)c1C=O

>  <ref_pdb>  (1604) 
A0514a

>  <alias>  (1604) 
CSRSHYYBWFWURH-UHFFFAOYSA-N-P637-P178-P637-601502

>  <HIPPO Pose ID>  (1604) 
503790

>  <name>  (1604) 
CSRSHYYBWFWURH-UHFFFAOYSA-N-P637-P178-P637-601502

>  <HIPPO Compound ID>  (1604) 
306383

>  <ref_mols>  (1604) 
A3408a,A5594a

>  <distance_score>  (1604) 
1.238449

>  <inspiration_score>  (1604) 
None

$$$$
NIGAQWFHEQGEFP-UHFFFAOYSA-N-P637-P178-P637-601502
     RDKit          3D

 20 21  0  0  0  0  0  0  0  0999 V2000
    6.9251   14.4606   23.4118 C   0  0  0  0  0  0  0  0  0  0  0  0
    7.2761   14.1631   24.7678 O   0  0  0  0  0  0  0  0  0  0  0  0
    7.0186   12.8402   25.0101 C   0  0  0  0  0  0  0  0  0  0  0  0
    5.8927   12.5553   25.7793 C   0  0  0  0  0  0  0  0  0  0  0  0
    5.5674   11.2350   26.0372 C   0  0  0  0  0  0  0  0  0  0  0  0
    6.3593   10.2187   25.5042 C   0  0  0  0  0  0  0  0  0  0  0  0
    7.5247   10.4962   24.7629 C   0  0  0  0  0  0  0  0  0  0  0  0
    8.3256    9.3707   24.1759 C   0  0  0  0  0  0  0  0  0  0  0  0
    7.8833   11.8347   24.5528 C   0  0  0  0  0  0  0  0  0  0  0  0
    9.2250   12.1952   23.9616 C   0  0  0  0  0  0  0  0  0  0  0  0
    9.6767   11.5641   23.0967 O   0  0  0  0  0  0  0  0  0  0  0  0
    9.8186   13.3702   24.7511 N   0  0  0  0  0  0  0  0  0  0  0  0
   11.0602   14.0808   24.5803 C   0  0  2  0  0  0  0  0  0  0  0  0
   10.9284   15.3986   25.3395 C   0  0  0  0  0  0  0  0  0  0  0  0
   11.5628   14.2118   23.1514 C   0  0  0  0  0  0  0  0  0  0  0  0
   10.6719   14.8820   22.1933 C   0  0  0  0  0  0  0  0  0  0  0  0
   10.7882   14.8665   20.8258 C   0  0  0  0  0  0  0  0  0  0  0  0
    9.8197   15.6643   20.3099 O   0  0  0  0  0  0  0  0  0  0  0  0
    9.1832   16.1423   21.4086 C   0  0  0  0  0  0  0  0  0  0  0  0
    9.6235   15.6853   22.5578 N   0  0  0  0  0  0  0  0  0  0  0  0
  1  2  1  0
  2  3  1  0
  3  4  2  0
  4  5  1  0
  5  6  2  0
  6  7  1  0
  7  8  1  0
  7  9  2  0
  9 10  1  0
 10 11  2  0
 10 12  1  0
 12 13  1  0
 13 14  1  6
 13 15  1  0
 15 16  1  0
 16 17  2  0
 17 18  1  0
 18 19  1  0
 19 20  2  0
  9  3  1  0
 20 16  1  0
M  END
>  <energy_score>  (1605) 
-21.954384

>  <inchikey>  (1605) 
NIGAQWFHEQGEFP-UHFFFAOYSA-N

>  <smiles>  (1605) 
COc1cccc(C)c1C(=O)NC(C)Cc1cocn1

>  <ref_pdb>  (1605) 
A0514a

>  <alias>  (1605) 
NIGAQWFHEQGEFP-UHFFFAOYSA-N-P637-P178-P637-601502

>  <HIPPO Pose ID>  (1605) 
503791

>  <name>  (1605) 
NIGAQWFHEQGEFP-UHFFFAOYSA-N-P637-P178-P637-601502

>  <HIPPO Compound ID>  (1605) 
306384

>  <ref_mols>  (1605) 
A3408a,A5594a

>  <distance_score>  (1605) 
1.629659

>  <inspiration_score>  (1605) 
None

$$$$
UBRYYXQIKHWCBC-UHFFFAOYSA-N-P637-P178-P637-601502
     RDKit          3D

 20 21  0  0  0  0  0  0  0  0999 V2000
    7.3881   14.5025   23.3218 C   0  0  0  0  0  0  0  0  0  0  0  0
    7.6668   14.1578   24.6852 O   0  0  0  0  0  0  0  0  0  0  0  0
    7.2077   12.8969   24.9561 C   0  0  0  0  0  0  0  0  0  0  0  0
    6.0836   12.7886   25.7728 C   0  0  0  0  0  0  0  0  0  0  0  0
    5.5936   11.5299   26.1058 C   0  0  0  0  0  0  0  0  0  0  0  0
    6.2313   10.3853   25.6250 C   0  0  0  0  0  0  0  0  0  0  0  0
    7.3880   10.4856   24.8339 C   0  0  0  0  0  0  0  0  0  0  0  0
    8.0791    9.2629   24.3117 C   0  0  0  0  0  0  0  0  0  0  0  0
    7.8841   11.7564   24.5127 C   0  0  0  0  0  0  0  0  0  0  0  0
    9.1648   11.8603   23.7527 C   0  0  0  0  0  0  0  0  0  0  0  0
    9.3331   11.1823   22.8275 O   0  0  0  0  0  0  0  0  0  0  0  0
   10.0889   12.8750   24.4157 N   0  0  0  0  0  0  0  0  0  0  0  0
   11.4507   13.2074   24.1428 C   0  0  0  0  0  0  0  0  0  0  0  0
   11.6483   14.7034   24.1817 C   0  0  0  0  0  0  0  0  0  0  0  0
   11.4167   15.2574   22.8426 C   0  0  0  0  0  0  0  0  0  0  0  0
   12.3535   15.8257   22.0228 C   0  0  0  0  0  0  0  0  0  0  0  0
   11.8101   15.9796   20.8048 O   0  0  0  0  0  0  0  0  0  0  0  0
   10.5526   15.4934   20.9485 C   0  0  0  0  0  0  0  0  0  0  0  0
    9.7984   15.4490   19.7085 C   0  0  0  0  0  0  0  0  0  0  0  0
   10.2367   15.0949   22.1633 N   0  0  0  0  0  0  0  0  0  0  0  0
  1  2  1  0
  2  3  1  0
  3  4  2  0
  4  5  1  0
  5  6  2  0
  6  7  1  0
  7  8  1  0
  7  9  2  0
  9 10  1  0
 10 11  2  0
 10 12  1  0
 12 13  1  0
 13 14  1  0
 14 15  1  0
 15 16  2  0
 16 17  1  0
 17 18  1  0
 18 19  1  0
 18 20  2  0
  9  3  1  0
 20 15  1  0
M  END
>  <energy_score>  (1606) 
-11.398215

>  <inchikey>  (1606) 
UBRYYXQIKHWCBC-UHFFFAOYSA-N

>  <smiles>  (1606) 
COc1cccc(C)c1C(=O)NCCc1coc(C)n1

>  <ref_pdb>  (1606) 
A0514a

>  <alias>  (1606) 
UBRYYXQIKHWCBC-UHFFFAOYSA-N-P637-P178-P637-601502

>  <HIPPO Pose ID>  (1606) 
503792

>  <name>  (1606) 
UBRYYXQIKHWCBC-UHFFFAOYSA-N-P637-P178-P637-601502

>  <HIPPO Compound ID>  (1606) 
306385

>  <ref_mols>  (1606) 
A3408a,A5594a

>  <distance_score>  (1606) 
1.336713

>  <inspiration_score>  (1606) 
None

$$$$
RWYWDCVLAWTSJE-UHFFFAOYSA-N-P637-P178-P637-601502
     RDKit          3D

 20 21  0  0  0  0  0  0  0  0999 V2000
    6.8273   13.9979   24.2105 C   0  0  0  0  0  0  0  0  0  0  0  0
    6.4867   12.8060   25.0611 C   0  0  0  0  0  0  0  0  0  0  0  0
    5.3716   12.8257   25.9231 C   0  0  0  0  0  0  0  0  0  0  0  0
    4.5759   14.0575   26.1607 C   0  0  0  0  0  0  0  0  0  0  0  0
    3.6288   14.0807   26.9409 O   0  0  0  0  0  0  0  0  0  0  0  0
    4.9500   11.6581   26.5757 C   0  0  0  0  0  0  0  0  0  0  0  0
    5.6083   10.4541   26.3618 C   0  0  0  0  0  0  0  0  0  0  0  0
    6.7429   10.4308   25.5611 C   0  0  0  0  0  0  0  0  0  0  0  0
    7.2204   11.6072   24.9653 C   0  0  0  0  0  0  0  0  0  0  0  0
    8.5016   11.4849   24.2101 C   0  0  0  0  0  0  0  0  0  0  0  0
    8.6714   10.5261   23.5715 O   0  0  0  0  0  0  0  0  0  0  0  0
    9.4127   12.7063   24.4393 N   0  0  0  0  0  0  0  0  0  0  0  0
   10.6909   13.0495   23.8521 C   0  0  1  0  0  0  0  0  0  0  0  0
   10.6460   12.7088   22.3735 C   0  0  0  0  0  0  0  0  0  0  0  0
   11.0835   14.5176   24.0912 C   0  0  0  0  0  0  0  0  0  0  0  0
   10.5054   15.3916   23.0461 C   0  0  0  0  0  0  0  0  0  0  0  0
   11.1214   15.8703   21.9120 C   0  0  0  0  0  0  0  0  0  0  0  0
   10.1588   16.3932   21.1062 O   0  0  0  0  0  0  0  0  0  0  0  0
    9.0155   16.2510   21.8287 C   0  0  0  0  0  0  0  0  0  0  0  0
    9.1557   15.6414   22.9863 N   0  0  0  0  0  0  0  0  0  0  0  0
  1  2  1  0
  2  3  2  0
  3  4  1  0
  4  5  2  0
  3  6  1  0
  6  7  2  0
  7  8  1  0
  8  9  2  0
  9 10  1  0
 10 11  2  0
 10 12  1  0
 12 13  1  0
 13 14  1  6
 13 15  1  0
 15 16  1  0
 16 17  2  0
 17 18  1  0
 18 19  1  0
 19 20  2  0
  9  2  1  0
 20 16  1  0
M  END
>  <energy_score>  (1607) 
-3.713489

>  <inchikey>  (1607) 
RWYWDCVLAWTSJE-UHFFFAOYSA-N

>  <smiles>  (1607) 
Cc1c(C=O)cccc1C(=O)NC(C)Cc1cocn1

>  <ref_pdb>  (1607) 
A0514a

>  <alias>  (1607) 
RWYWDCVLAWTSJE-UHFFFAOYSA-N-P637-P178-P637-601502

>  <HIPPO Pose ID>  (1607) 
503805

>  <name>  (1607) 
RWYWDCVLAWTSJE-UHFFFAOYSA-N-P637-P178-P637-601502

>  <HIPPO Compound ID>  (1607) 
306398

>  <ref_mols>  (1607) 
A3408a,A5594a

>  <distance_score>  (1607) 
1.450862

>  <inspiration_score>  (1607) 
None

$$$$
DMFCGHVVUYMHLB-UHFFFAOYSA-N-P637-P178-P637-601502
     RDKit          3D

 20 21  0  0  0  0  0  0  0  0999 V2000
    5.0508   13.7691   26.6453 C   0  0  0  0  0  0  0  0  0  0  0  0
    5.9180   12.6855   26.0644 C   0  0  0  0  0  0  0  0  0  0  0  0
    5.5722   11.3544   26.3123 C   0  0  0  0  0  0  0  0  0  0  0  0
    6.2950   10.3137   25.7364 C   0  0  0  0  0  0  0  0  0  0  0  0
    7.4238   10.5687   24.9509 C   0  0  0  0  0  0  0  0  0  0  0  0
    8.1745    9.4340   24.3112 C   0  0  0  0  0  0  0  0  0  0  0  0
    7.7940   11.9043   24.7127 C   0  0  0  0  0  0  0  0  0  0  0  0
    8.9889   12.1512   23.8466 C   0  0  0  0  0  0  0  0  0  0  0  0
    9.0017   11.6398   22.8065 O   0  0  0  0  0  0  0  0  0  0  0  0
   10.0217   13.0553   24.5189 N   0  0  0  0  0  0  0  0  0  0  0  0
   11.3390   13.4492   24.0919 C   0  0  0  0  0  0  0  0  0  0  0  0
   11.4253   14.9417   23.8267 C   0  0  0  0  0  0  0  0  0  0  0  0
   10.4961   15.3493   22.7549 C   0  0  0  0  0  0  0  0  0  0  0  0
    9.2537   15.8546   23.0323 N   0  0  0  0  0  0  0  0  0  0  0  0
    8.7391   16.0677   21.8403 C   0  0  0  0  0  0  0  0  0  0  0  0
    9.5327   15.7199   20.7959 O   0  0  0  0  0  0  0  0  0  0  0  0
   10.6715   15.2773   21.3949 C   0  0  0  0  0  0  0  0  0  0  0  0
   11.7650   14.8537   20.5230 C   0  0  0  0  0  0  0  0  0  0  0  0
    7.0020   12.9648   25.2046 C   0  0  0  0  0  0  0  0  0  0  0  0
    7.2643   14.3649   24.7367 C   0  0  0  0  0  0  0  0  0  0  0  0
  1  2  1  0
  2  3  2  0
  3  4  1  0
  4  5  2  0
  5  6  1  0
  5  7  1  0
  7  8  1  0
  8  9  2  0
  8 10  1  0
 10 11  1  0
 11 12  1  0
 12 13  1  0
 13 14  1  0
 14 15  2  0
 15 16  1  0
 16 17  1  0
 17 18  1  0
  7 19  2  0
 19 20  1  0
 19  2  1  0
 17 13  2  0
M  END
>  <energy_score>  (1608) 
-21.300739

>  <inchikey>  (1608) 
DMFCGHVVUYMHLB-UHFFFAOYSA-N

>  <smiles>  (1608) 
Cc1ccc(C)c(C(=O)NCCc2ncoc2C)c1C

>  <ref_pdb>  (1608) 
A0514a

>  <alias>  (1608) 
DMFCGHVVUYMHLB-UHFFFAOYSA-N-P637-P178-P637-601502

>  <HIPPO Pose ID>  (1608) 
503814

>  <name>  (1608) 
DMFCGHVVUYMHLB-UHFFFAOYSA-N-P637-P178-P637-601502

>  <HIPPO Compound ID>  (1608) 
306407

>  <ref_mols>  (1608) 
A3408a,A5594a

>  <distance_score>  (1608) 
1.879542

>  <inspiration_score>  (1608) 
None

$$$$
ZUTGNASFPUFKEO-UHFFFAOYSA-N-P637-P178-P637-601502
     RDKit          3D

 20 21  0  0  0  0  0  0  0  0999 V2000
   12.0038   15.5272   21.5005 C   0  0  0  0  0  0  0  0  0  0  0  0
   10.6240   15.1363   21.7985 C   0  0  0  0  0  0  0  0  0  0  0  0
    9.6396   15.8896   21.2351 O   0  0  0  0  0  0  0  0  0  0  0  0
    8.4933   15.3342   21.6978 C   0  0  0  0  0  0  0  0  0  0  0  0
    8.6522   14.2774   22.4626 N   0  0  0  0  0  0  0  0  0  0  0  0
   10.0249   14.1357   22.5267 C   0  0  0  0  0  0  0  0  0  0  0  0
   10.6619   13.0272   23.2794 C   0  0  0  0  0  0  0  0  0  0  0  0
    9.8942   11.7186   23.1368 C   0  0  0  0  0  0  0  0  0  0  0  0
    8.6129   11.8119   23.7621 N   0  0  0  0  0  0  0  0  0  0  0  0
    7.8979   10.8516   24.6955 C   0  0  0  0  0  0  0  0  0  0  0  0
    8.1944    9.7903   25.0526 O   0  0  0  0  0  0  0  0  0  0  0  0
    6.6628   11.4188   25.3244 C   0  0  0  0  0  0  0  0  0  0  0  0
    5.7772   10.4274   25.7954 C   0  0  0  0  0  0  0  0  0  0  0  0
    4.6681   10.7444   26.5606 C   0  0  0  0  0  0  0  0  0  0  0  0
    4.3847   12.0756   26.8121 C   0  0  0  0  0  0  0  0  0  0  0  0
    5.2333   13.0835   26.3356 C   0  0  0  0  0  0  0  0  0  0  0  0
    4.8078   14.4846   26.5920 C   0  0  0  0  0  0  0  0  0  0  0  0
    3.9680   14.7703   27.4387 O   0  0  0  0  0  0  0  0  0  0  0  0
    6.4347   12.7769   25.6542 C   0  0  0  0  0  0  0  0  0  0  0  0
    7.4042   13.8998   25.3888 C   0  0  0  0  0  0  0  0  0  0  0  0
  1  2  1  0
  2  3  1  0
  3  4  1  0
  4  5  2  0
  5  6  1  0
  6  7  1  0
  7  8  1  0
  8  9  1  0
  9 10  1  0
 10 11  2  0
 10 12  1  0
 12 13  2  0
 13 14  1  0
 14 15  2  0
 15 16  1  0
 16 17  1  0
 17 18  2  0
 16 19  2  0
 19 20  1  0
  6  2  2  0
 19 12  1  0
M  END
>  <energy_score>  (1609) 
-14.572421

>  <inchikey>  (1609) 
ZUTGNASFPUFKEO-UHFFFAOYSA-N

>  <smiles>  (1609) 
Cc1ocnc1CCNC(=O)c1cccc(C=O)c1C

>  <ref_pdb>  (1609) 
A0514a

>  <alias>  (1609) 
ZUTGNASFPUFKEO-UHFFFAOYSA-N-P637-P178-P637-601502

>  <HIPPO Pose ID>  (1609) 
503816

>  <name>  (1609) 
ZUTGNASFPUFKEO-UHFFFAOYSA-N-P637-P178-P637-601502

>  <HIPPO Compound ID>  (1609) 
306409

>  <ref_mols>  (1609) 
A3408a,A5594a

>  <distance_score>  (1609) 
1.587876

>  <inspiration_score>  (1609) 
None

$$$$
GJOAYYGNADKCLK-UHFFFAOYSA-N-P637-P178-P637-601502
     RDKit          3D

 20 21  0  0  0  0  0  0  0  0999 V2000
    4.6965   13.9058   25.8330 C   0  0  0  0  0  0  0  0  0  0  0  0
    5.6254   12.7323   25.6960 C   0  0  0  0  0  0  0  0  0  0  0  0
    5.3006   11.5319   26.3370 C   0  0  0  0  0  0  0  0  0  0  0  0
    6.0491   10.3791   26.1034 C   0  0  0  0  0  0  0  0  0  0  0  0
    7.1968   10.4244   25.3110 C   0  0  0  0  0  0  0  0  0  0  0  0
    7.5939   11.6318   24.7418 C   0  0  0  0  0  0  0  0  0  0  0  0
    8.8794   11.7024   23.9821 C   0  0  0  0  0  0  0  0  0  0  0  0
    9.1146   10.8713   23.2005 O   0  0  0  0  0  0  0  0  0  0  0  0
    9.6514   12.9952   24.3329 N   0  0  0  0  0  0  0  0  0  0  0  0
   10.8269   13.5825   23.7250 C   0  0  2  0  0  0  0  0  0  0  0  0
   12.0730   13.5218   24.5831 C   0  0  0  0  0  0  0  0  0  0  0  0
   10.5266   15.0579   23.3990 C   0  0  0  0  0  0  0  0  0  0  0  0
   10.5869   15.2767   21.9521 C   0  0  0  0  0  0  0  0  0  0  0  0
   11.6979   15.4019   21.1565 C   0  0  0  0  0  0  0  0  0  0  0  0
   11.2747   15.5107   19.8720 O   0  0  0  0  0  0  0  0  0  0  0  0
    9.9217   15.4641   19.9731 C   0  0  0  0  0  0  0  0  0  0  0  0
    9.4509   15.3308   21.1906 N   0  0  0  0  0  0  0  0  0  0  0  0
    6.7443   12.7457   24.8422 C   0  0  0  0  0  0  0  0  0  0  0  0
    6.9096   13.8600   23.8892 C   0  0  0  0  0  0  0  0  0  0  0  0
    7.3271   13.6549   22.7573 O   0  0  0  0  0  0  0  0  0  0  0  0
  1  2  1  0
  2  3  2  0
  3  4  1  0
  4  5  2  0
  5  6  1  0
  6  7  1  0
  7  8  2  0
  7  9  1  0
  9 10  1  0
 10 11  1  1
 10 12  1  0
 12 13  1  0
 13 14  2  0
 14 15  1  0
 15 16  1  0
 16 17  2  0
  6 18  2  0
 18 19  1  0
 19 20  2  0
 18  2  1  0
 17 13  1  0
M  END
>  <energy_score>  (1610) 
-15.298733

>  <inchikey>  (1610) 
GJOAYYGNADKCLK-UHFFFAOYSA-N

>  <smiles>  (1610) 
Cc1cccc(C(=O)NC(C)Cc2cocn2)c1C=O

>  <ref_pdb>  (1610) 
A0514a

>  <alias>  (1610) 
GJOAYYGNADKCLK-UHFFFAOYSA-N-P637-P178-P637-601502

>  <HIPPO Pose ID>  (1610) 
503818

>  <name>  (1610) 
GJOAYYGNADKCLK-UHFFFAOYSA-N-P637-P178-P637-601502

>  <HIPPO Compound ID>  (1610) 
306411

>  <ref_mols>  (1610) 
A3408a,A5594a

>  <distance_score>  (1610) 
1.446376

>  <inspiration_score>  (1610) 
None

$$$$
VQYSFIJRGLDCHR-UHFFFAOYSA-N-P637-P178-P637-601502
     RDKit          3D

 20 21  0  0  0  0  0  0  0  0999 V2000
    6.6997   14.1206   22.3289 C   0  0  0  0  0  0  0  0  0  0  0  0
    6.8896   14.9469   23.5860 C   0  0  0  0  0  0  0  0  0  0  0  0
    6.3726   14.3491   24.8947 C   0  0  0  0  0  0  0  0  0  0  0  0
    6.6440   12.8919   25.1445 C   0  0  0  0  0  0  0  0  0  0  0  0
    5.6033   12.1158   25.6788 C   0  0  0  0  0  0  0  0  0  0  0  0
    5.7300   10.7393   25.7856 C   0  0  0  0  0  0  0  0  0  0  0  0
    6.8869   10.1312   25.3214 C   0  0  0  0  0  0  0  0  0  0  0  0
    7.9642   10.8930   24.8679 C   0  0  0  0  0  0  0  0  0  0  0  0
    7.8740   12.2868   24.8477 C   0  0  0  0  0  0  0  0  0  0  0  0
    9.0942   13.1569   24.7365 C   0  0  0  0  0  0  0  0  0  0  0  0
    9.1724   14.0367   25.4927 O   0  0  0  0  0  0  0  0  0  0  0  0
   10.0670   12.6907   23.6559 N   0  0  0  0  0  0  0  0  0  0  0  0
   11.3925   13.1467   23.3311 C   0  0  0  0  0  0  0  0  0  0  0  0
   11.5609   14.6596   23.4298 C   0  0  0  0  0  0  0  0  0  0  0  0
   10.7552   15.3534   22.4079 C   0  0  0  0  0  0  0  0  0  0  0  0
    9.6634   16.1022   22.7324 N   0  0  0  0  0  0  0  0  0  0  0  0
    9.2354   16.5553   21.5768 C   0  0  0  0  0  0  0  0  0  0  0  0
    9.9392   16.1321   20.4986 O   0  0  0  0  0  0  0  0  0  0  0  0
   10.9386   15.3923   21.0484 C   0  0  0  0  0  0  0  0  0  0  0  0
   11.9505   14.8726   20.1382 C   0  0  0  0  0  0  0  0  0  0  0  0
  1  2  1  0
  2  3  1  0
  3  4  1  0
  4  5  2  0
  5  6  1  0
  6  7  2  0
  7  8  1  0
  8  9  2  0
  9 10  1  0
 10 11  2  0
 10 12  1  0
 12 13  1  0
 13 14  1  0
 14 15  1  0
 15 16  1  0
 16 17  2  0
 17 18  1  0
 18 19  1  0
 19 20  1  0
  9  4  1  0
 19 15  2  0
M  END
>  <energy_score>  (1611) 
-1.190009

>  <inchikey>  (1611) 
VQYSFIJRGLDCHR-UHFFFAOYSA-N

>  <smiles>  (1611) 
CCCc1ccccc1C(=O)NCCc1ncoc1C

>  <ref_pdb>  (1611) 
A0514a

>  <alias>  (1611) 
VQYSFIJRGLDCHR-UHFFFAOYSA-N-P637-P178-P637-601502

>  <HIPPO Pose ID>  (1611) 
503821

>  <name>  (1611) 
VQYSFIJRGLDCHR-UHFFFAOYSA-N-P637-P178-P637-601502

>  <HIPPO Compound ID>  (1611) 
306414

>  <ref_mols>  (1611) 
A3408a,A5594a

>  <distance_score>  (1611) 
1.902863

>  <inspiration_score>  (1611) 
None

$$$$
NAWQERQEEKMZDE-UHFFFAOYSA-N-P637-P178-P637-601502
     RDKit          3D

 20 22  0  0  0  0  0  0  0  0999 V2000
   10.0787   15.9322   19.1634 C   0  0  0  0  0  0  0  0  0  0  0  0
   10.2973   15.6034   20.5708 C   0  0  0  0  0  0  0  0  0  0  0  0
    9.9305   14.5305   21.2384 N   0  0  0  0  0  0  0  0  0  0  0  0
   10.9167   14.4471   22.1790 C   0  0  0  0  0  0  0  0  0  0  0  0
   11.3020   13.1643   22.7552 C   0  0  0  0  0  0  0  0  0  0  0  0
   11.1632   13.1055   24.2464 C   0  0  0  0  0  0  0  0  0  0  0  0
    9.8305   12.7240   24.6037 N   0  0  0  0  0  0  0  0  0  0  0  0
    8.9631   11.5414   24.1216 C   0  0  0  0  0  0  0  0  0  0  0  0
    9.2244   10.6520   23.4184 O   0  0  0  0  0  0  0  0  0  0  0  0
    7.6125   11.6771   24.6798 C   0  0  0  0  0  0  0  0  0  0  0  0
    7.0158   10.6347   25.3916 C   0  0  0  0  0  0  0  0  0  0  0  0
    5.8028   10.8532   26.0580 C   0  0  0  0  0  0  0  0  0  0  0  0
    5.1758   12.1021   25.9842 C   0  0  0  0  0  0  0  0  0  0  0  0
    5.7487   13.0862   25.1894 C   0  0  0  0  0  0  0  0  0  0  0  0
    6.9477   12.8764   24.5349 C   0  0  0  0  0  0  0  0  0  0  0  0
    7.2407   14.0270   23.6383 C   0  0  0  0  0  0  0  0  0  0  0  0
    6.3525   15.0461   24.1322 O   0  0  0  0  0  0  0  0  0  0  0  0
    5.2181   14.3999   24.7491 C   0  0  0  0  0  0  0  0  0  0  0  0
   11.6454   15.6053   22.2231 C   0  0  0  0  0  0  0  0  0  0  0  0
   11.2392   16.3729   21.1913 O   0  0  0  0  0  0  0  0  0  0  0  0
  1  2  1  0
  2  3  2  0
  3  4  1  0
  4  5  1  0
  5  6  1  0
  6  7  1  0
  7  8  1  0
  8  9  2  0
  8 10  1  0
 10 11  2  0
 11 12  1  0
 12 13  2  0
 13 14  1  0
 14 15  2  0
 15 16  1  0
 16 17  1  0
 17 18  1  0
  4 19  2  0
 19 20  1  0
 20  2  1  0
 15 10  1  0
 18 14  1  0
M  END
>  <energy_score>  (1612) 
-0.575587

>  <inchikey>  (1612) 
NAWQERQEEKMZDE-UHFFFAOYSA-N

>  <smiles>  (1612) 
Cc1nc(CCNC(=O)c2cccc3c2COC3)co1

>  <ref_pdb>  (1612) 
A0514a

>  <alias>  (1612) 
NAWQERQEEKMZDE-UHFFFAOYSA-N-P637-P178-P637-601502

>  <HIPPO Pose ID>  (1612) 
503829

>  <name>  (1612) 
NAWQERQEEKMZDE-UHFFFAOYSA-N-P637-P178-P637-601502

>  <HIPPO Compound ID>  (1612) 
306422

>  <ref_mols>  (1612) 
A3408a,A5594a

>  <distance_score>  (1612) 
1.970487

>  <inspiration_score>  (1612) 
None

$$$$
DCSFFOUIYZRSGC-UHFFFAOYSA-N-P637-P178-P637-601502
     RDKit          3D

 20 21  0  0  0  0  0  0  0  0999 V2000
    9.7626   15.4429   19.7507 C   0  0  0  0  0  0  0  0  0  0  0  0
   10.5060   15.4980   20.9963 C   0  0  0  0  0  0  0  0  0  0  0  0
   10.1814   15.1111   22.2136 N   0  0  0  0  0  0  0  0  0  0  0  0
   11.3637   15.2623   22.8907 C   0  0  0  0  0  0  0  0  0  0  0  0
   11.5866   14.6963   24.2241 C   0  0  0  0  0  0  0  0  0  0  0  0
   11.4138   13.1972   24.1531 C   0  0  0  0  0  0  0  0  0  0  0  0
   10.0730   12.8285   24.4859 N   0  0  0  0  0  0  0  0  0  0  0  0
    9.0755   11.9478   23.7447 C   0  0  0  0  0  0  0  0  0  0  0  0
    9.2018   11.3157   22.7829 O   0  0  0  0  0  0  0  0  0  0  0  0
    7.7939   11.8788   24.5060 C   0  0  0  0  0  0  0  0  0  0  0  0
    7.3342   10.6062   24.8929 C   0  0  0  0  0  0  0  0  0  0  0  0
    8.0282    9.3758   24.3880 C   0  0  0  0  0  0  0  0  0  0  0  0
    6.2096   10.5094   25.7262 C   0  0  0  0  0  0  0  0  0  0  0  0
    5.5706   11.6635   26.1721 C   0  0  0  0  0  0  0  0  0  0  0  0
    4.2435   11.5422   27.2608 Cl  0  0  0  0  0  0  0  0  0  0  0  0
    6.0015   12.9192   25.7474 C   0  0  0  0  0  0  0  0  0  0  0  0
    7.0999   13.0400   24.8832 C   0  0  0  0  0  0  0  0  0  0  0  0
    7.4962   14.3979   24.3847 C   0  0  0  0  0  0  0  0  0  0  0  0
   12.3105   15.8138   22.0703 C   0  0  0  0  0  0  0  0  0  0  0  0
   11.7695   15.9704   20.8521 O   0  0  0  0  0  0  0  0  0  0  0  0
  1  2  1  0
  2  3  2  0
  3  4  1  0
  4  5  1  0
  5  6  1  0
  6  7  1  0
  7  8  1  0
  8  9  2  0
  8 10  1  0
 10 11  2  0
 11 12  1  0
 11 13  1  0
 13 14  2  0
 14 15  1  0
 14 16  1  0
 16 17  2  0
 17 18  1  0
  4 19  2  0
 19 20  1  0
 20  2  1  0
 17 10  1  0
M  END
>  <energy_score>  (1613) 
-9.301453

>  <inchikey>  (1613) 
DCSFFOUIYZRSGC-UHFFFAOYSA-N

>  <smiles>  (1613) 
Cc1nc(CCNC(=O)c2c(C)cc(Cl)cc2C)co1

>  <ref_pdb>  (1613) 
A0514a

>  <alias>  (1613) 
DCSFFOUIYZRSGC-UHFFFAOYSA-N-P637-P178-P637-601502

>  <HIPPO Pose ID>  (1613) 
503835

>  <name>  (1613) 
DCSFFOUIYZRSGC-UHFFFAOYSA-N-P637-P178-P637-601502

>  <HIPPO Compound ID>  (1613) 
306428

>  <ref_mols>  (1613) 
A3408a,A5594a

>  <distance_score>  (1613) 
1.72821

>  <inspiration_score>  (1613) 
None

$$$$
PXCMASXZSYJTCR-UHFFFAOYSA-N-P637-P178-P637-601502
     RDKit          3D

 20 21  0  0  0  0  0  0  0  0999 V2000
    4.7808   10.9675   29.0641 C   0  0  0  0  0  0  0  0  0  0  0  0
    4.8825   10.0142   27.5294 S   0  0  0  0  0  0  0  0  0  0  0  0
    5.5944   11.2114   26.4225 C   0  0  0  0  0  0  0  0  0  0  0  0
    5.0417   12.4883   26.3201 C   0  0  0  0  0  0  0  0  0  0  0  0
    5.5962   13.4366   25.4636 C   0  0  0  0  0  0  0  0  0  0  0  0
    6.7232   13.1308   24.6962 C   0  0  0  0  0  0  0  0  0  0  0  0
    7.2282   14.1598   23.7246 C   0  0  0  0  0  0  0  0  0  0  0  0
    7.3147   11.8648   24.8456 C   0  0  0  0  0  0  0  0  0  0  0  0
    8.6198   11.5507   24.1954 C   0  0  0  0  0  0  0  0  0  0  0  0
    8.7352   10.5967   23.5417 O   0  0  0  0  0  0  0  0  0  0  0  0
    9.6286   12.6651   24.5192 N   0  0  0  0  0  0  0  0  0  0  0  0
   10.9638   12.8891   24.0294 C   0  0  0  0  0  0  0  0  0  0  0  0
   11.3916   14.3375   24.2103 C   0  0  0  0  0  0  0  0  0  0  0  0
   11.2496   15.0405   22.9304 C   0  0  0  0  0  0  0  0  0  0  0  0
   12.2308   15.6711   22.2137 C   0  0  0  0  0  0  0  0  0  0  0  0
   11.7447   15.9521   20.9908 O   0  0  0  0  0  0  0  0  0  0  0  0
   10.4817   15.4549   21.0251 C   0  0  0  0  0  0  0  0  0  0  0  0
    9.8005   15.4768   19.7412 C   0  0  0  0  0  0  0  0  0  0  0  0
   10.0986   14.9682   22.1875 N   0  0  0  0  0  0  0  0  0  0  0  0
    6.7169   10.8877   25.6533 C   0  0  0  0  0  0  0  0  0  0  0  0
  1  2  1  0
  2  3  1  0
  3  4  2  0
  4  5  1  0
  5  6  2  0
  6  7  1  0
  6  8  1  0
  8  9  1  0
  9 10  2  0
  9 11  1  0
 11 12  1  0
 12 13  1  0
 13 14  1  0
 14 15  2  0
 15 16  1  0
 16 17  1  0
 17 18  1  0
 17 19  2  0
  8 20  2  0
 20  3  1  0
 19 14  1  0
M  END
>  <energy_score>  (1614) 
-13.507081

>  <inchikey>  (1614) 
PXCMASXZSYJTCR-UHFFFAOYSA-N

>  <smiles>  (1614) 
CSc1ccc(C)c(C(=O)NCCc2coc(C)n2)c1

>  <ref_pdb>  (1614) 
A0514a

>  <alias>  (1614) 
PXCMASXZSYJTCR-UHFFFAOYSA-N-P637-P178-P637-601502

>  <HIPPO Pose ID>  (1614) 
503838

>  <name>  (1614) 
PXCMASXZSYJTCR-UHFFFAOYSA-N-P637-P178-P637-601502

>  <HIPPO Compound ID>  (1614) 
306431

>  <ref_mols>  (1614) 
A3408a,A5594a

>  <distance_score>  (1614) 
1.241305

>  <inspiration_score>  (1614) 
None

$$$$
IDRUSGQSJGDZII-UHFFFAOYSA-N-P637-P178-P637-601502
     RDKit          3D

 20 21  0  0  0  0  0  0  0  0999 V2000
    6.8073   14.7223   24.0083 C   0  0  0  0  0  0  0  0  0  0  0  0
    7.1967   14.0144   25.2988 C   0  0  0  0  0  0  0  0  0  0  0  0
    6.1674   12.9959   25.7460 C   0  0  0  0  0  0  0  0  0  0  0  0
    5.0632   13.5148   26.4388 C   0  0  0  0  0  0  0  0  0  0  0  0
    4.1477   12.6784   27.0746 C   0  0  0  0  0  0  0  0  0  0  0  0
    4.2972   11.3010   27.0072 C   0  0  0  0  0  0  0  0  0  0  0  0
    3.1534   10.2015   28.0332 Br  0  0  0  0  0  0  0  0  0  0  0  0
    5.3134   10.7505   26.2480 C   0  0  0  0  0  0  0  0  0  0  0  0
    6.2523   11.5900   25.6174 C   0  0  0  0  0  0  0  0  0  0  0  0
    7.4417   10.8736   25.1055 C   0  0  0  0  0  0  0  0  0  0  0  0
    7.7542    9.9337   25.7025 O   0  0  0  0  0  0  0  0  0  0  0  0
    8.1100   11.5593   23.9329 N   0  0  0  0  0  0  0  0  0  0  0  0
    9.3651   11.2969   23.2907 C   0  0  2  0  0  0  0  0  0  0  0  0
    9.7426    9.8204   23.3236 C   0  0  0  0  0  0  0  0  0  0  0  0
   10.3505   12.4130   23.7090 C   0  0  0  0  0  0  0  0  0  0  0  0
   10.2641   13.6140   22.8137 C   0  0  0  0  0  0  0  0  0  0  0  0
   11.2611   14.4805   22.4275 C   0  0  0  0  0  0  0  0  0  0  0  0
   10.7384   15.3548   21.5252 O   0  0  0  0  0  0  0  0  0  0  0  0
    9.4372   14.9847   21.4242 C   0  0  0  0  0  0  0  0  0  0  0  0
    9.0866   13.9713   22.1857 N   0  0  0  0  0  0  0  0  0  0  0  0
  1  2  1  0
  2  3  1  0
  3  4  2  0
  4  5  1  0
  5  6  2  0
  6  7  1  0
  6  8  1  0
  8  9  2  0
  9 10  1  0
 10 11  2  0
 10 12  1  0
 12 13  1  0
 13 14  1  1
 13 15  1  0
 15 16  1  0
 16 17  2  0
 17 18  1  0
 18 19  1  0
 19 20  2  0
  9  3  1  0
 20 16  1  0
M  END
>  <energy_score>  (1615) 
-2.917426

>  <inchikey>  (1615) 
IDRUSGQSJGDZII-UHFFFAOYSA-N

>  <smiles>  (1615) 
CCc1ccc(Br)cc1C(=O)NC(C)Cc1cocn1

>  <ref_pdb>  (1615) 
A0514a

>  <alias>  (1615) 
IDRUSGQSJGDZII-UHFFFAOYSA-N-P637-P178-P637-601502

>  <HIPPO Pose ID>  (1615) 
503840

>  <name>  (1615) 
IDRUSGQSJGDZII-UHFFFAOYSA-N-P637-P178-P637-601502

>  <HIPPO Compound ID>  (1615) 
306433

>  <ref_mols>  (1615) 
A3408a,A5594a

>  <distance_score>  (1615) 
1.691188

>  <inspiration_score>  (1615) 
None

$$$$
IIBMAKUKPJYIAF-UHFFFAOYSA-N-P637-P178-P637-601502
     RDKit          3D

 20 21  0  0  0  0  0  0  0  0999 V2000
    3.6924   10.7762   28.1186 C   0  0  0  0  0  0  0  0  0  0  0  0
    4.8232   11.1457   27.1938 C   0  0  0  0  0  0  0  0  0  0  0  0
    5.3251   10.1495   26.3423 C   0  0  0  0  0  0  0  0  0  0  0  0
    6.3464   10.4210   25.4444 C   0  0  0  0  0  0  0  0  0  0  0  0
    6.8230   11.7198   25.3675 C   0  0  0  0  0  0  0  0  0  0  0  0
    7.7119   12.1021   24.2636 C   0  0  0  0  0  0  0  0  0  0  0  0
    8.7870   11.6696   24.1740 O   0  0  0  0  0  0  0  0  0  0  0  0
    6.9948   13.1714   23.4240 N   0  0  0  0  0  0  0  0  0  0  0  0
    7.4783   13.9960   22.3641 C   0  0  0  0  0  0  0  0  0  0  0  0
    8.6909   14.7807   22.8468 C   0  0  0  0  0  0  0  0  0  0  0  0
    9.6040   15.0666   21.7372 C   0  0  0  0  0  0  0  0  0  0  0  0
    9.1213   15.2514   20.4723 N   0  0  0  0  0  0  0  0  0  0  0  0
   10.2052   15.4261   19.7512 C   0  0  0  0  0  0  0  0  0  0  0  0
   11.3713   15.3679   20.4434 O   0  0  0  0  0  0  0  0  0  0  0  0
   10.9727   15.1460   21.7267 C   0  0  0  0  0  0  0  0  0  0  0  0
   12.0074   15.0331   22.7443 C   0  0  0  0  0  0  0  0  0  0  0  0
    6.4216   12.7359   26.2582 C   0  0  0  0  0  0  0  0  0  0  0  0
    7.0695   14.1002   26.1957 C   0  0  0  0  0  0  0  0  0  0  0  0
    5.3872   12.4366   27.1555 C   0  0  0  0  0  0  0  0  0  0  0  0
    4.7070   13.7883   28.3229 Br  0  0  0  0  0  0  0  0  0  0  0  0
  1  2  1  0
  2  3  2  0
  3  4  1  0
  4  5  2  0
  5  6  1  0
  6  7  2  0
  6  8  1  0
  8  9  1  0
  9 10  1  0
 10 11  1  0
 11 12  1  0
 12 13  2  0
 13 14  1  0
 14 15  1  0
 15 16  1  0
  5 17  1  0
 17 18  1  0
 17 19  2  0
 19 20  1  0
 19  2  1  0
 15 11  2  0
M  END
>  <energy_score>  (1616) 
-11.606404

>  <inchikey>  (1616) 
IIBMAKUKPJYIAF-UHFFFAOYSA-N

>  <smiles>  (1616) 
Cc1ccc(C(=O)NCCc2ncoc2C)c(C)c1Br

>  <ref_pdb>  (1616) 
A0514a

>  <alias>  (1616) 
IIBMAKUKPJYIAF-UHFFFAOYSA-N-P637-P178-P637-601502

>  <HIPPO Pose ID>  (1616) 
503845

>  <name>  (1616) 
IIBMAKUKPJYIAF-UHFFFAOYSA-N-P637-P178-P637-601502

>  <HIPPO Compound ID>  (1616) 
306438

>  <ref_mols>  (1616) 
A3408a,A5594a

>  <distance_score>  (1616) 
1.913311

>  <inspiration_score>  (1616) 
None

$$$$
KQTOBBKHIDXBJY-UHFFFAOYSA-N-P637-P178-P637-601502
     RDKit          3D

 20 21  0  0  0  0  0  0  0  0999 V2000
    4.4389   10.7263   26.9834 C   0  0  0  0  0  0  0  0  0  0  0  0
    5.5700   11.2042   26.1243 C   0  0  0  0  0  0  0  0  0  0  0  0
    6.4286   10.2870   25.5091 C   0  0  0  0  0  0  0  0  0  0  0  0
    7.5725   10.6932   24.7908 C   0  0  0  0  0  0  0  0  0  0  0  0
    8.4198    9.6456   24.1223 C   0  0  0  0  0  0  0  0  0  0  0  0
    7.8714   12.0667   24.7182 C   0  0  0  0  0  0  0  0  0  0  0  0
    9.2126   12.5730   24.2319 C   0  0  0  0  0  0  0  0  0  0  0  0
    9.7978   11.9424   23.4464 O   0  0  0  0  0  0  0  0  0  0  0  0
    9.6184   13.8589   24.9865 N   0  0  0  0  0  0  0  0  0  0  0  0
   10.8679   14.5833   25.0010 C   0  0  2  0  0  0  0  0  0  0  0  0
   10.8774   15.4674   26.2525 C   0  0  0  0  0  0  0  0  0  0  0  0
   11.1297   15.4358   23.7546 C   0  0  0  0  0  0  0  0  0  0  0  0
   10.2925   15.1257   22.5883 C   0  0  0  0  0  0  0  0  0  0  0  0
   10.6648   14.6002   21.3783 C   0  0  0  0  0  0  0  0  0  0  0  0
    9.5507   14.5315   20.6035 O   0  0  0  0  0  0  0  0  0  0  0  0
    8.5606   14.9965   21.4043 C   0  0  0  0  0  0  0  0  0  0  0  0
    8.9397   15.3820   22.5966 N   0  0  0  0  0  0  0  0  0  0  0  0
    6.9471   12.9686   25.2483 C   0  0  0  0  0  0  0  0  0  0  0  0
    7.1759   14.2844   25.1604 F   0  0  0  0  0  0  0  0  0  0  0  0
    5.8230   12.5596   25.9589 C   0  0  0  0  0  0  0  0  0  0  0  0
  1  2  1  0
  2  3  2  0
  3  4  1  0
  4  5  1  0
  4  6  2  0
  6  7  1  0
  7  8  2  0
  7  9  1  0
  9 10  1  0
 10 11  1  1
 10 12  1  0
 12 13  1  0
 13 14  2  0
 14 15  1  0
 15 16  1  0
 16 17  2  0
  6 18  1  0
 18 19  1  0
 18 20  2  0
 20  2  1  0
 17 13  1  0
M  END
>  <energy_score>  (1617) 
-6.207171

>  <inchikey>  (1617) 
KQTOBBKHIDXBJY-UHFFFAOYSA-N

>  <smiles>  (1617) 
Cc1cc(C)c(C(=O)NC(C)Cc2cocn2)c(F)c1

>  <ref_pdb>  (1617) 
A0514a

>  <alias>  (1617) 
KQTOBBKHIDXBJY-UHFFFAOYSA-N-P637-P178-P637-601502

>  <HIPPO Pose ID>  (1617) 
503848

>  <name>  (1617) 
KQTOBBKHIDXBJY-UHFFFAOYSA-N-P637-P178-P637-601502

>  <HIPPO Compound ID>  (1617) 
306441

>  <ref_mols>  (1617) 
A3408a,A5594a

>  <distance_score>  (1617) 
1.291063

>  <inspiration_score>  (1617) 
None

$$$$
BTCRCCHMQZBHPJ-UHFFFAOYSA-N-P637-P178-P637-601502
     RDKit          3D

 20 21  0  0  0  0  0  0  0  0999 V2000
    4.4444   10.2717   27.6570 C   0  0  0  0  0  0  0  0  0  0  0  0
    5.4230   10.9373   26.7342 C   0  0  0  0  0  0  0  0  0  0  0  0
    6.2004   10.1587   25.8570 C   0  0  0  0  0  0  0  0  0  0  0  0
    7.1461   10.7179   24.9954 C   0  0  0  0  0  0  0  0  0  0  0  0
    8.0846    9.8803   24.1848 C   0  0  0  0  0  0  0  0  0  0  0  0
    7.2129   12.1002   24.9760 C   0  0  0  0  0  0  0  0  0  0  0  0
    7.8893   12.8681   23.9356 C   0  0  0  0  0  0  0  0  0  0  0  0
    9.0506   12.8755   23.8538 O   0  0  0  0  0  0  0  0  0  0  0  0
    6.8248   13.6579   23.1432 N   0  0  0  0  0  0  0  0  0  0  0  0
    6.9731   14.6894   22.1527 C   0  0  0  0  0  0  0  0  0  0  0  0
    7.9297   15.7832   22.6333 C   0  0  0  0  0  0  0  0  0  0  0  0
    9.3044   15.4753   22.1977 C   0  0  0  0  0  0  0  0  0  0  0  0
   10.4900   15.3223   22.8754 C   0  0  0  0  0  0  0  0  0  0  0  0
   11.4571   15.0246   21.9635 O   0  0  0  0  0  0  0  0  0  0  0  0
   10.7785   14.9919   20.7767 C   0  0  0  0  0  0  0  0  0  0  0  0
   11.5471   14.7216   19.5623 C   0  0  0  0  0  0  0  0  0  0  0  0
    9.5008   15.2628   20.8643 N   0  0  0  0  0  0  0  0  0  0  0  0
    6.5284   12.8793   25.8996 C   0  0  0  0  0  0  0  0  0  0  0  0
    6.7415   14.2015   25.9121 F   0  0  0  0  0  0  0  0  0  0  0  0
    5.6331   12.3128   26.7859 C   0  0  0  0  0  0  0  0  0  0  0  0
  1  2  1  0
  2  3  2  0
  3  4  1  0
  4  5  1  0
  4  6  2  0
  6  7  1  0
  7  8  2  0
  7  9  1  0
  9 10  1  0
 10 11  1  0
 11 12  1  0
 12 13  2  0
 13 14  1  0
 14 15  1  0
 15 16  1  0
 15 17  2  0
  6 18  1  0
 18 19  1  0
 18 20  2  0
 20  2  1  0
 17 12  1  0
M  END
>  <energy_score>  (1618) 
-1.341268

>  <inchikey>  (1618) 
BTCRCCHMQZBHPJ-UHFFFAOYSA-N

>  <smiles>  (1618) 
Cc1cc(C)c(C(=O)NCCc2coc(C)n2)c(F)c1

>  <ref_pdb>  (1618) 
A0514a

>  <alias>  (1618) 
BTCRCCHMQZBHPJ-UHFFFAOYSA-N-P637-P178-P637-601502

>  <HIPPO Pose ID>  (1618) 
503849

>  <name>  (1618) 
BTCRCCHMQZBHPJ-UHFFFAOYSA-N-P637-P178-P637-601502

>  <HIPPO Compound ID>  (1618) 
306442

>  <ref_mols>  (1618) 
A3408a,A5594a

>  <distance_score>  (1618) 
1.691448

>  <inspiration_score>  (1618) 
None

$$$$
XHVXFNQDEIKXAM-UHFFFAOYSA-N-P637-P178-P637-601502
     RDKit          3D

 20 21  0  0  0  0  0  0  0  0999 V2000
    4.4555   10.9589   27.1840 C   0  0  0  0  0  0  0  0  0  0  0  0
    5.6239   11.3167   26.3153 C   0  0  0  0  0  0  0  0  0  0  0  0
    6.3729   10.3184   25.6931 C   0  0  0  0  0  0  0  0  0  0  0  0
    7.5008   10.6238   24.9146 C   0  0  0  0  0  0  0  0  0  0  0  0
    8.2598    9.5090   24.2451 C   0  0  0  0  0  0  0  0  0  0  0  0
    7.8690   11.9743   24.7371 C   0  0  0  0  0  0  0  0  0  0  0  0
    9.0481   12.2728   23.8631 C   0  0  0  0  0  0  0  0  0  0  0  0
    9.0521   11.7950   22.8059 O   0  0  0  0  0  0  0  0  0  0  0  0
   10.1164   13.1024   24.5815 N   0  0  0  0  0  0  0  0  0  0  0  0
   11.3845   13.6027   24.1140 C   0  0  0  0  0  0  0  0  0  0  0  0
   11.3029   15.0703   23.7228 C   0  0  0  0  0  0  0  0  0  0  0  0
   10.3605   15.2619   22.6051 C   0  0  0  0  0  0  0  0  0  0  0  0
    9.0218   15.4631   22.8158 N   0  0  0  0  0  0  0  0  0  0  0  0
    8.5222   15.4597   21.6021 C   0  0  0  0  0  0  0  0  0  0  0  0
    9.4243   15.3094   20.6013 O   0  0  0  0  0  0  0  0  0  0  0  0
   10.6123   15.1982   21.2572 C   0  0  0  0  0  0  0  0  0  0  0  0
   11.8142   15.0171   20.4445 C   0  0  0  0  0  0  0  0  0  0  0  0
    7.0964   12.9920   25.3248 C   0  0  0  0  0  0  0  0  0  0  0  0
    7.3171   14.4429   25.0350 C   0  0  0  0  0  0  0  0  0  0  0  0
    5.9946   12.6470   26.1278 C   0  0  0  0  0  0  0  0  0  0  0  0
  1  2  1  0
  2  3  2  0
  3  4  1  0
  4  5  1  0
  4  6  2  0
  6  7  1  0
  7  8  2  0
  7  9  1  0
  9 10  1  0
 10 11  1  0
 11 12  1  0
 12 13  1  0
 13 14  2  0
 14 15  1  0
 15 16  1  0
 16 17  1  0
  6 18  1  0
 18 19  1  0
 18 20  2  0
 20  2  1  0
 16 12  2  0
M  END
>  <energy_score>  (1619) 
-20.413716

>  <inchikey>  (1619) 
XHVXFNQDEIKXAM-UHFFFAOYSA-N

>  <smiles>  (1619) 
Cc1cc(C)c(C(=O)NCCc2ncoc2C)c(C)c1

>  <ref_pdb>  (1619) 
A0514a

>  <alias>  (1619) 
XHVXFNQDEIKXAM-UHFFFAOYSA-N-P637-P178-P637-601502

>  <HIPPO Pose ID>  (1619) 
503851

>  <name>  (1619) 
XHVXFNQDEIKXAM-UHFFFAOYSA-N-P637-P178-P637-601502

>  <HIPPO Compound ID>  (1619) 
306444

>  <ref_mols>  (1619) 
A3408a,A5594a

>  <distance_score>  (1619) 
1.669086

>  <inspiration_score>  (1619) 
None

$$$$
XOBNRJSNSLLBBJ-UHFFFAOYSA-N-P637-P178-P637-601502
     RDKit          3D

 20 21  0  0  0  0  0  0  0  0999 V2000
    6.9900   14.5781   23.2318 C   0  0  0  0  0  0  0  0  0  0  0  0
    7.0048   14.2617   24.5302 C   0  0  0  0  0  0  0  0  0  0  0  0
    6.9025   12.8707   24.9598 C   0  0  0  0  0  0  0  0  0  0  0  0
    5.8074   12.5467   25.7697 C   0  0  0  0  0  0  0  0  0  0  0  0
    5.5483   11.2236   26.0919 C   0  0  0  0  0  0  0  0  0  0  0  0
    6.3636   10.2217   25.5739 C   0  0  0  0  0  0  0  0  0  0  0  0
    7.4971   10.5203   24.7997 C   0  0  0  0  0  0  0  0  0  0  0  0
    8.3178    9.4115   24.2056 C   0  0  0  0  0  0  0  0  0  0  0  0
    7.7966   11.8664   24.5391 C   0  0  0  0  0  0  0  0  0  0  0  0
    9.1090   12.2259   23.8924 C   0  0  0  0  0  0  0  0  0  0  0  0
    9.4777   11.6552   22.9498 O   0  0  0  0  0  0  0  0  0  0  0  0
    9.8009   13.3066   24.7354 N   0  0  0  0  0  0  0  0  0  0  0  0
   11.0581   13.9835   24.5413 C   0  0  2  0  0  0  0  0  0  0  0  0
   10.9796   15.3038   25.3030 C   0  0  0  0  0  0  0  0  0  0  0  0
   11.5524   14.1045   23.1087 C   0  0  0  0  0  0  0  0  0  0  0  0
   10.7116   14.8500   22.1625 C   0  0  0  0  0  0  0  0  0  0  0  0
   10.8294   14.8451   20.7949 C   0  0  0  0  0  0  0  0  0  0  0  0
    9.9200   15.7129   20.2866 O   0  0  0  0  0  0  0  0  0  0  0  0
    9.3181   16.2217   21.3907 C   0  0  0  0  0  0  0  0  0  0  0  0
    9.7349   15.7329   22.5366 N   0  0  0  0  0  0  0  0  0  0  0  0
  1  2  2  0
  2  3  1  0
  3  4  2  0
  4  5  1  0
  5  6  2  0
  6  7  1  0
  7  8  1  0
  7  9  2  0
  9 10  1  0
 10 11  2  0
 10 12  1  0
 12 13  1  0
 13 14  1  6
 13 15  1  0
 15 16  1  0
 16 17  2  0
 17 18  1  0
 18 19  1  0
 19 20  2  0
  9  3  1  0
 20 16  1  0
M  END
>  <energy_score>  (1620) 
-10.334871

>  <inchikey>  (1620) 
XOBNRJSNSLLBBJ-UHFFFAOYSA-N

>  <smiles>  (1620) 
C=Cc1cccc(C)c1C(=O)NC(C)Cc1cocn1

>  <ref_pdb>  (1620) 
A0514a

>  <alias>  (1620) 
XOBNRJSNSLLBBJ-UHFFFAOYSA-N-P637-P178-P637-601502

>  <HIPPO Pose ID>  (1620) 
503856

>  <name>  (1620) 
XOBNRJSNSLLBBJ-UHFFFAOYSA-N-P637-P178-P637-601502

>  <HIPPO Compound ID>  (1620) 
306449

>  <ref_mols>  (1620) 
A3408a,A5594a

>  <distance_score>  (1620) 
1.3536

>  <inspiration_score>  (1620) 
None

$$$$
SEANAVSZPBLPSB-UHFFFAOYSA-N-P637-P178-P637-601502
     RDKit          3D

 20 21  0  0  0  0  0  0  0  0999 V2000
    7.5084   14.6247   23.2620 C   0  0  0  0  0  0  0  0  0  0  0  0
    7.3569   14.2931   24.5488 C   0  0  0  0  0  0  0  0  0  0  0  0
    7.0539   12.9246   24.9661 C   0  0  0  0  0  0  0  0  0  0  0  0
    5.9447   12.7417   25.8023 C   0  0  0  0  0  0  0  0  0  0  0  0
    5.5377   11.4615   26.1669 C   0  0  0  0  0  0  0  0  0  0  0  0
    6.2279   10.3512   25.6873 C   0  0  0  0  0  0  0  0  0  0  0  0
    7.3663   10.5069   24.8839 C   0  0  0  0  0  0  0  0  0  0  0  0
    8.0949    9.3157   24.3352 C   0  0  0  0  0  0  0  0  0  0  0  0
    7.7920   11.8036   24.5504 C   0  0  0  0  0  0  0  0  0  0  0  0
    9.0627   11.9402   23.7767 C   0  0  0  0  0  0  0  0  0  0  0  0
    9.1974   11.3274   22.8021 O   0  0  0  0  0  0  0  0  0  0  0  0
   10.0393   12.8483   24.5170 N   0  0  0  0  0  0  0  0  0  0  0  0
   11.3601   13.2731   24.1687 C   0  0  0  0  0  0  0  0  0  0  0  0
   11.4445   14.7836   24.1634 C   0  0  0  0  0  0  0  0  0  0  0  0
   11.3361   15.2715   22.7862 C   0  0  0  0  0  0  0  0  0  0  0  0
   12.3382   15.7916   22.0134 C   0  0  0  0  0  0  0  0  0  0  0  0
   11.8764   15.9266   20.7585 O   0  0  0  0  0  0  0  0  0  0  0  0
   10.5972   15.4820   20.8349 C   0  0  0  0  0  0  0  0  0  0  0  0
    9.8941   15.4736   19.5629 C   0  0  0  0  0  0  0  0  0  0  0  0
   10.2044   15.1084   22.0344 N   0  0  0  0  0  0  0  0  0  0  0  0
  1  2  2  0
  2  3  1  0
  3  4  2  0
  4  5  1  0
  5  6  2  0
  6  7  1  0
  7  8  1  0
  7  9  2  0
  9 10  1  0
 10 11  2  0
 10 12  1  0
 12 13  1  0
 13 14  1  0
 14 15  1  0
 15 16  2  0
 16 17  1  0
 17 18  1  0
 18 19  1  0
 18 20  2  0
  9  3  1  0
 20 15  1  0
M  END
>  <energy_score>  (1621) 
-8.415743

>  <inchikey>  (1621) 
SEANAVSZPBLPSB-UHFFFAOYSA-N

>  <smiles>  (1621) 
C=Cc1cccc(C)c1C(=O)NCCc1coc(C)n1

>  <ref_pdb>  (1621) 
A0514a

>  <alias>  (1621) 
SEANAVSZPBLPSB-UHFFFAOYSA-N-P637-P178-P637-601502

>  <HIPPO Pose ID>  (1621) 
503857

>  <name>  (1621) 
SEANAVSZPBLPSB-UHFFFAOYSA-N-P637-P178-P637-601502

>  <HIPPO Compound ID>  (1621) 
306450

>  <ref_mols>  (1621) 
A3408a,A5594a

>  <distance_score>  (1621) 
1.279288

>  <inspiration_score>  (1621) 
None

$$$$
RDHBCGCTSQHQOG-UHFFFAOYSA-N-P637-P178-P637-601502
     RDKit          3D

 20 21  0  0  0  0  0  0  0  0999 V2000
    7.4127   14.7610   23.2789 C   0  0  0  0  0  0  0  0  0  0  0  0
    7.0756   13.8970   24.0390 C   0  0  0  0  0  0  0  0  0  0  0  0
    6.6750   12.8145   24.8811 C   0  0  0  0  0  0  0  0  0  0  0  0
    5.5496   12.9840   25.6921 C   0  0  0  0  0  0  0  0  0  0  0  0
    5.0637   11.9131   26.4355 C   0  0  0  0  0  0  0  0  0  0  0  0
    5.6793   10.6727   26.3316 C   0  0  0  0  0  0  0  0  0  0  0  0
    5.2013    9.6605   27.0605 F   0  0  0  0  0  0  0  0  0  0  0  0
    6.8001   10.4853   25.5321 C   0  0  0  0  0  0  0  0  0  0  0  0
    7.3377   11.5782   24.8497 C   0  0  0  0  0  0  0  0  0  0  0  0
    8.6362   11.3973   24.1355 C   0  0  0  0  0  0  0  0  0  0  0  0
    8.8117   10.4375   23.5032 O   0  0  0  0  0  0  0  0  0  0  0  0
    9.5729   12.5804   24.4325 N   0  0  0  0  0  0  0  0  0  0  0  0
   10.8885   12.8765   23.9368 C   0  0  0  0  0  0  0  0  0  0  0  0
   11.2290   14.3505   24.1016 C   0  0  0  0  0  0  0  0  0  0  0  0
   11.2147   15.0069   22.7898 C   0  0  0  0  0  0  0  0  0  0  0  0
   12.2483   15.6415   22.1572 C   0  0  0  0  0  0  0  0  0  0  0  0
   11.8665   15.9184   20.8957 O   0  0  0  0  0  0  0  0  0  0  0  0
   10.6018   15.4286   20.8236 C   0  0  0  0  0  0  0  0  0  0  0  0
    9.9921   15.5159   19.5032 C   0  0  0  0  0  0  0  0  0  0  0  0
   10.1394   14.9154   21.9447 N   0  0  0  0  0  0  0  0  0  0  0  0
  1  2  3  0
  2  3  1  0
  3  4  2  0
  4  5  1  0
  5  6  2  0
  6  7  1  0
  6  8  1  0
  8  9  2  0
  9 10  1  0
 10 11  2  0
 10 12  1  0
 12 13  1  0
 13 14  1  0
 14 15  1  0
 15 16  2  0
 16 17  1  0
 17 18  1  0
 18 19  1  0
 18 20  2  0
  9  3  1  0
 20 15  1  0
M  END
>  <energy_score>  (1622) 
-8.736179

>  <inchikey>  (1622) 
RDHBCGCTSQHQOG-UHFFFAOYSA-N

>  <smiles>  (1622) 
C#Cc1ccc(F)cc1C(=O)NCCc1coc(C)n1

>  <ref_pdb>  (1622) 
A0514a

>  <alias>  (1622) 
RDHBCGCTSQHQOG-UHFFFAOYSA-N-P637-P178-P637-601502

>  <HIPPO Pose ID>  (1622) 
503860

>  <name>  (1622) 
RDHBCGCTSQHQOG-UHFFFAOYSA-N-P637-P178-P637-601502

>  <HIPPO Compound ID>  (1622) 
306453

>  <ref_mols>  (1622) 
A3408a,A5594a

>  <distance_score>  (1622) 
1.470352

>  <inspiration_score>  (1622) 
None

$$$$
LPGSPJOPJLZYLO-UHFFFAOYSA-N-P637-P178-P637-601502
     RDKit          3D

 20 21  0  0  0  0  0  0  0  0999 V2000
   10.0428   15.6031   19.8970 C   0  0  0  0  0  0  0  0  0  0  0  0
   10.4352   15.1165   21.2191 C   0  0  0  0  0  0  0  0  0  0  0  0
    9.9184   14.1367   21.9273 N   0  0  0  0  0  0  0  0  0  0  0  0
   10.8318   13.9590   22.9323 C   0  0  0  0  0  0  0  0  0  0  0  0
   10.7874   12.7903   23.8326 C   0  0  0  0  0  0  0  0  0  0  0  0
    9.9450   11.6420   23.2679 C   0  0  0  0  0  0  0  0  0  0  0  0
    8.6313   11.7552   23.8046 N   0  0  0  0  0  0  0  0  0  0  0  0
    7.8346   10.7998   24.6744 C   0  0  0  0  0  0  0  0  0  0  0  0
    8.0839    9.7272   25.0368 O   0  0  0  0  0  0  0  0  0  0  0  0
    6.5696   11.3696   25.2363 C   0  0  0  0  0  0  0  0  0  0  0  0
    5.7114   10.4041   25.8043 C   0  0  0  0  0  0  0  0  0  0  0  0
    4.6443   10.7605   26.6209 C   0  0  0  0  0  0  0  0  0  0  0  0
    4.4036   12.1013   26.8710 C   0  0  0  0  0  0  0  0  0  0  0  0
    3.0744   12.5604   27.8614 Cl  0  0  0  0  0  0  0  0  0  0  0  0
    5.2232   13.0815   26.3194 C   0  0  0  0  0  0  0  0  0  0  0  0
    6.3084   12.7232   25.5058 C   0  0  0  0  0  0  0  0  0  0  0  0
    7.0934   13.8777   25.0376 C   0  0  0  0  0  0  0  0  0  0  0  0
    7.4565   13.9755   23.8742 O   0  0  0  0  0  0  0  0  0  0  0  0
   11.7919   14.9358   22.8622 C   0  0  0  0  0  0  0  0  0  0  0  0
   11.5505   15.6877   21.7611 O   0  0  0  0  0  0  0  0  0  0  0  0
  1  2  1  0
  2  3  2  0
  3  4  1  0
  4  5  1  0
  5  6  1  0
  6  7  1  0
  7  8  1  0
  8  9  2  0
  8 10  1  0
 10 11  2  0
 11 12  1  0
 12 13  2  0
 13 14  1  0
 13 15  1  0
 15 16  2  0
 16 17  1  0
 17 18  2  0
  4 19  2  0
 19 20  1  0
 20  2  1  0
 16 10  1  0
M  END
>  <energy_score>  (1623) 
-2.023669

>  <inchikey>  (1623) 
LPGSPJOPJLZYLO-UHFFFAOYSA-N

>  <smiles>  (1623) 
Cc1nc(CCNC(=O)c2ccc(Cl)cc2C=O)co1

>  <ref_pdb>  (1623) 
A0514a

>  <alias>  (1623) 
LPGSPJOPJLZYLO-UHFFFAOYSA-N-P637-P178-P637-601502

>  <HIPPO Pose ID>  (1623) 
503866

>  <name>  (1623) 
LPGSPJOPJLZYLO-UHFFFAOYSA-N-P637-P178-P637-601502

>  <HIPPO Compound ID>  (1623) 
306459

>  <ref_mols>  (1623) 
A3408a,A5594a

>  <distance_score>  (1623) 
1.42111

>  <inspiration_score>  (1623) 
None

$$$$
RHJVPFSUVQAFAD-UHFFFAOYSA-N-P637-P178-P637-601502
     RDKit          3D

 20 21  0  0  0  0  0  0  0  0999 V2000
    7.1996   14.1601   22.6619 C   0  0  0  0  0  0  0  0  0  0  0  0
    7.0979   14.4482   24.1512 C   0  0  0  0  0  0  0  0  0  0  0  0
    6.6669   13.2571   24.9798 C   0  0  0  0  0  0  0  0  0  0  0  0
    5.4942   13.3852   25.7377 C   0  0  0  0  0  0  0  0  0  0  0  0
    4.9363   12.2921   26.3972 C   0  0  0  0  0  0  0  0  0  0  0  0
    5.5174   11.0295   26.2923 C   0  0  0  0  0  0  0  0  0  0  0  0
    4.8383    9.8462   26.9090 C   0  0  0  0  0  0  0  0  0  0  0  0
    6.7185   10.8920   25.5864 C   0  0  0  0  0  0  0  0  0  0  0  0
    7.3183   12.0096   24.9797 C   0  0  0  0  0  0  0  0  0  0  0  0
    8.6544   11.8119   24.3452 C   0  0  0  0  0  0  0  0  0  0  0  0
    8.8321   10.8796   23.6715 O   0  0  0  0  0  0  0  0  0  0  0  0
    9.5861   12.9924   24.6830 N   0  0  0  0  0  0  0  0  0  0  0  0
   10.9582   13.2232   24.3394 C   0  0  0  0  0  0  0  0  0  0  0  0
   11.1820   13.1421   22.8578 C   0  0  0  0  0  0  0  0  0  0  0  0
   10.9556   14.4080   22.1688 C   0  0  0  0  0  0  0  0  0  0  0  0
   11.7715   15.5083   22.1846 C   0  0  0  0  0  0  0  0  0  0  0  0
   11.4315   16.2802   21.1318 O   0  0  0  0  0  0  0  0  0  0  0  0
   10.4333   15.5751   20.5239 C   0  0  0  0  0  0  0  0  0  0  0  0
   10.1484   15.9719   19.1482 C   0  0  0  0  0  0  0  0  0  0  0  0
   10.0123   14.5248   21.1911 N   0  0  0  0  0  0  0  0  0  0  0  0
  1  2  1  0
  2  3  1  0
  3  4  2  0
  4  5  1  0
  5  6  2  0
  6  7  1  0
  6  8  1  0
  8  9  2  0
  9 10  1  0
 10 11  2  0
 10 12  1  0
 12 13  1  0
 13 14  1  0
 14 15  1  0
 15 16  2  0
 16 17  1  0
 17 18  1  0
 18 19  1  0
 18 20  2  0
  9  3  1  0
 20 15  1  0
M  END
>  <energy_score>  (1624) 
-7.15198

>  <inchikey>  (1624) 
RHJVPFSUVQAFAD-UHFFFAOYSA-N

>  <smiles>  (1624) 
CCc1ccc(C)cc1C(=O)NCCc1coc(C)n1

>  <ref_pdb>  (1624) 
A0514a

>  <alias>  (1624) 
RHJVPFSUVQAFAD-UHFFFAOYSA-N-P637-P178-P637-601502

>  <HIPPO Pose ID>  (1624) 
503870

>  <name>  (1624) 
RHJVPFSUVQAFAD-UHFFFAOYSA-N-P637-P178-P637-601502

>  <HIPPO Compound ID>  (1624) 
306463

>  <ref_mols>  (1624) 
A3408a,A5594a

>  <distance_score>  (1624) 
1.627113

>  <inspiration_score>  (1624) 
None

$$$$
CTQCIPMAJUMYKK-UHFFFAOYSA-N-P637-P178-P637-601502
     RDKit          3D

 21 22  0  0  0  0  0  0  0  0999 V2000
   10.3866   15.3466   18.5286 C   0  0  0  0  0  0  0  0  0  0  0  0
   10.4256   15.2040   19.9710 C   0  0  0  0  0  0  0  0  0  0  0  0
    9.5054   14.7591   20.8025 N   0  0  0  0  0  0  0  0  0  0  0  0
   10.1705   14.7624   21.9833 C   0  0  0  0  0  0  0  0  0  0  0  0
    9.6085   14.2959   23.2250 C   0  0  0  0  0  0  0  0  0  0  0  0
   10.0088   12.8432   23.4954 C   0  0  0  0  0  0  0  0  0  0  0  0
    8.9117   12.3560   24.2421 N   0  0  0  0  0  0  0  0  0  0  0  0
    7.4370   12.3244   23.9142 C   0  0  0  0  0  0  0  0  0  0  0  0
    6.8765   12.6207   22.9467 O   0  0  0  0  0  0  0  0  0  0  0  0
    6.6593   11.9391   25.0752 C   0  0  0  0  0  0  0  0  0  0  0  0
    6.4745   10.6312   25.4644 C   0  0  0  0  0  0  0  0  0  0  0  0
    7.4497    9.4025   24.7943 Cl  0  0  0  0  0  0  0  0  0  0  0  0
    5.5329   10.3583   26.4521 C   0  0  0  0  0  0  0  0  0  0  0  0
    4.8284   11.4022   27.0647 C   0  0  0  0  0  0  0  0  0  0  0  0
    5.0847   12.7278   26.7164 C   0  0  0  0  0  0  0  0  0  0  0  0
    6.0201   12.9882   25.7249 C   0  0  0  0  0  0  0  0  0  0  0  0
    6.4000   14.3732   25.4100 C   0  0  0  0  0  0  0  0  0  0  0  0
    7.5789   14.6977   25.3423 O   0  0  0  0  0  0  0  0  0  0  0  0
   11.4332   15.2223   21.8181 C   0  0  0  0  0  0  0  0  0  0  0  0
   12.4849   15.4327   22.7671 C   0  0  0  0  0  0  0  0  0  0  0  0
   11.6287   15.5128   20.5259 O   0  0  0  0  0  0  0  0  0  0  0  0
  1  2  1  0
  2  3  2  0
  3  4  1  0
  4  5  1  0
  5  6  1  0
  6  7  1  0
  7  8  1  0
  8  9  2  0
  8 10  1  0
 10 11  2  0
 11 12  1  0
 11 13  1  0
 13 14  2  0
 14 15  1  0
 15 16  2  0
 16 17  1  0
 17 18  2  0
  4 19  2  0
 19 20  1  0
 19 21  1  0
 21  2  1  0
 16 10  1  0
M  END
>  <energy_score>  (1625) 
-3.903934

>  <inchikey>  (1625) 
CTQCIPMAJUMYKK-UHFFFAOYSA-N

>  <smiles>  (1625) 
Cc1nc(CCNC(=O)c2c(Cl)cccc2C=O)c(C)o1

>  <ref_pdb>  (1625) 
A0514a

>  <alias>  (1625) 
CTQCIPMAJUMYKK-UHFFFAOYSA-N-P637-P178-P637-601502

>  <HIPPO Pose ID>  (1625) 
503880

>  <name>  (1625) 
CTQCIPMAJUMYKK-UHFFFAOYSA-N-P637-P178-P637-601502

>  <HIPPO Compound ID>  (1625) 
306473

>  <ref_mols>  (1625) 
A3408a,A5594a

>  <distance_score>  (1625) 
1.747268

>  <inspiration_score>  (1625) 
None

$$$$
FZZFELYHIZELPQ-UHFFFAOYSA-N-P637-P178-P637-601502
     RDKit          3D

 21 22  0  0  0  0  0  0  0  0999 V2000
    6.5214   14.3513   23.5009 C   0  0  0  0  0  0  0  0  0  0  0  0
    7.1706   13.9764   24.7927 C   0  0  0  0  0  0  0  0  0  0  0  0
    7.9450   14.6705   25.4417 O   0  0  0  0  0  0  0  0  0  0  0  0
    6.7929   12.6735   25.3197 C   0  0  0  0  0  0  0  0  0  0  0  0
    5.6397   12.6388   26.1129 C   0  0  0  0  0  0  0  0  0  0  0  0
    5.1186   11.4158   26.5059 C   0  0  0  0  0  0  0  0  0  0  0  0
    5.7366   10.2439   26.0846 C   0  0  0  0  0  0  0  0  0  0  0  0
    6.9098   10.2902   25.3219 C   0  0  0  0  0  0  0  0  0  0  0  0
    7.4767   11.5181   24.9550 C   0  0  0  0  0  0  0  0  0  0  0  0
    8.7702   11.4983   24.1966 C   0  0  0  0  0  0  0  0  0  0  0  0
    8.9546   10.5770   23.5067 O   0  0  0  0  0  0  0  0  0  0  0  0
    9.6940   12.6843   24.5503 N   0  0  0  0  0  0  0  0  0  0  0  0
   11.0008   13.0323   24.0548 C   0  0  0  0  0  0  0  0  0  0  0  0
   11.0433   13.0974   22.5449 C   0  0  0  0  0  0  0  0  0  0  0  0
   10.5203   14.3780   22.0777 C   0  0  0  0  0  0  0  0  0  0  0  0
    9.1874   14.6526   22.0922 N   0  0  0  0  0  0  0  0  0  0  0  0
    9.1590   15.9120   21.7301 C   0  0  0  0  0  0  0  0  0  0  0  0
    8.0472   16.8314   21.7492 C   0  0  0  0  0  0  0  0  0  0  0  0
   10.3502   16.4700   21.4187 O   0  0  0  0  0  0  0  0  0  0  0  0
   11.2249   15.4780   21.6649 C   0  0  0  0  0  0  0  0  0  0  0  0
   12.6253   15.8080   21.4770 C   0  0  0  0  0  0  0  0  0  0  0  0
  1  2  1  0
  2  3  2  0
  2  4  1  0
  4  5  2  0
  5  6  1  0
  6  7  2  0
  7  8  1  0
  8  9  2  0
  9 10  1  0
 10 11  2  0
 10 12  1  0
 12 13  1  0
 13 14  1  0
 14 15  1  0
 15 16  1  0
 16 17  2  0
 17 18  1  0
 17 19  1  0
 19 20  1  0
 20 21  1  0
  9  4  1  0
 20 15  2  0
M  END
>  <energy_score>  (1626) 
-16.600731

>  <inchikey>  (1626) 
FZZFELYHIZELPQ-UHFFFAOYSA-N

>  <smiles>  (1626) 
CC(=O)c1ccccc1C(=O)NCCc1nc(C)oc1C

>  <ref_pdb>  (1626) 
A0514a

>  <alias>  (1626) 
FZZFELYHIZELPQ-UHFFFAOYSA-N-P637-P178-P637-601502

>  <HIPPO Pose ID>  (1626) 
503893

>  <name>  (1626) 
FZZFELYHIZELPQ-UHFFFAOYSA-N-P637-P178-P637-601502

>  <HIPPO Compound ID>  (1626) 
306486

>  <ref_mols>  (1626) 
A3408a,A5594a

>  <distance_score>  (1626) 
1.763452

>  <inspiration_score>  (1626) 
None

$$$$
HKRZWQMMOCYAMG-UHFFFAOYSA-N-P637-P178-P637-601502
     RDKit          3D

 21 22  0  0  0  0  0  0  0  0999 V2000
    9.9100   15.3935   19.7357 C   0  0  0  0  0  0  0  0  0  0  0  0
   10.1099   14.7991   21.0561 C   0  0  0  0  0  0  0  0  0  0  0  0
    9.5616   13.7454   21.6413 N   0  0  0  0  0  0  0  0  0  0  0  0
   10.3408   13.5655   22.7550 C   0  0  0  0  0  0  0  0  0  0  0  0
   10.2879   12.4354   23.7077 C   0  0  0  0  0  0  0  0  0  0  0  0
    9.3850   11.2662   23.3530 C   0  0  0  0  0  0  0  0  0  0  0  0
    8.1016   11.6071   23.8794 N   0  0  0  0  0  0  0  0  0  0  0  0
    7.3776   11.1068   25.1162 C   0  0  0  0  0  0  0  0  0  0  0  0
    7.6669   10.2791   25.8723 O   0  0  0  0  0  0  0  0  0  0  0  0
    6.1475   11.8685   25.4700 C   0  0  0  0  0  0  0  0  0  0  0  0
    5.1191   11.2030   26.1760 C   0  0  0  0  0  0  0  0  0  0  0  0
    5.0522    9.7177   26.3448 C   0  0  0  0  0  0  0  0  0  0  0  0
    4.1407   11.9464   26.8460 C   0  0  0  0  0  0  0  0  0  0  0  0
    4.1503   13.3319   26.8075 C   0  0  0  0  0  0  0  0  0  0  0  0
    5.1508   13.9979   26.1151 C   0  0  0  0  0  0  0  0  0  0  0  0
    6.1499   13.2751   25.4603 C   0  0  0  0  0  0  0  0  0  0  0  0
    7.1796   14.1146   24.8393 C   0  0  0  0  0  0  0  0  0  0  0  0
    7.3750   14.0400   23.6347 O   0  0  0  0  0  0  0  0  0  0  0  0
   11.2472   14.5849   22.8253 C   0  0  0  0  0  0  0  0  0  0  0  0
   12.2998   14.9196   23.7471 C   0  0  0  0  0  0  0  0  0  0  0  0
   11.1086   15.3871   21.7579 O   0  0  0  0  0  0  0  0  0  0  0  0
  1  2  1  0
  2  3  2  0
  3  4  1  0
  4  5  1  0
  5  6  1  0
  6  7  1  0
  7  8  1  0
  8  9  2  0
  8 10  1  0
 10 11  2  0
 11 12  1  0
 11 13  1  0
 13 14  2  0
 14 15  1  0
 15 16  2  0
 16 17  1  0
 17 18  2  0
  4 19  2  0
 19 20  1  0
 19 21  1  0
 21  2  1  0
 16 10  1  0
M  END
>  <energy_score>  (1627) 
-6.085242

>  <inchikey>  (1627) 
HKRZWQMMOCYAMG-UHFFFAOYSA-N

>  <smiles>  (1627) 
Cc1nc(CCNC(=O)c2c(C)cccc2C=O)c(C)o1

>  <ref_pdb>  (1627) 
A0514a

>  <alias>  (1627) 
HKRZWQMMOCYAMG-UHFFFAOYSA-N-P637-P178-P637-601502

>  <HIPPO Pose ID>  (1627) 
503903

>  <name>  (1627) 
HKRZWQMMOCYAMG-UHFFFAOYSA-N-P637-P178-P637-601502

>  <HIPPO Compound ID>  (1627) 
306496

>  <ref_mols>  (1627) 
A3408a,A5594a

>  <distance_score>  (1627) 
1.994134

>  <inspiration_score>  (1627) 
None

$$$$
TYTRDFYIXLCNAD-UHFFFAOYSA-N-P637-P178-P637-601502
     RDKit          3D

 26 27  0  0  0  0  0  0  0  0999 V2000
    6.6365   14.5099   23.3749 C   0  0  0  0  0  0  0  0  0  0  0  0
    6.6966   14.3317   24.8008 O   0  0  0  0  0  0  0  0  0  0  0  0
    6.6366   12.9990   25.1200 C   0  0  0  0  0  0  0  0  0  0  0  0
    5.5103   12.5680   25.8104 C   0  0  0  0  0  0  0  0  0  0  0  0
    5.3576   11.2167   26.0749 C   0  0  0  0  0  0  0  0  0  0  0  0
    6.2934   10.3119   25.5754 C   0  0  0  0  0  0  0  0  0  0  0  0
    7.4568   10.7448   24.9123 C   0  0  0  0  0  0  0  0  0  0  0  0
    8.3432    9.7300   24.2497 C   0  0  0  0  0  0  0  0  0  0  0  0
    7.6861   12.1261   24.8060 C   0  0  0  0  0  0  0  0  0  0  0  0
    9.0270   12.7177   24.4331 C   0  0  0  0  0  0  0  0  0  0  0  0
    9.7388   12.1271   23.7242 O   0  0  0  0  0  0  0  0  0  0  0  0
    9.2082   14.0983   25.1159 N   0  0  0  0  0  0  0  0  0  0  0  0
   10.2651   15.0778   24.9884 C   0  0  2  0  0  0  0  0  0  0  0  0
   11.3407   14.7309   23.9765 C   0  0  0  0  0  0  0  0  0  0  0  0
   10.8668   14.9012   22.5798 C   0  0  0  0  0  0  0  0  0  0  0  0
    9.9265   15.7481   22.0399 C   0  0  0  0  0  0  0  0  0  0  0  0
    9.8854   15.5552   20.6966 O   0  0  0  0  0  0  0  0  0  0  0  0
   10.8405   14.6188   20.4896 C   0  0  0  0  0  0  0  0  0  0  0  0
   11.4308   14.1742   21.5743 N   0  0  0  0  0  0  0  0  0  0  0  0
   10.8356   15.4723   26.3495 C   0  0  0  0  0  0  0  0  0  0  0  0
   11.7892   14.9521   26.9035 O   0  0  0  0  0  0  0  0  0  0  0  0
   10.0791   16.4783   26.8819 O   0  0  0  0  0  0  0  0  0  0  0  0
   10.3914   17.0348   28.1860 C   0  0  0  0  0  0  0  0  0  0  0  0
   10.2404   15.9815   29.2887 C   0  0  0  0  0  0  0  0  0  0  0  0
    9.3346   18.1281   28.4050 C   0  0  0  0  0  0  0  0  0  0  0  0
   11.7792   17.6847   28.1981 C   0  0  0  0  0  0  0  0  0  0  0  0
  1  2  1  0
  2  3  1  0
  3  4  2  0
  4  5  1  0
  5  6  2  0
  6  7  1  0
  7  8  1  0
  7  9  2  0
  9 10  1  0
 10 11  2  0
 10 12  1  0
 12 13  1  0
 13 14  1  6
 14 15  1  0
 15 16  2  0
 16 17  1  0
 17 18  1  0
 18 19  2  0
 13 20  1  0
 20 21  2  0
 20 22  1  0
 22 23  1  0
 23 24  1  0
 23 25  1  0
 23 26  1  0
  9  3  1  0
 19 15  1  0
M  END
>  <energy_score>  (1628) 
-44.646559

>  <inchikey>  (1628) 
TYTRDFYIXLCNAD-UHFFFAOYSA-N

>  <smiles>  (1628) 
COc1cccc(C)c1C(=O)NC(Cc1cocn1)C(=O)OC(C)(C)C

>  <ref_pdb>  (1628) 
A0514a

>  <alias>  (1628) 
TYTRDFYIXLCNAD-UHFFFAOYSA-N-P637-P178-P637-601502

>  <HIPPO Pose ID>  (1628) 
503943

>  <name>  (1628) 
TYTRDFYIXLCNAD-UHFFFAOYSA-N-P637-P178-P637-601502

>  <HIPPO Compound ID>  (1628) 
306536

>  <ref_mols>  (1628) 
A3408a,A5594a

>  <distance_score>  (1628) 
1.892342

>  <inspiration_score>  (1628) 
None

$$$$
ZMUSRROHXZDXAD-UHFFFAOYSA-N-P203-P203-P222-601503
     RDKit          3D

 22 23  0  0  0  0  0  0  0  0999 V2000
   13.2218   15.2412   27.2981 C   0  0  0  0  0  0  0  0  0  0  0  0
   12.2457   15.3988   26.2621 O   0  0  0  0  0  0  0  0  0  0  0  0
   12.3191   14.5008   25.2347 C   0  0  0  0  0  0  0  0  0  0  0  0
   13.1937   13.6538   25.1123 O   0  0  0  0  0  0  0  0  0  0  0  0
   11.0876   14.6901   24.2957 C   0  0  1  0  0  0  0  0  0  0  0  0
   11.1401   15.9235   23.4409 C   0  0  0  0  0  0  0  0  0  0  0  0
   11.6649   15.3163   22.1890 C   0  0  2  0  0  0  0  0  0  0  0  0
   10.9786   15.6503   20.9567 N   0  0  0  0  0  0  0  0  0  0  0  0
   11.4005   15.1856   19.7393 C   0  0  0  0  0  0  0  0  0  0  0  0
   12.2345   14.3206   19.5235 O   0  0  0  0  0  0  0  0  0  0  0  0
   10.7195   15.9562   18.6457 C   0  0  0  0  0  0  0  0  0  0  0  0
   10.1161   16.9902   19.4060 N   0  0  0  0  0  0  0  0  0  0  0  0
   10.2799   16.7928   20.7407 C   0  0  0  0  0  0  0  0  0  0  0  0
    9.8909   17.6066   21.5523 O   0  0  0  0  0  0  0  0  0  0  0  0
   11.5851   13.8447   22.6038 C   0  0  0  0  0  0  0  0  0  0  0  0
   10.5064   13.4673   23.5867 N   0  0  0  0  0  0  0  0  0  0  0  0
    8.9884   13.5613   23.4781 C   0  0  0  0  0  0  0  0  0  0  0  0
    8.3126   14.0246   22.6324 O   0  0  0  0  0  0  0  0  0  0  0  0
    8.4289   13.0041   24.7975 C   0  0  0  0  0  0  0  0  0  0  0  0
    7.5269   11.8691   24.5836 N   0  0  0  0  0  0  0  0  0  0  0  0
    8.2528   10.6339   24.3169 C   0  0  0  0  0  0  0  0  0  0  0  0
    6.6223   11.7195   25.7180 C   0  0  0  0  0  0  0  0  0  0  0  0
  1  2  1  0
  2  3  1  0
  3  4  2  0
  5  3  1  6
  5  6  1  0
  6  7  1  0
  7  8  1  6
  8  9  1  0
  9 10  2  0
  9 11  1  0
 11 12  1  0
 12 13  1  0
 13 14  2  0
  7 15  1  0
 15 16  1  0
 16 17  1  0
 17 18  2  0
 17 19  1  0
 19 20  1  0
 20 21  1  0
 20 22  1  0
 16  5  1  0
 13  8  1  0
M  END
>  <energy_score>  (1629) 
-0.829625

>  <inchikey>  (1629) 
ZMUSRROHXZDXAD-UHFFFAOYSA-N

>  <smiles>  (1629) 
COC(=O)C1CC(N2C(=O)CNC2=O)CN1C(=O)CN(C)C

>  <ref_pdb>  (1629) 
A3665a

>  <alias>  (1629) 
ZMUSRROHXZDXAD-UHFFFAOYSA-N-P203-P203-P222-601503

>  <HIPPO Pose ID>  (1629) 
505395

>  <name>  (1629) 
ZMUSRROHXZDXAD-UHFFFAOYSA-N-P203-P203-P222-601503

>  <HIPPO Compound ID>  (1629) 
298530

>  <ref_mols>  (1629) 
A3665a,A3571b

>  <distance_score>  (1629) 
1.49214

>  <inspiration_score>  (1629) 
None

$$$$
WGVVBMPVSAIQED-UHFFFAOYSA-N-P141-P135-P141-601504
     RDKit          3D

 19 21  0  0  0  0  0  0  0  0999 V2000
   10.2689   15.2284   24.7933 O   0  0  0  0  0  0  0  0  0  0  0  0
    9.9429   14.5225   23.9244 C   0  0  0  0  0  0  0  0  0  0  0  0
   10.2348   14.6004   22.4007 N   0  0  0  0  0  0  0  0  0  0  0  0
   11.0801   15.5258   21.6395 C   0  0  0  0  0  0  0  0  0  0  0  0
   12.4234   15.7190   22.3171 C   0  0  0  0  0  0  0  0  0  0  0  0
   12.2939   16.3542   23.5109 F   0  0  0  0  0  0  0  0  0  0  0  0
   10.1707   16.5149   20.8544 C   0  0  0  0  0  0  0  0  0  0  0  0
   10.2039   15.6543   19.6887 O   0  0  0  0  0  0  0  0  0  0  0  0
   11.3885   15.0149   20.2082 C   0  0  0  0  0  0  0  0  0  0  0  0
    9.2136   13.2671   24.1489 C   0  0  0  0  0  0  0  0  0  0  0  0
    9.7753   12.1136   23.5111 C   0  0  0  0  0  0  0  0  0  0  0  0
    9.1618   10.9619   23.6583 C   0  0  0  0  0  0  0  0  0  0  0  0
    8.0743   10.8398   24.4579 N   0  0  0  0  0  0  0  0  0  0  0  0
    7.5515   11.8540   25.2149 C   0  0  0  0  0  0  0  0  0  0  0  0
    6.6829   11.6710   26.0597 O   0  0  0  0  0  0  0  0  0  0  0  0
    8.1628   13.1884   24.9803 C   0  0  0  0  0  0  0  0  0  0  0  0
    7.6480    9.4953   24.6567 C   0  0  0  0  0  0  0  0  0  0  0  0
    8.4298    8.5809   23.7337 C   0  0  0  0  0  0  0  0  0  0  0  0
    9.6954    9.5282   22.9423 S   0  0  0  0  0  0  0  0  0  0  0  0
  1  2  2  0
  2  3  1  0
  3  4  1  0
  4  5  1  0
  5  6  1  0
  4  7  1  0
  7  8  1  0
  8  9  1  0
  2 10  1  0
 10 11  1  0
 11 12  2  0
 12 13  1  0
 13 14  1  0
 14 15  2  0
 14 16  1  0
 13 17  1  0
 17 18  1  0
 18 19  1  0
  9  4  1  0
 16 10  2  0
 19 12  1  0
M  END
>  <energy_score>  (1630) 
-7.563335

>  <inchikey>  (1630) 
WGVVBMPVSAIQED-UHFFFAOYSA-N

>  <smiles>  (1630) 
O=C(NC1(CF)COC1)c1cc2n(c(=O)c1)CCS2

>  <ref_pdb>  (1630) 
A0514b

>  <alias>  (1630) 
WGVVBMPVSAIQED-UHFFFAOYSA-N-P141-P135-P141-601504

>  <HIPPO Pose ID>  (1630) 
506812

>  <name>  (1630) 
WGVVBMPVSAIQED-UHFFFAOYSA-N-P141-P135-P141-601504

>  <HIPPO Compound ID>  (1630) 
290933

>  <ref_mols>  (1630) 
A3176a,A2629a

>  <distance_score>  (1630) 
1.955547

>  <inspiration_score>  (1630) 
None

$$$$
XGPZLSPSNZRKLF-UHFFFAOYSA-N-P141-P135-P141-601504
     RDKit          3D

 19 20  0  0  0  0  0  0  0  0999 V2000
   10.8848   15.4339   19.0757 C   0  0  0  0  0  0  0  0  0  0  0  0
   10.9665   15.3860   20.4998 O   0  0  0  0  0  0  0  0  0  0  0  0
   12.0487   14.5681   20.9180 C   0  0  0  0  0  0  0  0  0  0  0  0
   11.9847   14.1120   22.3772 C   0  0  1  0  0  0  0  0  0  0  0  0
   12.2003   15.2221   23.3073 C   0  0  0  0  0  0  0  0  0  0  0  0
   12.2447   15.9425   24.2145 N   0  0  0  0  0  0  0  0  0  0  0  0
   10.8425   13.4316   22.9339 N   0  0  0  0  0  0  0  0  0  0  0  0
    9.3790   13.4386   22.5058 C   0  0  0  0  0  0  0  0  0  0  0  0
    8.8653   13.9307   21.5903 O   0  0  0  0  0  0  0  0  0  0  0  0
    8.6339   12.7442   23.5824 C   0  0  0  0  0  0  0  0  0  0  0  0
    8.0543   13.6439   24.5450 C   0  0  0  0  0  0  0  0  0  0  0  0
    7.2821   13.1511   25.5023 C   0  0  0  0  0  0  0  0  0  0  0  0
    7.0462   11.8102   25.5976 N   0  0  0  0  0  0  0  0  0  0  0  0
    7.6323   10.8696   24.7776 C   0  0  0  0  0  0  0  0  0  0  0  0
    7.4158    9.6661   24.8750 O   0  0  0  0  0  0  0  0  0  0  0  0
    8.5273   11.4140   23.7120 C   0  0  0  0  0  0  0  0  0  0  0  0
    5.9749   11.4743   26.5156 C   0  0  0  0  0  0  0  0  0  0  0  0
    5.1721   12.7314   26.8273 C   0  0  0  0  0  0  0  0  0  0  0  0
    6.3855   14.0734   26.6438 S   0  0  0  0  0  0  0  0  0  0  0  0
  1  2  1  0
  2  3  1  0
  4  3  1  6
  4  5  1  0
  5  6  3  0
  4  7  1  0
  7  8  1  0
  8  9  2  0
  8 10  1  0
 10 11  1  0
 11 12  2  0
 12 13  1  0
 13 14  1  0
 14 15  2  0
 14 16  1  0
 13 17  1  0
 17 18  1  0
 18 19  1  0
 16 10  2  0
 19 12  1  0
M  END
>  <energy_score>  (1631) 
-12.237251

>  <inchikey>  (1631) 
XGPZLSPSNZRKLF-UHFFFAOYSA-N

>  <smiles>  (1631) 
COCC(C#N)NC(=O)c1cc2n(c(=O)c1)CCS2

>  <ref_pdb>  (1631) 
A0514b

>  <alias>  (1631) 
XGPZLSPSNZRKLF-UHFFFAOYSA-N-P141-P135-P141-601504

>  <HIPPO Pose ID>  (1631) 
506832

>  <name>  (1631) 
XGPZLSPSNZRKLF-UHFFFAOYSA-N-P141-P135-P141-601504

>  <HIPPO Compound ID>  (1631) 
290943

>  <ref_mols>  (1631) 
A3176a,A2629a

>  <distance_score>  (1631) 
1.987533

>  <inspiration_score>  (1631) 
None

$$$$
YJDIOSSIZRBCCU-UHFFFAOYSA-N-P141-P135-P141-601504
     RDKit          3D

 19 20  0  0  0  0  0  0  0  0999 V2000
   12.7909   14.0720   24.0115 C   0  0  0  0  0  0  0  0  0  0  0  0
   12.5505   15.4033   23.2998 C   0  0  0  0  0  0  0  0  0  0  0  0
   11.3914   15.4421   22.3107 C   0  0  1  0  0  0  0  0  0  0  0  0
   11.8114   14.9836   20.9154 C   0  0  0  0  0  0  0  0  0  0  0  0
   10.6643   15.2024   20.1005 O   0  0  0  0  0  0  0  0  0  0  0  0
   10.9571   15.2205   18.7206 C   0  0  0  0  0  0  0  0  0  0  0  0
   10.3436   14.6060   22.7944 N   0  0  0  0  0  0  0  0  0  0  0  0
    9.6412   14.5704   24.1736 C   0  0  0  0  0  0  0  0  0  0  0  0
    9.7579   15.2695   25.0993 O   0  0  0  0  0  0  0  0  0  0  0  0
    8.8021   13.3496   24.1643 C   0  0  0  0  0  0  0  0  0  0  0  0
    9.4511   12.2087   23.5580 C   0  0  0  0  0  0  0  0  0  0  0  0
    8.9339   11.0163   23.7123 C   0  0  0  0  0  0  0  0  0  0  0  0
    7.8282   10.8261   24.4654 N   0  0  0  0  0  0  0  0  0  0  0  0
    7.2175   11.8139   25.1955 C   0  0  0  0  0  0  0  0  0  0  0  0
    6.3659   11.5713   26.0436 O   0  0  0  0  0  0  0  0  0  0  0  0
    7.7381   13.1929   24.9679 C   0  0  0  0  0  0  0  0  0  0  0  0
    7.5499    9.4510   24.7168 C   0  0  0  0  0  0  0  0  0  0  0  0
    8.3966    8.5940   23.7910 C   0  0  0  0  0  0  0  0  0  0  0  0
    9.6592    9.6185   23.0957 S   0  0  0  0  0  0  0  0  0  0  0  0
  1  2  1  0
  3  2  1  1
  3  4  1  0
  4  5  1  0
  5  6  1  0
  3  7  1  0
  7  8  1  0
  8  9  2  0
  8 10  1  0
 10 11  1  0
 11 12  2  0
 12 13  1  0
 13 14  1  0
 14 15  2  0
 14 16  1  0
 13 17  1  0
 17 18  1  0
 18 19  1  0
 16 10  2  0
 19 12  1  0
M  END
>  <energy_score>  (1632) 
-6.532184

>  <inchikey>  (1632) 
YJDIOSSIZRBCCU-UHFFFAOYSA-N

>  <smiles>  (1632) 
CCC(COC)NC(=O)c1cc2n(c(=O)c1)CCS2

>  <ref_pdb>  (1632) 
A0514b

>  <alias>  (1632) 
YJDIOSSIZRBCCU-UHFFFAOYSA-N-P141-P135-P141-601504

>  <HIPPO Pose ID>  (1632) 
506872

>  <name>  (1632) 
YJDIOSSIZRBCCU-UHFFFAOYSA-N-P141-P135-P141-601504

>  <HIPPO Compound ID>  (1632) 
290963

>  <ref_mols>  (1632) 
A3176a,A2629a

>  <distance_score>  (1632) 
1.618411

>  <inspiration_score>  (1632) 
None

$$$$
APUJVGCTMAQZPW-UHFFFAOYSA-N-P141-P135-P141-601504
     RDKit          3D

 19 21  0  0  0  0  0  0  0  0999 V2000
   12.5130   15.8445   22.3371 C   0  0  0  0  0  0  0  0  0  0  0  0
   11.4016   15.3000   21.4623 C   0  0  1  0  0  0  0  0  0  0  0  0
   10.5912   14.4030   22.2458 N   0  0  0  0  0  0  0  0  0  0  0  0
   10.1745   14.4660   23.7371 C   0  0  0  0  0  0  0  0  0  0  0  0
   10.4859   15.2111   24.5776 O   0  0  0  0  0  0  0  0  0  0  0  0
    9.3282   13.2875   23.9943 C   0  0  0  0  0  0  0  0  0  0  0  0
    9.8071   12.0708   23.4131 C   0  0  0  0  0  0  0  0  0  0  0  0
    9.1632   10.9552   23.6579 C   0  0  0  0  0  0  0  0  0  0  0  0
    8.0812   10.9326   24.4731 N   0  0  0  0  0  0  0  0  0  0  0  0
    7.6115   12.0177   25.1620 C   0  0  0  0  0  0  0  0  0  0  0  0
    6.7435   11.9255   26.0221 O   0  0  0  0  0  0  0  0  0  0  0  0
    8.2899   13.3052   24.8463 C   0  0  0  0  0  0  0  0  0  0  0  0
    7.5861    9.6264   24.7490 C   0  0  0  0  0  0  0  0  0  0  0  0
    8.3257    8.6329   23.8770 C   0  0  0  0  0  0  0  0  0  0  0  0
    9.6638    9.4552   23.0620 S   0  0  0  0  0  0  0  0  0  0  0  0
   10.4508   16.2335   20.7175 C   0  0  0  0  0  0  0  0  0  0  0  0
   10.5126   15.7792   19.2609 C   0  0  0  0  0  0  0  0  0  0  0  0
   11.1224   14.4902   19.2666 O   0  0  0  0  0  0  0  0  0  0  0  0
   12.0718   14.5289   20.3237 C   0  0  0  0  0  0  0  0  0  0  0  0
  2  1  1  1
  2  3  1  0
  3  4  1  0
  4  5  2  0
  4  6  1  0
  6  7  1  0
  7  8  2  0
  8  9  1  0
  9 10  1  0
 10 11  2  0
 10 12  1  0
  9 13  1  0
 13 14  1  0
 14 15  1  0
  2 16  1  0
 16 17  1  0
 17 18  1  0
 18 19  1  0
 19  2  1  0
 12  6  2  0
 15  8  1  0
M  END
>  <energy_score>  (1633) 
-11.674866

>  <inchikey>  (1633) 
APUJVGCTMAQZPW-UHFFFAOYSA-N

>  <smiles>  (1633) 
CC1(NC(=O)c2cc3n(c(=O)c2)CCS3)CCOC1

>  <ref_pdb>  (1633) 
A0514b

>  <alias>  (1633) 
APUJVGCTMAQZPW-UHFFFAOYSA-N-P141-P135-P141-601504

>  <HIPPO Pose ID>  (1633) 
506888

>  <name>  (1633) 
APUJVGCTMAQZPW-UHFFFAOYSA-N-P141-P135-P141-601504

>  <HIPPO Compound ID>  (1633) 
290971

>  <ref_mols>  (1633) 
A3176a,A2629a

>  <distance_score>  (1633) 
1.753084

>  <inspiration_score>  (1633) 
None

$$$$
HCQOGGNDLJEIHN-UHFFFAOYSA-N-P135-P135-P141-601504
     RDKit          3D

 20 23  0  0  0  0  0  0  0  0999 V2000
   10.4635   13.6326   20.7089 O   0  0  0  0  0  0  0  0  0  0  0  0
   11.3674   13.9682   21.4118 C   0  0  0  0  0  0  0  0  0  0  0  0
   11.6372   13.6771   22.7826 N   0  0  0  0  0  0  0  0  0  0  0  0
   10.8572   12.9671   23.7735 C   0  0  2  0  0  0  0  0  0  0  0  0
   10.5558   11.5221   23.3751 C   0  0  0  0  0  0  0  0  0  0  0  0
    9.0719   11.4029   23.6645 C   0  0  1  0  0  0  0  0  0  0  0  0
    8.7632   11.5663   25.1483 C   0  0  0  0  0  0  0  0  0  0  0  0
    8.8897   13.0765   25.3312 C   0  0  0  0  0  0  0  0  0  0  0  0
    9.4171   13.5166   23.9673 C   0  0  2  0  0  0  0  0  0  0  0  0
    8.5937   12.6551   23.1322 O   0  0  0  0  0  0  0  0  0  0  0  0
   12.3847   14.9349   20.7752 C   0  0  0  0  0  0  0  0  0  0  0  0
   12.3406   15.1199   19.3219 C   0  0  0  0  0  0  0  0  0  0  0  0
   12.9663   16.1602   18.7656 C   0  0  0  0  0  0  0  0  0  0  0  0
   13.7585   16.9979   19.4966 N   0  0  0  0  0  0  0  0  0  0  0  0
   13.8990   16.8900   20.8517 C   0  0  0  0  0  0  0  0  0  0  0  0
   14.5806   17.6715   21.5091 O   0  0  0  0  0  0  0  0  0  0  0  0
   13.1225   15.7975   21.4971 C   0  0  0  0  0  0  0  0  0  0  0  0
   14.3320   18.1076   18.7629 C   0  0  0  0  0  0  0  0  0  0  0  0
   14.2924   17.7583   17.2904 C   0  0  0  0  0  0  0  0  0  0  0  0
   12.8124   16.7130   17.1421 S   0  0  0  0  0  0  0  0  0  0  0  0
  1  2  2  0
  2  3  1  0
  4  3  1  6
  4  5  1  0
  6  5  1  1
  6  7  1  0
  7  8  1  0
  9  8  1  1
  9 10  1  0
  2 11  1  0
 11 12  1  0
 12 13  2  0
 13 14  1  0
 14 15  1  0
 15 16  2  0
 15 17  1  0
 14 18  1  0
 18 19  1  0
 19 20  1  0
  9  4  1  0
 17 11  2  0
 10  6  1  0
 20 13  1  0
M  END
>  <energy_score>  (1634) 
-18.684858

>  <inchikey>  (1634) 
HCQOGGNDLJEIHN-UHFFFAOYSA-N

>  <smiles>  (1634) 
O=C(NC1CC2CCC1O2)c1cc2n(c(=O)c1)CCS2

>  <ref_pdb>  (1634) 
A0514b

>  <alias>  (1634) 
HCQOGGNDLJEIHN-UHFFFAOYSA-N-P135-P135-P141-601504

>  <HIPPO Pose ID>  (1634) 
506909

>  <name>  (1634) 
HCQOGGNDLJEIHN-UHFFFAOYSA-N-P135-P135-P141-601504

>  <HIPPO Compound ID>  (1634) 
290982

>  <ref_mols>  (1634) 
A3176a,A2629a

>  <distance_score>  (1634) 
1.869938

>  <inspiration_score>  (1634) 
None

$$$$
BEODMKGCEBJHBY-UHFFFAOYSA-N-P135-P135-P141-601504
     RDKit          3D

 20 22  0  0  0  0  0  0  0  0999 V2000
    7.6909   11.6326   25.2944 C   0  0  0  0  0  0  0  0  0  0  0  0
    7.7010   12.9608   24.5404 C   0  0  0  0  0  0  0  0  0  0  0  0
    9.0337   13.5678   24.0305 C   0  0  1  0  0  0  0  0  0  0  0  0
   10.0481   13.2798   24.9829 O   0  0  0  0  0  0  0  0  0  0  0  0
   10.6723   12.0662   24.5476 C   0  0  0  0  0  0  0  0  0  0  0  0
   10.1578   11.6831   23.1708 C   0  0  0  0  0  0  0  0  0  0  0  0
    9.5107   12.9585   22.7093 C   0  0  2  0  0  0  0  0  0  0  0  0
   10.4528   13.7509   21.9354 N   0  0  0  0  0  0  0  0  0  0  0  0
   11.9890   13.8647   22.0383 C   0  0  0  0  0  0  0  0  0  0  0  0
   12.7464   13.2840   22.7073 O   0  0  0  0  0  0  0  0  0  0  0  0
   12.4014   14.9878   21.1584 C   0  0  0  0  0  0  0  0  0  0  0  0
   12.7160   14.9308   19.7561 C   0  0  0  0  0  0  0  0  0  0  0  0
   13.0695   16.0790   19.1673 C   0  0  0  0  0  0  0  0  0  0  0  0
   13.1332   17.2665   19.8461 N   0  0  0  0  0  0  0  0  0  0  0  0
   12.6348   17.4268   21.1062 C   0  0  0  0  0  0  0  0  0  0  0  0
   12.4807   18.5281   21.6253 O   0  0  0  0  0  0  0  0  0  0  0  0
   12.3081   16.1628   21.7868 C   0  0  0  0  0  0  0  0  0  0  0  0
   13.5563   18.4154   19.0802 C   0  0  0  0  0  0  0  0  0  0  0  0
   14.2900   17.8975   17.8730 C   0  0  0  0  0  0  0  0  0  0  0  0
   13.3998   16.3655   17.5239 S   0  0  0  0  0  0  0  0  0  0  0  0
  1  2  1  0
  3  2  1  1
  3  4  1  0
  4  5  1  0
  5  6  1  0
  6  7  1  0
  7  8  1  1
  8  9  1  0
  9 10  2  0
  9 11  1  0
 11 12  1  0
 12 13  2  0
 13 14  1  0
 14 15  1  0
 15 16  2  0
 15 17  1  0
 14 18  1  0
 18 19  1  0
 19 20  1  0
  7  3  1  0
 17 11  2  0
 20 13  1  0
M  END
>  <energy_score>  (1635) 
-9.907776

>  <inchikey>  (1635) 
BEODMKGCEBJHBY-UHFFFAOYSA-N

>  <smiles>  (1635) 
CCC1OCCC1NC(=O)c1cc2n(c(=O)c1)CCS2

>  <ref_pdb>  (1635) 
A0514b

>  <alias>  (1635) 
BEODMKGCEBJHBY-UHFFFAOYSA-N-P135-P135-P141-601504

>  <HIPPO Pose ID>  (1635) 
506913

>  <name>  (1635) 
BEODMKGCEBJHBY-UHFFFAOYSA-N-P135-P135-P141-601504

>  <HIPPO Compound ID>  (1635) 
290984

>  <ref_mols>  (1635) 
A3176a,A2629a

>  <distance_score>  (1635) 
1.647135

>  <inspiration_score>  (1635) 
None

$$$$
SZKAHURSLMYUAD-UHFFFAOYSA-N-P135-P135-P141-601504
     RDKit          3D

 20 22  0  0  0  0  0  0  0  0999 V2000
   14.7270   18.5632   20.5548 C   0  0  0  0  0  0  0  0  0  0  0  0
   14.0944   17.4564   20.9717 C   0  0  0  0  0  0  0  0  0  0  0  0
   12.8446   16.8600   20.3804 C   0  0  1  0  0  0  0  0  0  0  0  0
   12.7560   17.3008   18.9996 O   0  0  0  0  0  0  0  0  0  0  0  0
   13.1743   16.1931   18.1954 C   0  0  0  0  0  0  0  0  0  0  0  0
   12.5869   15.0019   18.8968 C   0  0  0  0  0  0  0  0  0  0  0  0
   12.8530   15.3162   20.3523 C   0  0  2  0  0  0  0  0  0  0  0  0
   11.8880   14.6240   21.1707 N   0  0  0  0  0  0  0  0  0  0  0  0
   12.0862   13.7177   22.4084 C   0  0  0  0  0  0  0  0  0  0  0  0
   13.0637   13.3285   22.9117 O   0  0  0  0  0  0  0  0  0  0  0  0
   10.7681   13.2602   22.8896 C   0  0  0  0  0  0  0  0  0  0  0  0
   10.4763   11.8596   23.1120 C   0  0  0  0  0  0  0  0  0  0  0  0
    9.3962   11.5624   23.8289 C   0  0  0  0  0  0  0  0  0  0  0  0
    8.5227   12.5418   24.2414 N   0  0  0  0  0  0  0  0  0  0  0  0
    8.6260   13.8424   23.8151 C   0  0  0  0  0  0  0  0  0  0  0  0
    7.7272   14.6679   23.8426 O   0  0  0  0  0  0  0  0  0  0  0  0
    9.9276   14.2224   23.2758 C   0  0  0  0  0  0  0  0  0  0  0  0
    7.3394   12.0591   24.9154 C   0  0  0  0  0  0  0  0  0  0  0  0
    7.6641   10.6879   25.4629 C   0  0  0  0  0  0  0  0  0  0  0  0
    8.9083   10.0050   24.3197 S   0  0  0  0  0  0  0  0  0  0  0  0
  1  2  2  0
  3  2  1  6
  3  4  1  0
  4  5  1  0
  5  6  1  0
  6  7  1  0
  7  8  1  1
  8  9  1  0
  9 10  2  0
  9 11  1  0
 11 12  1  0
 12 13  2  0
 13 14  1  0
 14 15  1  0
 15 16  2  0
 15 17  1  0
 14 18  1  0
 18 19  1  0
 19 20  1  0
  7  3  1  0
 17 11  2  0
 20 13  1  0
M  END
>  <energy_score>  (1636) 
-36.23321

>  <inchikey>  (1636) 
SZKAHURSLMYUAD-UHFFFAOYSA-N

>  <smiles>  (1636) 
C=CC1OCCC1NC(=O)c1cc2n(c(=O)c1)CCS2

>  <ref_pdb>  (1636) 
A0514b

>  <alias>  (1636) 
SZKAHURSLMYUAD-UHFFFAOYSA-N-P135-P135-P141-601504

>  <HIPPO Pose ID>  (1636) 
506917

>  <name>  (1636) 
SZKAHURSLMYUAD-UHFFFAOYSA-N-P135-P135-P141-601504

>  <HIPPO Compound ID>  (1636) 
290986

>  <ref_mols>  (1636) 
A3176a,A2629a

>  <distance_score>  (1636) 
1.489544

>  <inspiration_score>  (1636) 
None

$$$$
HJNZCZYZWYBPKS-UHFFFAOYSA-N-P141-P135-P141-601504
     RDKit          3D

 20 22  0  0  0  0  0  0  0  0999 V2000
    9.1083   17.6460   20.2639 C   0  0  0  0  0  0  0  0  0  0  0  0
   10.4553   17.2430   20.1036 O   0  0  0  0  0  0  0  0  0  0  0  0
   10.9186   16.3492   21.1000 C   0  0  0  0  0  0  0  0  0  0  0  0
   11.2054   14.9909   20.4971 C   0  0  0  0  0  0  0  0  0  0  0  0
   10.7345   14.0888   21.5110 N   0  0  0  0  0  0  0  0  0  0  0  0
   11.4573   13.4874   22.7244 C   0  0  0  0  0  0  0  0  0  0  0  0
   12.5689   13.5644   23.0538 O   0  0  0  0  0  0  0  0  0  0  0  0
   10.4093   12.8350   23.5013 C   0  0  0  0  0  0  0  0  0  0  0  0
    9.8116   11.5483   23.3094 C   0  0  0  0  0  0  0  0  0  0  0  0
    8.7940   11.2468   24.1105 C   0  0  0  0  0  0  0  0  0  0  0  0
    8.2485   12.1734   24.9699 N   0  0  0  0  0  0  0  0  0  0  0  0
    8.6833   13.4734   25.0562 C   0  0  0  0  0  0  0  0  0  0  0  0
    8.1522   14.3773   25.6854 O   0  0  0  0  0  0  0  0  0  0  0  0
    9.9065   13.7624   24.3254 C   0  0  0  0  0  0  0  0  0  0  0  0
    7.0095   11.7721   25.5908 C   0  0  0  0  0  0  0  0  0  0  0  0
    6.8868   10.2683   25.4825 C   0  0  0  0  0  0  0  0  0  0  0  0
    8.0531    9.7221   24.2093 S   0  0  0  0  0  0  0  0  0  0  0  0
   10.7565   14.7157   19.0577 C   0  0  0  0  0  0  0  0  0  0  0  0
   12.1103   15.1651   18.5800 C   0  0  0  0  0  0  0  0  0  0  0  0
   12.6234   14.7620   19.9795 C   0  0  0  0  0  0  0  0  0  0  0  0
  1  2  1  0
  2  3  1  0
  3  4  1  0
  4  5  1  0
  5  6  1  0
  6  7  2  0
  6  8  1  0
  8  9  1  0
  9 10  2  0
 10 11  1  0
 11 12  1  0
 12 13  2  0
 12 14  1  0
 11 15  1  0
 15 16  1  0
 16 17  1  0
  4 18  1  0
 18 19  1  0
 19 20  1  0
 20  4  1  0
 14  8  2  0
 17 10  1  0
M  END
>  <energy_score>  (1637) 
-3.633266

>  <inchikey>  (1637) 
HJNZCZYZWYBPKS-UHFFFAOYSA-N

>  <smiles>  (1637) 
COCC1(NC(=O)c2cc3n(c(=O)c2)CCS3)CCC1

>  <ref_pdb>  (1637) 
A0514b

>  <alias>  (1637) 
HJNZCZYZWYBPKS-UHFFFAOYSA-N-P141-P135-P141-601504

>  <HIPPO Pose ID>  (1637) 
506932

>  <name>  (1637) 
HJNZCZYZWYBPKS-UHFFFAOYSA-N-P141-P135-P141-601504

>  <HIPPO Compound ID>  (1637) 
290993

>  <ref_mols>  (1637) 
A3176a,A2629a

>  <distance_score>  (1637) 
1.914295

>  <inspiration_score>  (1637) 
None

$$$$
QNKAJJQLFZDZPX-UHFFFAOYSA-N-P141-P135-P141-601504
     RDKit          3D

 20 21  0  0  0  0  0  0  0  0999 V2000
   11.3389   15.1655   18.5399 C   0  0  0  0  0  0  0  0  0  0  0  0
   11.3324   14.1205   19.4851 O   0  0  0  0  0  0  0  0  0  0  0  0
   12.0686   14.3700   20.6590 C   0  0  0  0  0  0  0  0  0  0  0  0
   11.2590   14.9716   21.8157 C   0  0  1  0  0  0  0  0  0  0  0  0
   12.3041   15.5624   22.7767 C   0  0  0  0  0  0  0  0  0  0  0  0
   10.2529   16.0520   21.3424 C   0  0  0  0  0  0  0  0  0  0  0  0
    9.3386   15.6977   20.3218 O   0  0  0  0  0  0  0  0  0  0  0  0
   10.5093   14.0267   22.6576 N   0  0  0  0  0  0  0  0  0  0  0  0
    9.0806   13.4960   22.5266 C   0  0  0  0  0  0  0  0  0  0  0  0
    8.2897   13.6588   21.6908 O   0  0  0  0  0  0  0  0  0  0  0  0
    8.7478   12.7524   23.7632 C   0  0  0  0  0  0  0  0  0  0  0  0
    8.3335   13.6133   24.8401 C   0  0  0  0  0  0  0  0  0  0  0  0
    7.5342   13.1212   25.7760 C   0  0  0  0  0  0  0  0  0  0  0  0
    7.2178   11.7936   25.8076 N   0  0  0  0  0  0  0  0  0  0  0  0
    7.6719   10.8762   24.8789 C   0  0  0  0  0  0  0  0  0  0  0  0
    7.3490    9.6924   24.8929 O   0  0  0  0  0  0  0  0  0  0  0  0
    8.5215   11.4323   23.7840 C   0  0  0  0  0  0  0  0  0  0  0  0
    6.0811   11.4987   26.6562 C   0  0  0  0  0  0  0  0  0  0  0  0
    5.9435   12.5847   27.7144 C   0  0  0  0  0  0  0  0  0  0  0  0
    6.7309   14.0511   26.9826 S   0  0  0  0  0  0  0  0  0  0  0  0
  1  2  1  0
  2  3  1  0
  3  4  1  0
  4  5  1  1
  4  6  1  0
  6  7  1  0
  4  8  1  0
  8  9  1  0
  9 10  2  0
  9 11  1  0
 11 12  1  0
 12 13  2  0
 13 14  1  0
 14 15  1  0
 15 16  2  0
 15 17  1  0
 14 18  1  0
 18 19  1  0
 19 20  1  0
 17 11  2  0
 20 13  1  0
M  END
>  <energy_score>  (1638) 
-39.242039

>  <inchikey>  (1638) 
QNKAJJQLFZDZPX-UHFFFAOYSA-N

>  <smiles>  (1638) 
COCC(C)(CO)NC(=O)c1cc2n(c(=O)c1)CCS2

>  <ref_pdb>  (1638) 
A0514b

>  <alias>  (1638) 
QNKAJJQLFZDZPX-UHFFFAOYSA-N-P141-P135-P141-601504

>  <HIPPO Pose ID>  (1638) 
506948

>  <name>  (1638) 
QNKAJJQLFZDZPX-UHFFFAOYSA-N-P141-P135-P141-601504

>  <HIPPO Compound ID>  (1638) 
291001

>  <ref_mols>  (1638) 
A3176a,A2629a

>  <distance_score>  (1638) 
1.964482

>  <inspiration_score>  (1638) 
None

$$$$
NKUUEFRWHWENJV-UHFFFAOYSA-N-P141-P135-P141-601504
     RDKit          3D

 20 20  0  0  0  0  0  0  0  0999 V2000
    9.7445   17.2480   18.7766 C   0  0  0  0  0  0  0  0  0  0  0  0
   10.5921   16.0056   18.9541 C   0  0  0  0  0  0  0  0  0  0  0  0
   10.9632   15.8515   20.3308 O   0  0  0  0  0  0  0  0  0  0  0  0
   11.8054   14.7155   20.4637 C   0  0  0  0  0  0  0  0  0  0  0  0
   12.0161   14.2574   21.9066 C   0  0  1  0  0  0  0  0  0  0  0  0
   12.6094   15.3309   22.7929 C   0  0  0  0  0  0  0  0  0  0  0  0
   10.9086   13.6609   22.6050 N   0  0  0  0  0  0  0  0  0  0  0  0
    9.4320   13.5706   22.2299 C   0  0  0  0  0  0  0  0  0  0  0  0
    8.8533   14.0282   21.3343 O   0  0  0  0  0  0  0  0  0  0  0  0
    8.7386   12.8444   23.2936 C   0  0  0  0  0  0  0  0  0  0  0  0
    8.7618   11.4652   23.4319 C   0  0  0  0  0  0  0  0  0  0  0  0
    8.1664   10.9412   24.5593 C   0  0  0  0  0  0  0  0  0  0  0  0
    7.6502   11.7063   25.5461 N   0  0  0  0  0  0  0  0  0  0  0  0
    7.6730   13.0498   25.3724 C   0  0  0  0  0  0  0  0  0  0  0  0
    7.2407   14.0645   26.7468 S   0  0  0  0  0  0  0  0  0  0  0  0
    5.7288   14.9992   26.2060 C   0  0  0  0  0  0  0  0  0  0  0  0
    4.9772   15.3499   27.5032 C   0  0  0  0  0  0  0  0  0  0  0  0
    6.1348   16.3033   25.5077 C   0  0  0  0  0  0  0  0  0  0  0  0
    4.8034   14.1766   25.3099 C   0  0  0  0  0  0  0  0  0  0  0  0
    8.1998   13.6539   24.2626 C   0  0  0  0  0  0  0  0  0  0  0  0
  1  2  1  0
  2  3  1  0
  3  4  1  0
  4  5  1  0
  5  6  1  1
  5  7  1  0
  7  8  1  0
  8  9  2  0
  8 10  1  0
 10 11  2  0
 11 12  1  0
 12 13  2  0
 13 14  1  0
 14 15  1  0
 15 16  1  0
 16 17  1  0
 16 18  1  0
 16 19  1  0
 14 20  2  0
 20 10  1  0
M  END
>  <energy_score>  (1639) 
-11.502213

>  <inchikey>  (1639) 
NKUUEFRWHWENJV-UHFFFAOYSA-N

>  <smiles>  (1639) 
CCOCC(C)NC(=O)c1ccnc(SC(C)(C)C)c1

>  <ref_pdb>  (1639) 
A0514b

>  <alias>  (1639) 
NKUUEFRWHWENJV-UHFFFAOYSA-N-P141-P135-P141-601504

>  <HIPPO Pose ID>  (1639) 
506972

>  <name>  (1639) 
NKUUEFRWHWENJV-UHFFFAOYSA-N-P141-P135-P141-601504

>  <HIPPO Compound ID>  (1639) 
291013

>  <ref_mols>  (1639) 
A3176a,A2629a

>  <distance_score>  (1639) 
1.975639

>  <inspiration_score>  (1639) 
None

$$$$
MJAIRFAALKWXPA-UHFFFAOYSA-N-P135-P135-P141-601504
     RDKit          3D

 20 23  0  0  0  0  0  0  0  0999 V2000
   11.2448   15.8804   22.6325 O   0  0  0  0  0  0  0  0  0  0  0  0
   11.5987   14.9023   22.0489 C   0  0  0  0  0  0  0  0  0  0  0  0
   11.1917   13.5633   22.1733 N   0  0  0  0  0  0  0  0  0  0  0  0
   10.3015   12.9414   23.0941 C   0  0  1  0  0  0  0  0  0  0  0  0
    8.8552   13.4625   22.9421 C   0  0  0  0  0  0  0  0  0  0  0  0
    8.0042   12.4596   23.5284 O   0  0  0  0  0  0  0  0  0  0  0  0
    8.8771   11.4205   24.0007 C   0  0  0  0  0  0  0  0  0  0  0  0
    8.3681   10.2422   24.7578 C   0  0  0  0  0  0  0  0  0  0  0  0
    8.9705   11.3960   25.4982 C   0  0  0  0  0  0  0  0  0  0  0  0
   10.1520   11.4454   23.2125 C   0  0  0  0  0  0  0  0  0  0  0  0
   12.6206   15.1748   20.9815 C   0  0  0  0  0  0  0  0  0  0  0  0
   12.3259   15.2076   19.5665 C   0  0  0  0  0  0  0  0  0  0  0  0
   12.9227   16.1486   18.8236 C   0  0  0  0  0  0  0  0  0  0  0  0
   13.8575   17.0085   19.3413 N   0  0  0  0  0  0  0  0  0  0  0  0
   14.2100   17.0203   20.6654 C   0  0  0  0  0  0  0  0  0  0  0  0
   14.9528   17.8603   21.1676 O   0  0  0  0  0  0  0  0  0  0  0  0
   13.5660   15.9823   21.4849 C   0  0  0  0  0  0  0  0  0  0  0  0
   14.2865   18.0709   18.4624 C   0  0  0  0  0  0  0  0  0  0  0  0
   13.9680   17.6576   17.0451 C   0  0  0  0  0  0  0  0  0  0  0  0
   12.5237   16.5673   17.2038 S   0  0  0  0  0  0  0  0  0  0  0  0
  1  2  2  0
  2  3  1  0
  4  3  1  6
  4  5  1  0
  5  6  1  0
  6  7  1  0
  7  8  1  0
  8  9  1  0
  7 10  1  0
  2 11  1  0
 11 12  1  0
 12 13  2  0
 13 14  1  0
 14 15  1  0
 15 16  2  0
 15 17  1  0
 14 18  1  0
 18 19  1  0
 19 20  1  0
 10  4  1  0
 17 11  2  0
  9  7  1  0
 20 13  1  0
M  END
>  <energy_score>  (1640) 
-12.76038

>  <inchikey>  (1640) 
MJAIRFAALKWXPA-UHFFFAOYSA-N

>  <smiles>  (1640) 
O=C(NC1COC2(CC2)C1)c1cc2n(c(=O)c1)CCS2

>  <ref_pdb>  (1640) 
A0514b

>  <alias>  (1640) 
MJAIRFAALKWXPA-UHFFFAOYSA-N-P135-P135-P141-601504

>  <HIPPO Pose ID>  (1640) 
506977

>  <name>  (1640) 
MJAIRFAALKWXPA-UHFFFAOYSA-N-P135-P135-P141-601504

>  <HIPPO Compound ID>  (1640) 
291016

>  <ref_mols>  (1640) 
A3176a,A2629a

>  <distance_score>  (1640) 
1.85466

>  <inspiration_score>  (1640) 
None

$$$$
IMDFRWOIAURBJH-UHFFFAOYSA-N-P135-P135-P141-601504
     RDKit          3D

 20 21  0  0  0  0  0  0  0  0999 V2000
    9.5439   13.5582   25.1718 C   0  0  0  0  0  0  0  0  0  0  0  0
    9.4195   12.4320   24.4676 C   0  0  0  0  0  0  0  0  0  0  0  0
    8.7606   11.2196   25.0401 C   0  0  0  0  0  0  0  0  0  0  0  0
    9.0434   10.1275   24.1543 O   0  0  0  0  0  0  0  0  0  0  0  0
   10.0112   10.5954   23.2090 C   0  0  0  0  0  0  0  0  0  0  0  0
    9.7660   12.0883   23.0650 C   0  0  2  0  0  0  0  0  0  0  0  0
   10.7848   12.8018   22.3456 N   0  0  0  0  0  0  0  0  0  0  0  0
   11.1037   14.3025   22.2931 C   0  0  0  0  0  0  0  0  0  0  0  0
   10.6419   15.1932   22.8836 O   0  0  0  0  0  0  0  0  0  0  0  0
   12.0997   14.6569   21.2383 C   0  0  0  0  0  0  0  0  0  0  0  0
   11.9536   14.1785   19.9484 C   0  0  0  0  0  0  0  0  0  0  0  0
   12.5915   14.8368   18.9159 C   0  0  0  0  0  0  0  0  0  0  0  0
   13.3482   15.9341   19.0701 N   0  0  0  0  0  0  0  0  0  0  0  0
   13.5003   16.3643   20.3392 C   0  0  0  0  0  0  0  0  0  0  0  0
   14.4879   17.8021   20.6159 S   0  0  0  0  0  0  0  0  0  0  0  0
   13.3913   19.1231   20.0253 C   0  0  0  0  0  0  0  0  0  0  0  0
   12.0931   19.2028   20.8237 C   0  0  0  0  0  0  0  0  0  0  0  0
   14.1693   20.4352   20.2747 C   0  0  0  0  0  0  0  0  0  0  0  0
   13.1289   19.0273   18.5173 C   0  0  0  0  0  0  0  0  0  0  0  0
   12.9189   15.7514   21.4363 C   0  0  0  0  0  0  0  0  0  0  0  0
  1  2  2  0
  2  3  1  0
  3  4  1  0
  4  5  1  0
  5  6  1  0
  6  7  1  1
  7  8  1  0
  8  9  2  0
  8 10  1  0
 10 11  2  0
 11 12  1  0
 12 13  2  0
 13 14  1  0
 14 15  1  0
 15 16  1  0
 16 17  1  0
 16 18  1  0
 16 19  1  0
 14 20  2  0
  6  2  1  0
 20 10  1  0
M  END
>  <energy_score>  (1641) 
-1.661138

>  <inchikey>  (1641) 
IMDFRWOIAURBJH-UHFFFAOYSA-N

>  <smiles>  (1641) 
C=C1COCC1NC(=O)c1ccnc(SC(C)(C)C)c1

>  <ref_pdb>  (1641) 
A0514b

>  <alias>  (1641) 
IMDFRWOIAURBJH-UHFFFAOYSA-N-P135-P135-P141-601504

>  <HIPPO Pose ID>  (1641) 
507029

>  <name>  (1641) 
IMDFRWOIAURBJH-UHFFFAOYSA-N-P135-P135-P141-601504

>  <HIPPO Compound ID>  (1641) 
291042

>  <ref_mols>  (1641) 
A3176a,A2629a

>  <distance_score>  (1641) 
1.923801

>  <inspiration_score>  (1641) 
None

$$$$
UZNCYGDXRYRGJJ-UHFFFAOYSA-N-P141-P135-P141-601504
     RDKit          3D

 20 20  0  0  0  0  0  0  0  0999 V2000
   11.2085   15.1918   18.9555 C   0  0  0  0  0  0  0  0  0  0  0  0
   11.0783   15.4510   20.3449 O   0  0  0  0  0  0  0  0  0  0  0  0
   12.0404   14.7530   21.1333 C   0  0  0  0  0  0  0  0  0  0  0  0
   11.5893   14.7954   22.5887 C   0  0  2  0  0  0  0  0  0  0  0  0
   12.6718   14.5281   23.5437 C   0  0  0  0  0  0  0  0  0  0  0  0
   13.3538   14.1704   24.4145 N   0  0  0  0  0  0  0  0  0  0  0  0
   10.5716   13.8365   22.9556 N   0  0  0  0  0  0  0  0  0  0  0  0
    9.1746   13.6173   22.4000 C   0  0  0  0  0  0  0  0  0  0  0  0
    8.6347   14.1167   21.5061 O   0  0  0  0  0  0  0  0  0  0  0  0
    8.5070   12.6665   23.2955 C   0  0  0  0  0  0  0  0  0  0  0  0
    8.7923   11.3132   23.3526 C   0  0  0  0  0  0  0  0  0  0  0  0
    8.2564   10.6118   24.4096 C   0  0  0  0  0  0  0  0  0  0  0  0
    7.5800   11.2017   25.4196 N   0  0  0  0  0  0  0  0  0  0  0  0
    7.3628   12.5376   25.3498 C   0  0  0  0  0  0  0  0  0  0  0  0
    6.8094   13.3083   26.8334 S   0  0  0  0  0  0  0  0  0  0  0  0
    5.5519   14.6086   26.3966 C   0  0  0  0  0  0  0  0  0  0  0  0
    4.6625   14.7310   27.6520 C   0  0  0  0  0  0  0  0  0  0  0  0
    6.2383   15.9635   26.1720 C   0  0  0  0  0  0  0  0  0  0  0  0
    4.6545   14.2397   25.2169 C   0  0  0  0  0  0  0  0  0  0  0  0
    7.7850   13.2903   24.2891 C   0  0  0  0  0  0  0  0  0  0  0  0
  1  2  1  0
  2  3  1  0
  4  3  1  6
  4  5  1  0
  5  6  3  0
  4  7  1  0
  7  8  1  0
  8  9  2  0
  8 10  1  0
 10 11  2  0
 11 12  1  0
 12 13  2  0
 13 14  1  0
 14 15  1  0
 15 16  1  0
 16 17  1  0
 16 18  1  0
 16 19  1  0
 14 20  2  0
 20 10  1  0
M  END
>  <energy_score>  (1642) 
-1.847647

>  <inchikey>  (1642) 
UZNCYGDXRYRGJJ-UHFFFAOYSA-N

>  <smiles>  (1642) 
COCC(C#N)NC(=O)c1ccnc(SC(C)(C)C)c1

>  <ref_pdb>  (1642) 
A0514b

>  <alias>  (1642) 
UZNCYGDXRYRGJJ-UHFFFAOYSA-N-P141-P135-P141-601504

>  <HIPPO Pose ID>  (1642) 
507042

>  <name>  (1642) 
UZNCYGDXRYRGJJ-UHFFFAOYSA-N-P141-P135-P141-601504

>  <HIPPO Compound ID>  (1642) 
291048

>  <ref_mols>  (1642) 
A3176a,A2629a

>  <distance_score>  (1642) 
1.793145

>  <inspiration_score>  (1642) 
None

$$$$
CLPVVRIXYQAQKH-UHFFFAOYSA-N-P141-P135-P141-601504
     RDKit          3D

 21 21  0  0  0  0  0  0  0  0999 V2000
    9.9317   17.0093   18.4515 C   0  0  0  0  0  0  0  0  0  0  0  0
   10.7739   15.8122   18.8680 C   0  0  0  0  0  0  0  0  0  0  0  0
   10.8429   15.8587   20.2851 O   0  0  0  0  0  0  0  0  0  0  0  0
   11.7447   14.9287   20.8697 C   0  0  0  0  0  0  0  0  0  0  0  0
   11.4567   14.9716   22.3656 C   0  0  2  0  0  0  0  0  0  0  0  0
   12.6870   14.7640   23.2308 C   0  0  0  0  0  0  0  0  0  0  0  0
   12.3722   14.9680   24.6209 O   0  0  0  0  0  0  0  0  0  0  0  0
   10.4700   14.0311   22.8517 N   0  0  0  0  0  0  0  0  0  0  0  0
    9.0737   13.7023   22.3332 C   0  0  0  0  0  0  0  0  0  0  0  0
    8.5153   14.0747   21.3879 O   0  0  0  0  0  0  0  0  0  0  0  0
    8.4372   12.8464   23.3372 C   0  0  0  0  0  0  0  0  0  0  0  0
    8.6842   11.4928   23.4891 C   0  0  0  0  0  0  0  0  0  0  0  0
    8.2126   10.9014   24.6418 C   0  0  0  0  0  0  0  0  0  0  0  0
    7.6627   11.5974   25.6640 N   0  0  0  0  0  0  0  0  0  0  0  0
    7.4826   12.9237   25.4823 C   0  0  0  0  0  0  0  0  0  0  0  0
    7.1034   13.9556   26.8709 S   0  0  0  0  0  0  0  0  0  0  0  0
    5.2737   13.7365   27.0371 C   0  0  0  0  0  0  0  0  0  0  0  0
    4.8645   14.5144   28.2996 C   0  0  0  0  0  0  0  0  0  0  0  0
    4.5542   14.3421   25.8270 C   0  0  0  0  0  0  0  0  0  0  0  0
    4.8972   12.2631   27.2226 C   0  0  0  0  0  0  0  0  0  0  0  0
    7.8093   13.5740   24.3227 C   0  0  0  0  0  0  0  0  0  0  0  0
  1  2  1  0
  2  3  1  0
  3  4  1  0
  5  4  1  6
  5  6  1  0
  6  7  1  0
  5  8  1  0
  8  9  1  0
  9 10  2  0
  9 11  1  0
 11 12  2  0
 12 13  1  0
 13 14  2  0
 14 15  1  0
 15 16  1  0
 16 17  1  0
 17 18  1  0
 17 19  1  0
 17 20  1  0
 15 21  2  0
 21 11  1  0
M  END
>  <energy_score>  (1643) 
-10.007679

>  <inchikey>  (1643) 
CLPVVRIXYQAQKH-UHFFFAOYSA-N

>  <smiles>  (1643) 
CCOCC(CO)NC(=O)c1ccnc(SC(C)(C)C)c1

>  <ref_pdb>  (1643) 
A0514b

>  <alias>  (1643) 
CLPVVRIXYQAQKH-UHFFFAOYSA-N-P141-P135-P141-601504

>  <HIPPO Pose ID>  (1643) 
507100

>  <name>  (1643) 
CLPVVRIXYQAQKH-UHFFFAOYSA-N-P141-P135-P141-601504

>  <HIPPO Compound ID>  (1643) 
291077

>  <ref_mols>  (1643) 
A3176a,A2629a

>  <distance_score>  (1643) 
1.988468

>  <inspiration_score>  (1643) 
None

$$$$
HYMDELIBTGMHQU-UHFFFAOYSA-N-P135-P135-P141-601504
     RDKit          3D

 21 21  0  0  0  0  0  0  0  0999 V2000
   11.9425   14.8429   18.6147 C   0  0  0  0  0  0  0  0  0  0  0  0
   11.3433   14.3966   19.8115 O   0  0  0  0  0  0  0  0  0  0  0  0
   12.3181   14.1327   20.7952 C   0  0  0  0  0  0  0  0  0  0  0  0
   11.7891   14.3611   22.1963 C   0  0  2  0  0  0  0  0  0  0  0  0
   12.8423   13.9579   23.2043 C   0  0  0  0  0  0  0  0  0  0  0  0
   13.2166   12.5859   23.1534 O   0  0  0  0  0  0  0  0  0  0  0  0
   10.5552   13.6950   22.5448 N   0  0  0  0  0  0  0  0  0  0  0  0
   10.1338   12.9876   23.8439 C   0  0  0  0  0  0  0  0  0  0  0  0
   10.7420   12.7612   24.8137 O   0  0  0  0  0  0  0  0  0  0  0  0
    8.7150   12.6283   23.9076 C   0  0  0  0  0  0  0  0  0  0  0  0
    7.7496   13.4720   23.3739 C   0  0  0  0  0  0  0  0  0  0  0  0
    6.4689   13.3345   23.8463 C   0  0  0  0  0  0  0  0  0  0  0  0
    6.1466   12.5039   24.8496 N   0  0  0  0  0  0  0  0  0  0  0  0
    7.1096   11.7195   25.3574 C   0  0  0  0  0  0  0  0  0  0  0  0
    6.6901   10.8611   26.8292 S   0  0  0  0  0  0  0  0  0  0  0  0
    5.9478   12.2439   27.7577 C   0  0  0  0  0  0  0  0  0  0  0  0
    4.5600   11.9295   28.2865 C   0  0  0  0  0  0  0  0  0  0  0  0
    4.0980   13.0045   28.9770 F   0  0  0  0  0  0  0  0  0  0  0  0
    3.6729   11.6750   27.3049 F   0  0  0  0  0  0  0  0  0  0  0  0
    4.5700   10.8880   29.1447 F   0  0  0  0  0  0  0  0  0  0  0  0
    8.3825   11.6690   24.8568 C   0  0  0  0  0  0  0  0  0  0  0  0
  1  2  1  0
  2  3  1  0
  4  3  1  6
  4  5  1  0
  5  6  1  0
  4  7  1  0
  7  8  1  0
  8  9  2  0
  8 10  1  0
 10 11  2  0
 11 12  1  0
 12 13  2  0
 13 14  1  0
 14 15  1  0
 15 16  1  0
 16 17  1  0
 17 18  1  0
 17 19  1  0
 17 20  1  0
 14 21  2  0
 21 10  1  0
M  END
>  <energy_score>  (1644) 
-9.119579

>  <inchikey>  (1644) 
HYMDELIBTGMHQU-UHFFFAOYSA-N

>  <smiles>  (1644) 
COCC(CO)NC(=O)c1ccnc(SCC(F)(F)F)c1

>  <ref_pdb>  (1644) 
A0514b

>  <alias>  (1644) 
HYMDELIBTGMHQU-UHFFFAOYSA-N-P135-P135-P141-601504

>  <HIPPO Pose ID>  (1644) 
507157

>  <name>  (1644) 
HYMDELIBTGMHQU-UHFFFAOYSA-N-P135-P135-P141-601504

>  <HIPPO Compound ID>  (1644) 
291106

>  <ref_mols>  (1644) 
A3176a,A2629a

>  <distance_score>  (1644) 
1.973598

>  <inspiration_score>  (1644) 
None

$$$$
QUAFGWNJYKPAFK-UHFFFAOYSA-N-P135-P135-P141-601504
     RDKit          3D

 21 22  0  0  0  0  0  0  0  0999 V2000
    9.9007   13.6432   21.1272 O   0  0  0  0  0  0  0  0  0  0  0  0
   10.9702   13.6680   21.5776 C   0  0  0  0  0  0  0  0  0  0  0  0
   11.4871   13.1742   22.9239 N   0  0  0  0  0  0  0  0  0  0  0  0
   10.8177   12.4536   23.9766 C   0  0  2  0  0  0  0  0  0  0  0  0
   10.2528   11.0994   23.5582 C   0  0  0  0  0  0  0  0  0  0  0  0
    9.1922   10.7919   24.4754 O   0  0  0  0  0  0  0  0  0  0  0  0
    8.7222   12.0325   25.0276 C   0  0  0  0  0  0  0  0  0  0  0  0
    9.5387   13.1476   24.4137 C   0  0  1  0  0  0  0  0  0  0  0  0
    9.8253   14.0985   25.3287 F   0  0  0  0  0  0  0  0  0  0  0  0
   12.0175   14.3721   20.7772 C   0  0  0  0  0  0  0  0  0  0  0  0
   12.0192   14.1743   19.4044 C   0  0  0  0  0  0  0  0  0  0  0  0
   12.6591   15.0841   18.5984 C   0  0  0  0  0  0  0  0  0  0  0  0
   13.3457   16.1323   19.0539 N   0  0  0  0  0  0  0  0  0  0  0  0
   13.4170   16.2449   20.3918 C   0  0  0  0  0  0  0  0  0  0  0  0
   14.2375   17.6919   20.9532 S   0  0  0  0  0  0  0  0  0  0  0  0
   12.8263   18.7902   20.7258 C   0  0  0  0  0  0  0  0  0  0  0  0
   12.8468   19.5462   19.4075 C   0  0  0  0  0  0  0  0  0  0  0  0
   14.0640   20.0684   19.1277 F   0  0  0  0  0  0  0  0  0  0  0  0
   12.4559   18.8104   18.3476 F   0  0  0  0  0  0  0  0  0  0  0  0
   11.9996   20.6068   19.4891 F   0  0  0  0  0  0  0  0  0  0  0  0
   12.7675   15.4122   21.2985 C   0  0  0  0  0  0  0  0  0  0  0  0
  1  2  2  0
  2  3  1  0
  4  3  1  6
  4  5  1  0
  5  6  1  0
  6  7  1  0
  7  8  1  0
  8  9  1  1
  2 10  1  0
 10 11  2  0
 11 12  1  0
 12 13  2  0
 13 14  1  0
 14 15  1  0
 15 16  1  0
 16 17  1  0
 17 18  1  0
 17 19  1  0
 17 20  1  0
 14 21  2  0
  8  4  1  0
 21 10  1  0
M  END
>  <energy_score>  (1645) 
-2.951019

>  <inchikey>  (1645) 
QUAFGWNJYKPAFK-UHFFFAOYSA-N

>  <smiles>  (1645) 
O=C(NC1COCC1F)c1ccnc(SCC(F)(F)F)c1

>  <ref_pdb>  (1645) 
A0514b

>  <alias>  (1645) 
QUAFGWNJYKPAFK-UHFFFAOYSA-N-P135-P135-P141-601504

>  <HIPPO Pose ID>  (1645) 
507173

>  <name>  (1645) 
QUAFGWNJYKPAFK-UHFFFAOYSA-N-P135-P135-P141-601504

>  <HIPPO Compound ID>  (1645) 
291114

>  <ref_mols>  (1645) 
A3176a,A2629a

>  <distance_score>  (1645) 
1.59812

>  <inspiration_score>  (1645) 
None

$$$$
SDAAPWIOBMMAJO-UHFFFAOYSA-N-P135-P135-P141-601504
     RDKit          3D

 21 21  0  0  0  0  0  0  0  0999 V2000
   12.3270   15.4910   18.3726 C   0  0  0  0  0  0  0  0  0  0  0  0
   11.6831   14.4777   19.1199 O   0  0  0  0  0  0  0  0  0  0  0  0
   12.5008   14.1043   20.2239 C   0  0  0  0  0  0  0  0  0  0  0  0
   11.8841   14.4336   21.5503 C   0  0  2  0  0  0  0  0  0  0  0  0
   12.9038   14.6832   22.6247 C   0  0  0  0  0  0  0  0  0  0  0  0
   13.3329   13.5108   23.1787 F   0  0  0  0  0  0  0  0  0  0  0  0
   10.9962   13.4785   22.1575 N   0  0  0  0  0  0  0  0  0  0  0  0
    9.6269   13.6650   22.7890 C   0  0  0  0  0  0  0  0  0  0  0  0
    8.9507   14.6062   22.8570 O   0  0  0  0  0  0  0  0  0  0  0  0
    9.1699   12.4456   23.5016 C   0  0  0  0  0  0  0  0  0  0  0  0
    9.5189   11.1341   23.2234 C   0  0  0  0  0  0  0  0  0  0  0  0
    9.0750   10.1517   24.0878 C   0  0  0  0  0  0  0  0  0  0  0  0
    8.3711   10.4092   25.2104 N   0  0  0  0  0  0  0  0  0  0  0  0
    8.0955   11.6890   25.4888 C   0  0  0  0  0  0  0  0  0  0  0  0
    7.2299   12.0189   26.9900 S   0  0  0  0  0  0  0  0  0  0  0  0
    5.6427   12.5045   26.2308 C   0  0  0  0  0  0  0  0  0  0  0  0
    4.6752   13.0123   27.2685 C   0  0  0  0  0  0  0  0  0  0  0  0
    5.1678   14.0625   27.9627 F   0  0  0  0  0  0  0  0  0  0  0  0
    3.5135   13.4054   26.7072 F   0  0  0  0  0  0  0  0  0  0  0  0
    4.3986   12.0316   28.1396 F   0  0  0  0  0  0  0  0  0  0  0  0
    8.4583   12.7202   24.6612 C   0  0  0  0  0  0  0  0  0  0  0  0
  1  2  1  0
  2  3  1  0
  4  3  1  6
  4  5  1  0
  5  6  1  0
  4  7  1  0
  7  8  1  0
  8  9  2  0
  8 10  1  0
 10 11  2  0
 11 12  1  0
 12 13  2  0
 13 14  1  0
 14 15  1  0
 15 16  1  0
 16 17  1  0
 17 18  1  0
 17 19  1  0
 17 20  1  0
 14 21  2  0
 21 10  1  0
M  END
>  <energy_score>  (1646) 
-16.139572

>  <inchikey>  (1646) 
SDAAPWIOBMMAJO-UHFFFAOYSA-N

>  <smiles>  (1646) 
COCC(CF)NC(=O)c1ccnc(SCC(F)(F)F)c1

>  <ref_pdb>  (1646) 
A0514b

>  <alias>  (1646) 
SDAAPWIOBMMAJO-UHFFFAOYSA-N-P135-P135-P141-601504

>  <HIPPO Pose ID>  (1646) 
507175

>  <name>  (1646) 
SDAAPWIOBMMAJO-UHFFFAOYSA-N-P135-P135-P141-601504

>  <HIPPO Compound ID>  (1646) 
291115

>  <ref_mols>  (1646) 
A3176a,A2629a

>  <distance_score>  (1646) 
1.867992

>  <inspiration_score>  (1646) 
None

$$$$
IMOUFNIZQPFYQN-UHFFFAOYSA-N-P141-P135-P141-601504
     RDKit          3D

 22 22  0  0  0  0  0  0  0  0999 V2000
   10.7843   15.2103   18.8201 C   0  0  0  0  0  0  0  0  0  0  0  0
   10.5502   14.8320   20.1773 O   0  0  0  0  0  0  0  0  0  0  0  0
   11.6518   14.2887   20.7784 C   0  0  0  0  0  0  0  0  0  0  0  0
   12.6564   13.9444   20.1723 O   0  0  0  0  0  0  0  0  0  0  0  0
   11.4701   14.2837   22.3110 C   0  0  0  0  0  0  0  0  0  0  0  0
   11.4266   15.7441   22.6714 C   0  0  0  0  0  0  0  0  0  0  0  0
   12.6340   13.7720   23.1260 C   0  0  0  0  0  0  0  0  0  0  0  0
   10.3038   13.5891   22.8202 N   0  0  0  0  0  0  0  0  0  0  0  0
    9.6309   13.6488   24.1967 C   0  0  0  0  0  0  0  0  0  0  0  0
    9.8575   14.3224   25.1197 O   0  0  0  0  0  0  0  0  0  0  0  0
    8.5947   12.6110   24.3980 C   0  0  0  0  0  0  0  0  0  0  0  0
    8.7815   11.2906   24.0138 C   0  0  0  0  0  0  0  0  0  0  0  0
    7.9416   10.3442   24.5698 C   0  0  0  0  0  0  0  0  0  0  0  0
    6.9629   10.6311   25.4594 N   0  0  0  0  0  0  0  0  0  0  0  0
    6.7707   11.9283   25.7759 C   0  0  0  0  0  0  0  0  0  0  0  0
    5.4747   12.3819   26.9198 S   0  0  0  0  0  0  0  0  0  0  0  0
    5.2002   10.8346   27.8597 C   0  0  0  0  0  0  0  0  0  0  0  0
    5.2854   11.0485   29.3599 C   0  0  0  0  0  0  0  0  0  0  0  0
    5.1147    9.8718   30.0105 F   0  0  0  0  0  0  0  0  0  0  0  0
    6.4904   11.5313   29.7405 F   0  0  0  0  0  0  0  0  0  0  0  0
    4.3352   11.8947   29.8116 F   0  0  0  0  0  0  0  0  0  0  0  0
    7.5527   12.9382   25.2542 C   0  0  0  0  0  0  0  0  0  0  0  0
  1  2  1  0
  2  3  1  0
  3  4  2  0
  3  5  1  0
  5  6  1  0
  5  7  1  0
  5  8  1  0
  8  9  1  0
  9 10  2  0
  9 11  1  0
 11 12  2  0
 12 13  1  0
 13 14  2  0
 14 15  1  0
 15 16  1  0
 16 17  1  0
 17 18  1  0
 18 19  1  0
 18 20  1  0
 18 21  1  0
 15 22  2  0
 22 11  1  0
M  END
>  <energy_score>  (1647) 
-1.758725

>  <inchikey>  (1647) 
IMOUFNIZQPFYQN-UHFFFAOYSA-N

>  <smiles>  (1647) 
COC(=O)C(C)(C)NC(=O)c1ccnc(SCC(F)(F)F)c1

>  <ref_pdb>  (1647) 
A0514b

>  <alias>  (1647) 
IMOUFNIZQPFYQN-UHFFFAOYSA-N-P141-P135-P141-601504

>  <HIPPO Pose ID>  (1647) 
507220

>  <name>  (1647) 
IMOUFNIZQPFYQN-UHFFFAOYSA-N-P141-P135-P141-601504

>  <HIPPO Compound ID>  (1647) 
291137

>  <ref_mols>  (1647) 
A3176a,A2629a

>  <distance_score>  (1647) 
1.92339

>  <inspiration_score>  (1647) 
None

$$$$
JGQWRMSNUSJEKV-UHFFFAOYSA-N-P141-P135-P141-601504
     RDKit          3D

 22 22  0  0  0  0  0  0  0  0999 V2000
   11.9780   15.1583   18.6398 C   0  0  0  0  0  0  0  0  0  0  0  0
   10.6694   14.9697   19.3426 C   0  0  0  0  0  0  0  0  0  0  0  0
   10.4327   15.7121   20.5135 O   0  0  0  0  0  0  0  0  0  0  0  0
   11.3777   15.6431   21.5598 C   0  0  0  0  0  0  0  0  0  0  0  0
   11.7244   14.2903   22.1711 C   0  0  1  0  0  0  0  0  0  0  0  0
   12.6822   14.5577   23.3554 C   0  0  0  0  0  0  0  0  0  0  0  0
   12.1790   15.4674   24.3383 O   0  0  0  0  0  0  0  0  0  0  0  0
   10.5846   13.5271   22.6412 N   0  0  0  0  0  0  0  0  0  0  0  0
    9.6995   13.7180   23.8782 C   0  0  0  0  0  0  0  0  0  0  0  0
    9.6935   14.5641   24.6797 O   0  0  0  0  0  0  0  0  0  0  0  0
    8.7676   12.5812   24.1387 C   0  0  0  0  0  0  0  0  0  0  0  0
    9.0022   11.2759   23.7288 C   0  0  0  0  0  0  0  0  0  0  0  0
    8.2229   10.2771   24.2806 C   0  0  0  0  0  0  0  0  0  0  0  0
    7.2543   10.5012   25.1917 N   0  0  0  0  0  0  0  0  0  0  0  0
    7.0080   11.7754   25.5539 C   0  0  0  0  0  0  0  0  0  0  0  0
    5.7712   11.9781   26.8174 S   0  0  0  0  0  0  0  0  0  0  0  0
    4.9049   13.4921   26.2501 C   0  0  0  0  0  0  0  0  0  0  0  0
    3.6161   13.7353   27.0149 C   0  0  0  0  0  0  0  0  0  0  0  0
    3.8457   13.9249   28.3341 F   0  0  0  0  0  0  0  0  0  0  0  0
    3.0007   14.8503   26.5547 F   0  0  0  0  0  0  0  0  0  0  0  0
    2.7404   12.7141   26.8874 F   0  0  0  0  0  0  0  0  0  0  0  0
    7.7376   12.8289   25.0451 C   0  0  0  0  0  0  0  0  0  0  0  0
  1  2  1  0
  2  3  1  0
  3  4  1  0
  5  4  1  1
  5  6  1  0
  6  7  1  0
  5  8  1  0
  8  9  1  0
  9 10  2  0
  9 11  1  0
 11 12  2  0
 12 13  1  0
 13 14  2  0
 14 15  1  0
 15 16  1  0
 16 17  1  0
 17 18  1  0
 18 19  1  0
 18 20  1  0
 18 21  1  0
 15 22  2  0
 22 11  1  0
M  END
>  <energy_score>  (1648) 
-0.08005

>  <inchikey>  (1648) 
JGQWRMSNUSJEKV-UHFFFAOYSA-N

>  <smiles>  (1648) 
CCOCC(CO)NC(=O)c1ccnc(SCC(F)(F)F)c1

>  <ref_pdb>  (1648) 
A0514b

>  <alias>  (1648) 
JGQWRMSNUSJEKV-UHFFFAOYSA-N-P141-P135-P141-601504

>  <HIPPO Pose ID>  (1648) 
507232

>  <name>  (1648) 
JGQWRMSNUSJEKV-UHFFFAOYSA-N-P141-P135-P141-601504

>  <HIPPO Compound ID>  (1648) 
291143

>  <ref_mols>  (1648) 
A3176a,A2629a

>  <distance_score>  (1648) 
1.969895

>  <inspiration_score>  (1648) 
None

$$$$
MQRVDELFLKOGIX-UHFFFAOYSA-N-P135-P135-P141-601504
     RDKit          3D

 22 24  0  0  0  0  0  0  0  0999 V2000
   14.9794   17.6096   16.8416 C   0  0  0  0  0  0  0  0  0  0  0  0
   13.5052   17.6752   17.1949 C   0  0  0  0  0  0  0  0  0  0  0  0
   13.2578   16.8935   18.4141 N   0  0  0  0  0  0  0  0  0  0  0  0
   12.6250   15.4905   18.5991 C   0  0  0  0  0  0  0  0  0  0  0  0
   12.2737   14.7088   17.8064 O   0  0  0  0  0  0  0  0  0  0  0  0
   12.5320   15.1030   20.0344 C   0  0  0  0  0  0  0  0  0  0  0  0
   13.3279   15.6577   20.9994 C   0  0  0  0  0  0  0  0  0  0  0  0
   13.1458   15.1856   22.2743 C   0  0  0  0  0  0  0  0  0  0  0  0
   12.1821   14.3476   22.7161 N   0  0  0  0  0  0  0  0  0  0  0  0
   11.3454   13.9279   21.7746 C   0  0  0  0  0  0  0  0  0  0  0  0
    9.7029   13.4954   22.2816 S   0  0  0  0  0  0  0  0  0  0  0  0
    9.9520   12.7074   23.8874 C   0  0  0  0  0  0  0  0  0  0  0  0
    8.6316   12.2472   24.4860 C   0  0  0  0  0  0  0  0  0  0  0  0
    8.4376   10.9489   24.9725 C   0  0  0  0  0  0  0  0  0  0  0  0
    7.2399   10.5987   25.6140 C   0  0  0  0  0  0  0  0  0  0  0  0
    6.2188   11.5203   25.7802 C   0  0  0  0  0  0  0  0  0  0  0  0
    6.3649   12.7798   25.2317 C   0  0  0  0  0  0  0  0  0  0  0  0
    7.5615   13.1415   24.6066 C   0  0  0  0  0  0  0  0  0  0  0  0
   11.5844   14.1624   20.4296 C   0  0  0  0  0  0  0  0  0  0  0  0
   12.9621   19.1128   17.2221 C   0  0  0  0  0  0  0  0  0  0  0  0
   12.1837   18.8942   16.0226 O   0  0  0  0  0  0  0  0  0  0  0  0
   12.4839   17.4749   16.0639 C   0  0  0  0  0  0  0  0  0  0  0  0
  1  2  1  0
  2  3  1  0
  3  4  1  0
  4  5  2  0
  4  6  1  0
  6  7  2  0
  7  8  1  0
  8  9  2  0
  9 10  1  0
 10 11  1  0
 11 12  1  0
 12 13  1  0
 13 14  2  0
 14 15  1  0
 15 16  2  0
 16 17  1  0
 17 18  2  0
 10 19  2  0
  2 20  1  0
 20 21  1  0
 21 22  1  0
 22  2  1  0
 19  6  1  0
 18 13  1  0
M  END
>  <energy_score>  (1649) 
-13.567513

>  <inchikey>  (1649) 
MQRVDELFLKOGIX-UHFFFAOYSA-N

>  <smiles>  (1649) 
CC1(NC(=O)c2ccnc(SCc3ccccc3)c2)COC1

>  <ref_pdb>  (1649) 
A0514b

>  <alias>  (1649) 
MQRVDELFLKOGIX-UHFFFAOYSA-N-P135-P135-P141-601504

>  <HIPPO Pose ID>  (1649) 
507245

>  <name>  (1649) 
MQRVDELFLKOGIX-UHFFFAOYSA-N-P135-P135-P141-601504

>  <HIPPO Compound ID>  (1649) 
291150

>  <ref_mols>  (1649) 
A3176a,A2629a

>  <distance_score>  (1649) 
1.963292

>  <inspiration_score>  (1649) 
None

$$$$
ZWRZMZJYCCGPQW-UHFFFAOYSA-N-P135-P135-P141-601504
     RDKit          3D

 23 25  0  0  0  0  0  0  0  0999 V2000
   14.3497   17.4843   16.5997 C   0  0  0  0  0  0  0  0  0  0  0  0
   13.2834   18.0637   17.5140 C   0  0  1  0  0  0  0  0  0  0  0  0
   12.9838   17.1898   18.6276 N   0  0  0  0  0  0  0  0  0  0  0  0
   12.5966   15.6945   18.6538 C   0  0  0  0  0  0  0  0  0  0  0  0
   12.3838   14.9543   17.7794 O   0  0  0  0  0  0  0  0  0  0  0  0
   12.5354   15.1821   20.0489 C   0  0  0  0  0  0  0  0  0  0  0  0
   13.3425   15.6960   21.0268 C   0  0  0  0  0  0  0  0  0  0  0  0
   13.1722   15.1711   22.2811 C   0  0  0  0  0  0  0  0  0  0  0  0
   12.2125   14.3141   22.6944 N   0  0  0  0  0  0  0  0  0  0  0  0
   11.3712   13.9295   21.7397 C   0  0  0  0  0  0  0  0  0  0  0  0
    9.7266   13.4962   22.2485 S   0  0  0  0  0  0  0  0  0  0  0  0
    9.9748   12.7092   23.8561 C   0  0  0  0  0  0  0  0  0  0  0  0
    8.6551   12.2509   24.4591 C   0  0  0  0  0  0  0  0  0  0  0  0
    8.4620   10.9520   24.9459 C   0  0  0  0  0  0  0  0  0  0  0  0
    7.2658   10.6012   25.5899 C   0  0  0  0  0  0  0  0  0  0  0  0
    6.2451   11.5228   25.7586 C   0  0  0  0  0  0  0  0  0  0  0  0
    6.3903   12.7829   25.2109 C   0  0  0  0  0  0  0  0  0  0  0  0
    7.5860   13.1460   24.5844 C   0  0  0  0  0  0  0  0  0  0  0  0
   11.6018   14.2132   20.4008 C   0  0  0  0  0  0  0  0  0  0  0  0
   13.7778   19.4028   18.0824 C   0  0  2  0  0  0  0  0  0  0  0  0
   15.0822   19.4452   18.9026 C   0  0  0  0  0  0  0  0  0  0  0  0
   14.2462   20.1987   19.9311 C   0  0  0  0  0  0  0  0  0  0  0  0
   13.0179   19.8411   19.2530 O   0  0  0  0  0  0  0  0  0  0  0  0
  2  1  1  6
  2  3  1  0
  3  4  1  0
  4  5  2  0
  4  6  1  0
  6  7  2  0
  7  8  1  0
  8  9  2  0
  9 10  1  0
 10 11  1  0
 11 12  1  0
 12 13  1  0
 13 14  2  0
 14 15  1  0
 15 16  2  0
 16 17  1  0
 17 18  2  0
 10 19  2  0
  2 20  1  0
 20 21  1  1
 21 22  1  0
 22 23  1  0
 19  6  1  0
 23 20  1  0
 18 13  1  0
M  END
>  <energy_score>  (1650) 
-4.15042

>  <inchikey>  (1650) 
ZWRZMZJYCCGPQW-UHFFFAOYSA-N

>  <smiles>  (1650) 
CC(NC(=O)c1ccnc(SCc2ccccc2)c1)C1CCO1

>  <ref_pdb>  (1650) 
A0514b

>  <alias>  (1650) 
ZWRZMZJYCCGPQW-UHFFFAOYSA-N-P135-P135-P141-601504

>  <HIPPO Pose ID>  (1650) 
507326

>  <name>  (1650) 
ZWRZMZJYCCGPQW-UHFFFAOYSA-N-P135-P135-P141-601504

>  <HIPPO Compound ID>  (1650) 
291191

>  <ref_mols>  (1650) 
A3176a,A2629a

>  <distance_score>  (1650) 
1.976414

>  <inspiration_score>  (1650) 
None

$$$$
BXTAJCLGFPUGLT-UHFFFAOYSA-N-P87-P87-P135-601504
     RDKit          3D

 26 28  0  0  0  0  0  0  0  0999 V2000
   17.7911   13.2572   26.7261 C   0  0  0  0  0  0  0  0  0  0  0  0
   17.2516   12.3821   27.8058 C   0  0  0  0  0  0  0  0  0  0  0  0
   17.7478   12.6998   29.0347 N   0  0  0  0  0  0  0  0  0  0  0  0
   17.3566   11.9950   30.1255 C   0  0  0  0  0  0  0  0  0  0  0  0
   17.9180   12.3428   31.4968 C   0  0  0  0  0  0  0  0  0  0  0  0
   18.5051   13.5702   31.5721 F   0  0  0  0  0  0  0  0  0  0  0  0
   16.9577   12.3355   32.4700 F   0  0  0  0  0  0  0  0  0  0  0  0
   18.8610   11.4487   31.9152 F   0  0  0  0  0  0  0  0  0  0  0  0
   16.4695   10.9413   30.0007 C   0  0  0  0  0  0  0  0  0  0  0  0
   15.9778   10.6218   28.7354 C   0  0  0  0  0  0  0  0  0  0  0  0
   16.3566   11.3286   27.5844 C   0  0  0  0  0  0  0  0  0  0  0  0
   15.7598   10.9496   26.2399 C   0  0  0  0  0  0  0  0  0  0  0  0
   14.3705   11.5505   25.8803 C   0  0  0  0  0  0  0  0  0  0  0  0
   13.8090   12.5137   26.8930 C   0  0  0  0  0  0  0  0  0  0  0  0
   12.4676   13.1294   26.4764 C   0  0  0  0  0  0  0  0  0  0  0  0
   12.1661   13.1941   25.0753 N   0  0  0  0  0  0  0  0  0  0  0  0
   10.8761   13.5307   24.6793 C   0  0  0  0  0  0  0  0  0  0  0  0
   10.4143   14.6280   24.4538 O   0  0  0  0  0  0  0  0  0  0  0  0
   10.0362   12.3242   24.5026 C   0  0  0  0  0  0  0  0  0  0  0  0
    9.4195   11.6736   25.4404 N   0  0  0  0  0  0  0  0  0  0  0  0
    9.2390   10.3742   24.8718 O   0  0  0  0  0  0  0  0  0  0  0  0
   10.2620   10.3111   23.8590 C   0  0  1  0  0  0  0  0  0  0  0  0
   10.1121    9.1763   22.9104 C   0  0  0  0  0  0  0  0  0  0  0  0
   10.0789   11.6470   23.2098 C   0  0  0  0  0  0  0  0  0  0  0  0
   13.1589   12.9215   24.0825 C   0  0  0  0  0  0  0  0  0  0  0  0
   14.4395   12.2354   24.5585 C   0  0  0  0  0  0  0  0  0  0  0  0
  1  2  1  0
  2  3  2  0
  3  4  1  0
  4  5  1  0
  5  6  1  0
  5  7  1  0
  5  8  1  0
  4  9  2  0
  9 10  1  0
 10 11  2  0
 11 12  1  0
 12 13  1  0
 13 14  1  0
 14 15  1  0
 15 16  1  0
 16 17  1  0
 17 18  2  0
 17 19  1  0
 19 20  2  0
 20 21  1  0
 21 22  1  0
 22 23  1  6
 22 24  1  0
 16 25  1  0
 25 26  1  0
 11  2  1  0
 26 13  1  0
 24 19  1  0
M  END
>  <energy_score>  (1651) 
-4.678612

>  <inchikey>  (1651) 
BXTAJCLGFPUGLT-UHFFFAOYSA-N

>  <smiles>  (1651) 
Cc1nc(C(F)(F)F)ccc1CC1CCN(C(=O)C2=NOC(C)C2)CC1

>  <ref_pdb>  (1651) 
A0514b

>  <alias>  (1651) 
BXTAJCLGFPUGLT-UHFFFAOYSA-N-P87-P87-P135-601504

>  <HIPPO Pose ID>  (1651) 
507424

>  <name>  (1651) 
BXTAJCLGFPUGLT-UHFFFAOYSA-N-P87-P87-P135-601504

>  <HIPPO Compound ID>  (1651) 
315379

>  <ref_mols>  (1651) 
A2629a,A0875a

>  <distance_score>  (1651) 
1.841448

>  <inspiration_score>  (1651) 
None

$$$$
HZDBIOKZFZWHAA-UHFFFAOYSA-N-P87-P87-P135-601504
     RDKit          3D

 27 30  0  0  0  0  0  0  0  0999 V2000
   10.6066   15.0723   24.3326 O   0  0  0  0  0  0  0  0  0  0  0  0
   10.8029   13.8880   24.5331 C   0  0  0  0  0  0  0  0  0  0  0  0
    9.5929   13.0584   24.3711 C   0  0  0  0  0  0  0  0  0  0  0  0
    8.8998   13.0532   23.2789 N   0  0  0  0  0  0  0  0  0  0  0  0
    7.8335   12.1841   23.5257 O   0  0  0  0  0  0  0  0  0  0  0  0
    8.2022   11.3426   24.6201 C   0  0  1  0  0  0  0  0  0  0  0  0
    8.8303   10.0340   24.1470 C   0  0  0  0  0  0  0  0  0  0  0  0
   10.2078   10.0168   23.5436 C   0  0  0  0  0  0  0  0  0  0  0  0
   10.4493   11.0211   22.5583 O   0  0  0  0  0  0  0  0  0  0  0  0
   11.1991    9.9412   24.6534 C   0  0  0  0  0  0  0  0  0  0  0  0
   11.8648    8.8024   24.1329 O   0  0  0  0  0  0  0  0  0  0  0  0
   10.7668    8.6209   23.1954 C   0  0  0  0  0  0  0  0  0  0  0  0
    9.0619   12.2280   25.4554 C   0  0  0  0  0  0  0  0  0  0  0  0
   11.9907   13.2980   24.9720 N   0  0  0  0  0  0  0  0  0  0  0  0
   12.3305   13.0876   26.3625 C   0  0  0  0  0  0  0  0  0  0  0  0
   13.7042   12.4785   26.7613 C   0  0  0  0  0  0  0  0  0  0  0  0
   14.3851   11.6306   25.7226 C   0  0  0  0  0  0  0  0  0  0  0  0
   13.8130   10.3373   25.6541 O   0  0  0  0  0  0  0  0  0  0  0  0
   15.9112   11.4501   25.9136 C   0  0  0  0  0  0  0  0  0  0  0  0
   16.4094   10.6385   27.0751 C   0  0  0  0  0  0  0  0  0  0  0  0
   17.1535    9.4700   26.8747 C   0  0  0  0  0  0  0  0  0  0  0  0
   17.7155    8.8016   27.9608 C   0  0  0  0  0  0  0  0  0  0  0  0
   17.5058    9.3171   29.2266 C   0  0  0  0  0  0  0  0  0  0  0  0
   16.8023   10.4430   29.4641 N   0  0  0  0  0  0  0  0  0  0  0  0
   16.2896   11.0824   28.3890 C   0  0  0  0  0  0  0  0  0  0  0  0
   14.2022   12.2792   24.4001 C   0  0  0  0  0  0  0  0  0  0  0  0
   12.8897   12.8965   23.9449 C   0  0  0  0  0  0  0  0  0  0  0  0
  1  2  2  0
  2  3  1  0
  3  4  2  0
  4  5  1  0
  5  6  1  0
  6  7  1  6
  7  8  1  0
  8  9  1  0
  8 10  1  0
 10 11  1  0
 11 12  1  0
  6 13  1  0
  2 14  1  0
 14 15  1  0
 15 16  1  0
 16 17  1  0
 17 18  1  0
 17 19  1  0
 19 20  1  0
 20 21  2  0
 21 22  1  0
 22 23  2  0
 23 24  1  0
 24 25  2  0
 17 26  1  0
 26 27  1  0
 13  3  1  0
 27 14  1  0
 12  8  1  0
 25 20  1  0
M  END
>  <energy_score>  (1652) 
-1.574658

>  <inchikey>  (1652) 
HZDBIOKZFZWHAA-UHFFFAOYSA-N

>  <smiles>  (1652) 
O=C(C1=NOC(CC2(O)COC2)C1)N1CCC(O)(Cc2cccnc2)CC1

>  <ref_pdb>  (1652) 
A0514b

>  <alias>  (1652) 
HZDBIOKZFZWHAA-UHFFFAOYSA-N-P87-P87-P135-601504

>  <HIPPO Pose ID>  (1652) 
507436

>  <name>  (1652) 
HZDBIOKZFZWHAA-UHFFFAOYSA-N-P87-P87-P135-601504

>  <HIPPO Compound ID>  (1652) 
315385

>  <ref_mols>  (1652) 
A2629a,A0875a

>  <distance_score>  (1652) 
1.877016

>  <inspiration_score>  (1652) 
None

$$$$
UBZRPYYFJIAMFC-UHFFFAOYSA-N-P87-P87-P135-601504
     RDKit          3D

 28 30  0  0  0  0  0  0  0  0999 V2000
   10.2061    9.6667   24.0530 C   0  0  0  0  0  0  0  0  0  0  0  0
   10.2934   10.8534   24.8235 O   0  0  0  0  0  0  0  0  0  0  0  0
    9.1299   11.5609   24.5968 N   0  0  0  0  0  0  0  0  0  0  0  0
    9.3301   12.8163   24.3238 C   0  0  0  0  0  0  0  0  0  0  0  0
   10.5910   13.6772   24.4757 C   0  0  0  0  0  0  0  0  0  0  0  0
   10.4962   14.8904   24.3434 O   0  0  0  0  0  0  0  0  0  0  0  0
   11.8129   13.1371   24.8611 N   0  0  0  0  0  0  0  0  0  0  0  0
   12.1405   12.9511   26.2491 C   0  0  0  0  0  0  0  0  0  0  0  0
   13.4890   12.2937   26.6043 C   0  0  0  0  0  0  0  0  0  0  0  0
   13.9948   11.3594   25.5419 C   0  0  0  0  0  0  0  0  0  0  0  0
   15.4153   10.7512   25.7578 C   0  0  0  0  0  0  0  0  0  0  0  0
   16.2699   11.3871   26.8176 C   0  0  0  0  0  0  0  0  0  0  0  0
   16.8719   12.6285   26.6343 C   0  0  0  0  0  0  0  0  0  0  0  0
   17.6343   13.2096   27.6469 C   0  0  0  0  0  0  0  0  0  0  0  0
   17.7876   12.5328   28.8534 C   0  0  0  0  0  0  0  0  0  0  0  0
   18.6188   13.1742   29.9571 C   0  0  0  0  0  0  0  0  0  0  0  0
   18.1615   14.4158   30.2981 F   0  0  0  0  0  0  0  0  0  0  0  0
   18.6554   12.4642   31.1203 F   0  0  0  0  0  0  0  0  0  0  0  0
   19.9217   13.3557   29.5916 F   0  0  0  0  0  0  0  0  0  0  0  0
   17.2103   11.3166   29.0579 N   0  0  0  0  0  0  0  0  0  0  0  0
   16.4817   10.7825   28.0509 C   0  0  0  0  0  0  0  0  0  0  0  0
   14.0131   12.1630   24.3022 C   0  0  0  0  0  0  0  0  0  0  0  0
   12.7114   12.7827   23.8203 C   0  0  0  0  0  0  0  0  0  0  0  0
    8.2074   13.5072   23.7652 C   0  0  0  0  0  0  0  0  0  0  0  0
    6.8493   13.3793   23.9649 C   0  0  0  0  0  0  0  0  0  0  0  0
    6.2330   14.3417   23.1336 C   0  0  0  0  0  0  0  0  0  0  0  0
    7.2580   14.9914   22.4946 C   0  0  0  0  0  0  0  0  0  0  0  0
    8.4451   14.4435   22.8099 O   0  0  0  0  0  0  0  0  0  0  0  0
  1  2  1  0
  2  3  1  0
  3  4  2  3
  4  5  1  0
  5  6  2  0
  5  7  1  0
  7  8  1  0
  8  9  1  0
  9 10  1  0
 10 11  1  0
 11 12  1  0
 12 13  2  0
 13 14  1  0
 14 15  2  0
 15 16  1  0
 16 17  1  0
 16 18  1  0
 16 19  1  0
 15 20  1  0
 20 21  2  0
 10 22  1  0
 22 23  1  0
  4 24  1  0
 24 25  2  0
 25 26  1  0
 26 27  2  0
 27 28  1  0
 23  7  1  0
 28 24  1  0
 21 12  1  0
M  END
>  <energy_score>  (1653) 
-28.552803

>  <inchikey>  (1653) 
UBZRPYYFJIAMFC-UHFFFAOYSA-N

>  <smiles>  (1653) 
CON=C(C(=O)N1CCC(Cc2ccc(C(F)(F)F)nc2)CC1)c1ccco1

>  <ref_pdb>  (1653) 
A0514b

>  <alias>  (1653) 
UBZRPYYFJIAMFC-UHFFFAOYSA-N-P87-P87-P135-601504

>  <HIPPO Pose ID>  (1653) 
507444

>  <name>  (1653) 
UBZRPYYFJIAMFC-UHFFFAOYSA-N-P87-P87-P135-601504

>  <HIPPO Compound ID>  (1653) 
315389

>  <ref_mols>  (1653) 
A2629a,A0875a

>  <distance_score>  (1653) 
1.626255

>  <inspiration_score>  (1653) 
None

$$$$
PCLPDWOEUDJUAZ-UHFFFAOYSA-N-P441-P124-P441-601504
     RDKit          3D

 27 30  0  0  0  0  0  0  0  0999 V2000
    5.3171   12.3511   29.3582 C   0  0  0  0  0  0  0  0  0  0  0  0
    5.5969   13.4711   28.5033 N   0  0  0  0  0  0  0  0  0  0  0  0
    5.4449   14.8063   28.8890 C   0  0  0  0  0  0  0  0  0  0  0  0
    5.1089   15.2199   29.9878 O   0  0  0  0  0  0  0  0  0  0  0  0
    5.7805   15.6752   27.6742 C   0  0  0  0  0  0  0  0  0  0  0  0
    6.1266   14.6545   26.6310 C   0  0  0  0  0  0  0  0  0  0  0  0
    6.4646   14.8609   25.3005 C   0  0  0  0  0  0  0  0  0  0  0  0
    6.7022   13.7348   24.5074 C   0  0  0  0  0  0  0  0  0  0  0  0
    6.9607   13.8462   23.0330 C   0  0  0  0  0  0  0  0  0  0  0  0
    6.4675   13.0425   22.3501 O   0  0  0  0  0  0  0  0  0  0  0  0
    7.8266   15.0630   22.6731 N   0  0  0  0  0  0  0  0  0  0  0  0
    8.1908   15.6035   21.3928 C   0  0  0  0  0  0  0  0  0  0  0  0
    9.6127   15.5078   20.8178 C   0  0  0  0  0  0  0  0  0  0  0  0
   10.1201   14.1076   20.5864 C   0  0  0  0  0  0  0  0  0  0  0  0
   11.4081   13.7853   21.3372 C   0  0  0  0  0  0  0  0  0  0  0  0
   11.3316   14.1611   22.7270 N   0  0  0  0  0  0  0  0  0  0  0  0
   10.4908   13.3827   23.6334 C   0  0  0  0  0  0  0  0  0  0  0  0
    9.9082   12.0015   23.2776 C   0  0  0  0  0  0  0  0  0  0  0  0
    9.7733   11.0951   24.4922 C   0  0  0  0  0  0  0  0  0  0  0  0
    9.4695   11.8998   25.6301 O   0  0  0  0  0  0  0  0  0  0  0  0
   10.5312   12.7731   25.9820 C   0  0  0  0  0  0  0  0  0  0  0  0
   11.3654   13.2746   24.8495 C   0  0  0  0  0  0  0  0  0  0  0  0
   11.1070   15.5933   22.8477 C   0  0  0  0  0  0  0  0  0  0  0  0
   10.6842   16.2520   21.5545 C   0  0  0  0  0  0  0  0  0  0  0  0
    6.5923   12.4418   25.0728 C   0  0  0  0  0  0  0  0  0  0  0  0
    6.2486   12.2449   26.4144 C   0  0  0  0  0  0  0  0  0  0  0  0
    6.0056   13.3705   27.1709 C   0  0  0  0  0  0  0  0  0  0  0  0
  1  2  1  0
  2  3  1  0
  3  4  2  0
  3  5  1  0
  5  6  1  0
  6  7  2  0
  7  8  1  0
  8  9  1  0
  9 10  2  0
  9 11  1  0
 11 12  1  0
 12 13  1  0
 13 14  1  0
 14 15  1  0
 15 16  1  0
 16 17  1  0
 17 18  1  0
 18 19  1  0
 19 20  1  0
 20 21  1  0
 21 22  1  0
 16 23  1  0
 23 24  1  0
  8 25  2  0
 25 26  1  0
 26 27  2  0
 27  2  1  0
 27  6  1  0
 24 13  1  0
 22 17  1  0
M  END
>  <energy_score>  (1654) 
-8.17574

>  <inchikey>  (1654) 
PCLPDWOEUDJUAZ-UHFFFAOYSA-N

>  <smiles>  (1654) 
CN1C(=O)Cc2cc(C(=O)NCC3CCN(C4CCOCC4)CC3)ccc21

>  <ref_pdb>  (1654) 
A0514b

>  <alias>  (1654) 
PCLPDWOEUDJUAZ-UHFFFAOYSA-N-P441-P124-P441-601504

>  <HIPPO Pose ID>  (1654) 
507473

>  <name>  (1654) 
PCLPDWOEUDJUAZ-UHFFFAOYSA-N-P441-P124-P441-601504

>  <HIPPO Compound ID>  (1654) 
311596

>  <ref_mols>  (1654) 
A4708a,A1778a

>  <distance_score>  (1654) 
1.72165

>  <inspiration_score>  (1654) 
None

$$$$
ZMJZWZLBXFJPQF-UHFFFAOYSA-N-P441-P124-P441-601504
     RDKit          3D

 27 30  0  0  0  0  0  0  0  0999 V2000
    4.5636   15.8588   29.3170 O   0  0  0  0  0  0  0  0  0  0  0  0
    5.0332   15.3747   28.3016 C   0  0  0  0  0  0  0  0  0  0  0  0
    5.2655   16.0834   26.9611 C   0  0  0  0  0  0  0  0  0  0  0  0
    5.8776   14.9887   26.1325 C   0  0  0  0  0  0  0  0  0  0  0  0
    6.2932   15.0201   24.8094 C   0  0  0  0  0  0  0  0  0  0  0  0
    6.8241   13.8456   24.2555 C   0  0  0  0  0  0  0  0  0  0  0  0
    7.1559   13.8279   22.7904 C   0  0  0  0  0  0  0  0  0  0  0  0
    6.6717   12.9837   22.1544 O   0  0  0  0  0  0  0  0  0  0  0  0
    8.0523   15.0024   22.3692 N   0  0  0  0  0  0  0  0  0  0  0  0
    8.4677   15.4442   21.0546 C   0  0  0  0  0  0  0  0  0  0  0  0
    9.9368   15.6155   20.5794 C   0  0  0  0  0  0  0  0  0  0  0  0
   10.7438   14.3812   20.3140 C   0  0  0  0  0  0  0  0  0  0  0  0
   10.9201   13.6047   21.6071 C   0  0  0  0  0  0  0  0  0  0  0  0
   11.3149   14.3227   22.8327 N   0  0  0  0  0  0  0  0  0  0  0  0
   10.6677   13.7236   24.0066 C   0  0  0  0  0  0  0  0  0  0  0  0
   11.0860   14.3820   25.3178 C   0  0  0  0  0  0  0  0  0  0  0  0
   10.1566   13.8821   26.3898 C   0  0  0  0  0  0  0  0  0  0  0  0
    9.7958   12.5240   26.1875 O   0  0  0  0  0  0  0  0  0  0  0  0
   10.7512   11.7489   25.4705 C   0  0  0  0  0  0  0  0  0  0  0  0
   10.9950   12.2644   24.0956 C   0  0  0  0  0  0  0  0  0  0  0  0
   10.9849   15.7248   22.8190 C   0  0  0  0  0  0  0  0  0  0  0  0
   10.8512   16.3739   21.4902 C   0  0  0  0  0  0  0  0  0  0  0  0
    6.9198   12.6781   25.0596 C   0  0  0  0  0  0  0  0  0  0  0  0
    7.7020   11.2433   24.5427 Cl  0  0  0  0  0  0  0  0  0  0  0  0
    6.4679   12.6548   26.3863 C   0  0  0  0  0  0  0  0  0  0  0  0
    5.9549   13.8222   26.8902 C   0  0  0  0  0  0  0  0  0  0  0  0
    5.4650   14.0596   28.1624 N   0  0  0  0  0  0  0  0  0  0  0  0
  1  2  2  0
  2  3  1  0
  3  4  1  0
  4  5  2  0
  5  6  1  0
  6  7  1  0
  7  8  2  0
  7  9  1  0
  9 10  1  0
 10 11  1  0
 11 12  1  0
 12 13  1  0
 13 14  1  0
 14 15  1  0
 15 16  1  0
 16 17  1  0
 17 18  1  0
 18 19  1  0
 19 20  1  0
 14 21  1  0
 21 22  1  0
  6 23  2  0
 23 24  1  0
 23 25  1  0
 25 26  2  0
 26 27  1  0
 27  2  1  0
 26  4  1  0
 22 11  1  0
 20 15  1  0
M  END
>  <energy_score>  (1655) 
-0.685843

>  <inchikey>  (1655) 
ZMJZWZLBXFJPQF-UHFFFAOYSA-N

>  <smiles>  (1655) 
O=C1Cc2cc(C(=O)NCC3CCN(C4CCOCC4)CC3)c(Cl)cc2N1

>  <ref_pdb>  (1655) 
A0514b

>  <alias>  (1655) 
ZMJZWZLBXFJPQF-UHFFFAOYSA-N-P441-P124-P441-601504

>  <HIPPO Pose ID>  (1655) 
507475

>  <name>  (1655) 
ZMJZWZLBXFJPQF-UHFFFAOYSA-N-P441-P124-P441-601504

>  <HIPPO Compound ID>  (1655) 
311597

>  <ref_mols>  (1655) 
A4708a,A1778a

>  <distance_score>  (1655) 
1.887333

>  <inspiration_score>  (1655) 
None

$$$$
XPXDDSZVOFQMIM-UHFFFAOYSA-N-P271-P28-P271-601504
     RDKit          3D

 30 31  0  0  0  0  0  0  0  0999 V2000
   15.7206   11.4817   25.4143 C   0  0  0  0  0  0  0  0  0  0  0  0
   14.9167   12.6276   26.0260 C   0  0  0  0  0  0  0  0  0  0  0  0
   14.5131   12.2634   27.4528 C   0  0  0  0  0  0  0  0  0  0  0  0
   15.8316   13.8256   26.1513 C   0  0  0  0  0  0  0  0  0  0  0  0
   13.8131   12.9210   25.1020 O   0  0  0  0  0  0  0  0  0  0  0  0
   13.0538   14.0587   25.2495 C   0  0  0  0  0  0  0  0  0  0  0  0
   13.0569   14.6845   26.2303 O   0  0  0  0  0  0  0  0  0  0  0  0
   12.3661   14.3232   23.9025 N   0  0  0  0  0  0  0  0  0  0  0  0
   11.4409   15.3866   23.4977 C   0  0  2  0  0  0  0  0  0  0  0  0
   10.2350   15.4433   24.4666 C   0  0  0  0  0  0  0  0  0  0  0  0
    9.3903   14.2745   24.5262 N   0  0  0  0  0  0  0  0  0  0  0  0
    9.7443   12.7811   24.4409 C   0  0  0  0  0  0  0  0  0  0  0  0
   10.7629   12.2578   24.2323 O   0  0  0  0  0  0  0  0  0  0  0  0
    8.5971   11.9473   24.7505 C   0  0  0  0  0  0  0  0  0  0  0  0
    8.5714   10.5393   24.6817 C   0  0  0  0  0  0  0  0  0  0  0  0
    7.4772   10.0222   25.2349 N   0  0  0  0  0  0  0  0  0  0  0  0
    6.7748   11.0995   25.6346 N   0  0  0  0  0  0  0  0  0  0  0  0
    5.5998   10.9264   26.4831 C   0  0  1  0  0  0  0  0  0  0  0  0
    5.3021    9.4594   26.7973 C   0  0  0  0  0  0  0  0  0  0  0  0
    4.3132    9.2996   27.9326 C   0  0  0  0  0  0  0  0  0  0  0  0
    4.9043    9.9317   29.1539 C   0  0  0  0  0  0  0  0  0  0  0  0
    4.5950    9.5986   30.2899 O   0  0  0  0  0  0  0  0  0  0  0  0
    5.7367   10.9962   28.9381 N   0  0  0  0  0  0  0  0  0  0  0  0
    5.7913   11.6972   27.7642 C   0  0  0  0  0  0  0  0  0  0  0  0
    5.9485   12.9148   27.7816 O   0  0  0  0  0  0  0  0  0  0  0  0
    7.3562   12.2797   25.2517 C   0  0  0  0  0  0  0  0  0  0  0  0
   11.0760   15.4700   21.9625 C   0  0  0  0  0  0  0  0  0  0  0  0
   10.0387   14.4388   21.5221 C   0  0  0  0  0  0  0  0  0  0  0  0
   10.4995   16.8507   21.6102 C   0  0  0  0  0  0  0  0  0  0  0  0
   12.3070   15.2863   21.0794 C   0  0  0  0  0  0  0  0  0  0  0  0
  1  2  1  0
  2  3  1  0
  2  4  1  0
  2  5  1  0
  5  6  1  0
  6  7  2  0
  6  8  1  0
  8  9  1  0
  9 10  1  1
 10 11  1  0
 11 12  1  0
 12 13  2  0
 12 14  1  0
 14 15  1  0
 15 16  2  0
 16 17  1  0
 18 17  1  6
 18 19  1  0
 19 20  1  0
 20 21  1  0
 21 22  2  0
 21 23  1  0
 23 24  1  0
 24 25  2  0
 17 26  1  0
  9 27  1  0
 27 28  1  0
 27 29  1  0
 27 30  1  0
 26 14  2  0
 24 18  1  0
M  END
>  <energy_score>  (1656) 
-37.107684

>  <inchikey>  (1656) 
XPXDDSZVOFQMIM-UHFFFAOYSA-N

>  <smiles>  (1656) 
CC(C)(C)OC(=O)NC(CNC(=O)c1cnn(C2CCC(=O)NC2=O)c1)C(C)(C)C

>  <ref_pdb>  (1656) 
A0514b

>  <alias>  (1656) 
XPXDDSZVOFQMIM-UHFFFAOYSA-N-P271-P28-P271-601504

>  <HIPPO Pose ID>  (1656) 
507503

>  <name>  (1656) 
XPXDDSZVOFQMIM-UHFFFAOYSA-N-P271-P28-P271-601504

>  <HIPPO Compound ID>  (1656) 
311572

>  <ref_mols>  (1656) 
A0556a,A4020b

>  <distance_score>  (1656) 
1.832292

>  <inspiration_score>  (1656) 
None

$$$$
ZYWOPNRQCFMFDF-UHFFFAOYSA-N-P271-P28-P271-601504
     RDKit          3D

 31 32  0  0  0  0  0  0  0  0999 V2000
   10.2366   15.7150   20.0139 C   0  0  0  0  0  0  0  0  0  0  0  0
   10.2112   15.6330   21.5463 C   0  0  0  0  0  0  0  0  0  0  0  0
   11.5763   15.2696   22.2052 C   0  0  0  0  0  0  0  0  0  0  0  0
   12.6019   16.3104   21.7541 C   0  0  0  0  0  0  0  0  0  0  0  0
   11.9163   13.8715   21.6908 C   0  0  0  0  0  0  0  0  0  0  0  0
   11.5428   15.1085   23.7758 C   0  0  2  0  0  0  0  0  0  0  0  0
   10.8195   16.2094   24.5631 C   0  0  0  0  0  0  0  0  0  0  0  0
    9.6988   15.6292   25.2564 N   0  0  0  0  0  0  0  0  0  0  0  0
    8.2737   15.3300   24.7726 C   0  0  0  0  0  0  0  0  0  0  0  0
    7.7543   15.5741   23.7616 O   0  0  0  0  0  0  0  0  0  0  0  0
    7.5702   14.5343   25.7670 C   0  0  0  0  0  0  0  0  0  0  0  0
    7.6200   14.5417   27.1746 C   0  0  0  0  0  0  0  0  0  0  0  0
    6.8411   13.6077   27.7249 N   0  0  0  0  0  0  0  0  0  0  0  0
    6.2467   13.0181   26.6618 N   0  0  0  0  0  0  0  0  0  0  0  0
    5.2449   11.9758   26.8653 C   0  0  2  0  0  0  0  0  0  0  0  0
    4.5429   12.0849   28.2281 C   0  0  0  0  0  0  0  0  0  0  0  0
    3.6746   10.8699   28.4923 C   0  0  0  0  0  0  0  0  0  0  0  0
    4.5454    9.6505   28.4082 C   0  0  0  0  0  0  0  0  0  0  0  0
    4.6819    8.8663   29.3368 O   0  0  0  0  0  0  0  0  0  0  0  0
    5.2247    9.5264   27.2297 N   0  0  0  0  0  0  0  0  0  0  0  0
    5.8722   10.6007   26.6661 C   0  0  0  0  0  0  0  0  0  0  0  0
    6.9019   10.4113   26.0250 O   0  0  0  0  0  0  0  0  0  0  0  0
    6.6560   13.5414   25.4721 C   0  0  0  0  0  0  0  0  0  0  0  0
   12.8661   14.8286   24.3647 N   0  0  0  0  0  0  0  0  0  0  0  0
   13.2456   14.3204   25.7466 C   0  0  0  0  0  0  0  0  0  0  0  0
   12.5885   14.1106   26.6750 O   0  0  0  0  0  0  0  0  0  0  0  0
   14.5962   14.0965   25.7092 O   0  0  0  0  0  0  0  0  0  0  0  0
   15.2781   13.0794   26.5214 C   0  0  0  0  0  0  0  0  0  0  0  0
   15.3612   11.8384   25.6295 C   0  0  0  0  0  0  0  0  0  0  0  0
   16.6961   13.5576   26.8480 C   0  0  0  0  0  0  0  0  0  0  0  0
   14.6402   12.7266   27.8615 C   0  0  0  0  0  0  0  0  0  0  0  0
  1  2  1  0
  2  3  1  0
  3  4  1  0
  3  5  1  0
  3  6  1  0
  6  7  1  1
  7  8  1  0
  8  9  1  0
  9 10  2  0
  9 11  1  0
 11 12  1  0
 12 13  2  0
 13 14  1  0
 15 14  1  1
 15 16  1  0
 16 17  1  0
 17 18  1  0
 18 19  2  0
 18 20  1  0
 20 21  1  0
 21 22  2  0
 14 23  1  0
  6 24  1  0
 24 25  1  0
 25 26  2  0
 25 27  1  0
 27 28  1  0
 28 29  1  0
 28 30  1  0
 28 31  1  0
 23 11  2  0
 21 15  1  0
M  END
>  <energy_score>  (1657) 
-46.395611

>  <inchikey>  (1657) 
ZYWOPNRQCFMFDF-UHFFFAOYSA-N

>  <smiles>  (1657) 
CCC(C)(C)C(CNC(=O)c1cnn(C2CCC(=O)NC2=O)c1)NC(=O)OC(C)(C)C

>  <ref_pdb>  (1657) 
A0514b

>  <alias>  (1657) 
ZYWOPNRQCFMFDF-UHFFFAOYSA-N-P271-P28-P271-601504

>  <HIPPO Pose ID>  (1657) 
507511

>  <name>  (1657) 
ZYWOPNRQCFMFDF-UHFFFAOYSA-N-P271-P28-P271-601504

>  <HIPPO Compound ID>  (1657) 
311576

>  <ref_mols>  (1657) 
A0556a,A4020b

>  <distance_score>  (1657) 
1.863434

>  <inspiration_score>  (1657) 
None

$$$$
LHINEFFBEZLGTP-UHFFFAOYSA-N-P76-P9-P76-601504
     RDKit          3D

 26 29  0  0  0  0  0  0  0  0999 V2000
   19.9416   17.0730    0.5092 C   0  0  0  0  0  0  0  0  0  0  0  0
   18.9906   16.5466    1.5455 C   0  0  0  0  0  0  0  0  0  0  0  0
   17.7237   17.1878    1.7481 C   0  0  0  0  0  0  0  0  0  0  0  0
   17.1381   18.2890    0.8579 C   0  0  0  0  0  0  0  0  0  0  0  0
   15.8082   17.9033    0.3305 N   0  0  0  0  0  0  0  0  0  0  0  0
   14.6514   18.5158    1.0086 C   0  0  0  0  0  0  0  0  0  0  0  0
   13.4586   17.5810    1.2255 C   0  0  0  0  0  0  0  0  0  0  0  0
   13.4061   16.2770    0.7263 C   0  0  0  0  0  0  0  0  0  0  0  0
   12.2862   15.4548    0.9583 C   0  0  0  0  0  0  0  0  0  0  0  0
   11.1695   15.8905    1.7005 C   0  0  0  0  0  0  0  0  0  0  0  0
   10.0472   14.9628    1.9446 C   0  0  0  0  0  0  0  0  0  0  0  0
    8.9276   15.0915    2.8140 C   0  0  0  0  0  0  0  0  0  0  0  0
    8.2501   13.8962    2.7367 C   0  0  0  0  0  0  0  0  0  0  0  0
    8.9442   13.1356    1.8514 N   0  0  0  0  0  0  0  0  0  0  0  0
    8.6562   11.7760    1.4635 C   0  0  0  0  0  0  0  0  0  0  0  0
   10.0230   13.7564    1.3500 N   0  0  0  0  0  0  0  0  0  0  0  0
   11.2169   17.1962    2.1983 C   0  0  0  0  0  0  0  0  0  0  0  0
   12.3402   18.0256    1.9606 C   0  0  0  0  0  0  0  0  0  0  0  0
   16.8734   16.7526    2.7722 C   0  0  0  0  0  0  0  0  0  0  0  0
   17.0817   15.5609    3.4361 C   0  0  0  0  0  0  0  0  0  0  0  0
   18.2178   14.8219    3.1268 C   0  0  0  0  0  0  0  0  0  0  0  0
   18.6608   13.5479    3.5004 C   0  0  0  0  0  0  0  0  0  0  0  0
   19.8613   13.2715    3.0147 N   0  0  0  0  0  0  0  0  0  0  0  0
   20.2295   14.4182    2.4022 N   0  0  0  0  0  0  0  0  0  0  0  0
   21.6246   14.5562    2.0579 C   0  0  0  0  0  0  0  0  0  0  0  0
   19.2018   15.3415    2.2812 C   0  0  0  0  0  0  0  0  0  0  0  0
  1  2  1  0
  2  3  2  0
  3  4  1  0
  4  5  1  0
  5  6  1  0
  6  7  1  0
  7  8  2  0
  8  9  1  0
  9 10  2  0
 10 11  1  0
 11 12  1  0
 12 13  2  0
 13 14  1  0
 14 15  1  0
 14 16  1  0
 10 17  1  0
 17 18  2  0
  3 19  1  0
 19 20  2  0
 20 21  1  0
 21 22  1  0
 22 23  2  0
 23 24  1  0
 24 25  1  0
 24 26  1  0
 26  2  1  0
 18  7  1  0
 26 21  2  0
 16 11  2  0
M  END
>  <energy_score>  (1658) 
-25.279246

>  <inchikey>  (1658) 
LHINEFFBEZLGTP-UHFFFAOYSA-N

>  <smiles>  (1658) 
Cc1c(CNCc2ccc(-c3ccn(C)n3)cc2)ccc2cnn(C)c12

>  <ref_pdb>  (1658) 
A0514b

>  <alias>  (1658) 
LHINEFFBEZLGTP-UHFFFAOYSA-N-P76-P9-P76-601504

>  <HIPPO Pose ID>  (1658) 
507519

>  <name>  (1658) 
LHINEFFBEZLGTP-UHFFFAOYSA-N-P76-P9-P76-601504

>  <HIPPO Compound ID>  (1658) 
289723

>  <ref_mols>  (1658) 
A0486a,A0717a

>  <distance_score>  (1658) 
1.913494

>  <inspiration_score>  (1658) 
None

$$$$
CWQUIWRCEMXFMT-UHFFFAOYSA-N-P76-P9-P76-601504
     RDKit          3D

 26 29  0  0  0  0  0  0  0  0999 V2000
   20.0254   17.1259    0.6181 C   0  0  0  0  0  0  0  0  0  0  0  0
   19.0298   16.5815    1.6043 C   0  0  0  0  0  0  0  0  0  0  0  0
   17.7673   17.2419    1.7836 C   0  0  0  0  0  0  0  0  0  0  0  0
   17.3030   18.4180    0.9171 C   0  0  0  0  0  0  0  0  0  0  0  0
   15.8357   18.5877    0.7784 N   0  0  0  0  0  0  0  0  0  0  0  0
   15.1681   17.5253    0.0214 C   0  0  0  0  0  0  0  0  0  0  0  0
   13.9097   16.9494    0.6710 C   0  0  0  0  0  0  0  0  0  0  0  0
   12.7185   17.6846    0.8011 C   0  0  0  0  0  0  0  0  0  0  0  0
   11.5156   17.0732    1.2338 C   0  0  0  0  0  0  0  0  0  0  0  0
   11.4738   15.7100    1.5412 C   0  0  0  0  0  0  0  0  0  0  0  0
   10.2246   14.9807    1.7907 C   0  0  0  0  0  0  0  0  0  0  0  0
    9.2859   15.0494    2.8060 C   0  0  0  0  0  0  0  0  0  0  0  0
    8.4210   13.9576    2.5930 C   0  0  0  0  0  0  0  0  0  0  0  0
    8.7188   13.2936    1.4786 N   0  0  0  0  0  0  0  0  0  0  0  0
    9.7690   13.9623    0.9759 N   0  0  0  0  0  0  0  0  0  0  0  0
   10.3005   13.5414   -0.3013 C   0  0  0  0  0  0  0  0  0  0  0  0
   12.6845   14.9970    1.4818 C   0  0  0  0  0  0  0  0  0  0  0  0
   13.8787   15.6024    1.0556 C   0  0  0  0  0  0  0  0  0  0  0  0
   16.8840   16.8011    2.7762 C   0  0  0  0  0  0  0  0  0  0  0  0
   17.0571   15.5895    3.4179 C   0  0  0  0  0  0  0  0  0  0  0  0
   18.1880   14.8349    3.1220 C   0  0  0  0  0  0  0  0  0  0  0  0
   18.6067   13.5507    3.4909 C   0  0  0  0  0  0  0  0  0  0  0  0
   19.8119   13.2627    3.0242 N   0  0  0  0  0  0  0  0  0  0  0  0
   20.2085   14.4075    2.4260 N   0  0  0  0  0  0  0  0  0  0  0  0
   21.6071   14.5185    2.0833 C   0  0  0  0  0  0  0  0  0  0  0  0
   19.1995   15.3527    2.3085 C   0  0  0  0  0  0  0  0  0  0  0  0
  1  2  1  0
  2  3  2  0
  3  4  1  0
  4  5  1  0
  5  6  1  0
  6  7  1  0
  7  8  2  0
  8  9  1  0
  9 10  2  0
 10 11  1  0
 11 12  2  0
 12 13  1  0
 13 14  2  0
 14 15  1  0
 15 16  1  0
 10 17  1  0
 17 18  2  0
  3 19  1  0
 19 20  2  0
 20 21  1  0
 21 22  1  0
 22 23  2  0
 23 24  1  0
 24 25  1  0
 24 26  1  0
 26  2  1  0
 18  7  1  0
 26 21  2  0
 15 11  1  0
M  END
>  <energy_score>  (1659) 
-32.288112

>  <inchikey>  (1659) 
CWQUIWRCEMXFMT-UHFFFAOYSA-N

>  <smiles>  (1659) 
Cc1c(CNCc2ccc(-c3ccnn3C)cc2)ccc2cnn(C)c12

>  <ref_pdb>  (1659) 
A0514b

>  <alias>  (1659) 
CWQUIWRCEMXFMT-UHFFFAOYSA-N-P76-P9-P76-601504

>  <HIPPO Pose ID>  (1659) 
507521

>  <name>  (1659) 
CWQUIWRCEMXFMT-UHFFFAOYSA-N-P76-P9-P76-601504

>  <HIPPO Compound ID>  (1659) 
289724

>  <ref_mols>  (1659) 
A0486a,A0717a

>  <distance_score>  (1659) 
1.871609

>  <inspiration_score>  (1659) 
None

$$$$
YFIDAESKNWECFP-UHFFFAOYSA-N-P76-P9-P76-601504
     RDKit          3D

 26 29  0  0  0  0  0  0  0  0999 V2000
   11.0536   13.3009    0.3361 C   0  0  0  0  0  0  0  0  0  0  0  0
   10.0910   13.9278    1.2161 N   0  0  0  0  0  0  0  0  0  0  0  0
    9.0212   13.1966    1.5763 N   0  0  0  0  0  0  0  0  0  0  0  0
    8.4410   13.9201    2.5282 C   0  0  0  0  0  0  0  0  0  0  0  0
    9.0955   15.1492    2.7257 C   0  0  0  0  0  0  0  0  0  0  0  0
   10.1621   15.1652    1.8368 C   0  0  0  0  0  0  0  0  0  0  0  0
   11.2300   16.1625    1.6170 C   0  0  0  0  0  0  0  0  0  0  0  0
   11.7710   16.3944    0.3394 C   0  0  0  0  0  0  0  0  0  0  0  0
   12.9007   17.2154    0.1399 C   0  0  0  0  0  0  0  0  0  0  0  0
   13.5262   17.8548    1.2147 C   0  0  0  0  0  0  0  0  0  0  0  0
   14.7597   18.7372    1.0207 C   0  0  0  0  0  0  0  0  0  0  0  0
   15.8710   18.0767    0.3134 N   0  0  0  0  0  0  0  0  0  0  0  0
   17.2028   18.3418    0.8731 C   0  0  2  0  0  0  0  0  0  0  0  0
   18.0536   18.4808   -0.2418 O   0  0  0  0  0  0  0  0  0  0  0  0
   17.7090   17.2041    1.7644 C   0  0  0  0  0  0  0  0  0  0  0  0
   16.8195   16.7302    2.7383 C   0  0  0  0  0  0  0  0  0  0  0  0
   17.0165   15.5236    3.3916 C   0  0  0  0  0  0  0  0  0  0  0  0
   18.1795   14.8064    3.1223 C   0  0  0  0  0  0  0  0  0  0  0  0
   18.6525   13.5430    3.4976 C   0  0  0  0  0  0  0  0  0  0  0  0
   19.8782   13.3056    3.0478 N   0  0  0  0  0  0  0  0  0  0  0  0
   20.2139   14.4505    2.4124 N   0  0  0  0  0  0  0  0  0  0  0  0
   21.5830   14.5997    1.9825 C   0  0  0  0  0  0  0  0  0  0  0  0
   19.1745   15.3534    2.3147 C   0  0  0  0  0  0  0  0  0  0  0  0
   18.9666   16.5622    1.6125 C   0  0  0  0  0  0  0  0  0  0  0  0
   12.9338   17.7006    2.4805 C   0  0  0  0  0  0  0  0  0  0  0  0
   11.8040   16.8750    2.6767 C   0  0  0  0  0  0  0  0  0  0  0  0
  1  2  1  0
  2  3  1  0
  3  4  2  0
  4  5  1  0
  5  6  2  0
  6  7  1  0
  7  8  2  0
  8  9  1  0
  9 10  2  0
 10 11  1  0
 11 12  1  0
 12 13  1  0
 13 14  1  6
 13 15  1  0
 15 16  2  0
 16 17  1  0
 17 18  2  0
 18 19  1  0
 19 20  2  0
 20 21  1  0
 21 22  1  0
 21 23  1  0
 23 24  2  0
 10 25  1  0
 25 26  2  0
  6  2  1  0
 26  7  1  0
 24 15  1  0
 23 18  1  0
M  END
>  <energy_score>  (1660) 
-17.311223

>  <inchikey>  (1660) 
YFIDAESKNWECFP-UHFFFAOYSA-N

>  <smiles>  (1660) 
Cn1nccc1-c1ccc(CNC(O)c2ccc3cnn(C)c3c2)cc1

>  <ref_pdb>  (1660) 
A0514b

>  <alias>  (1660) 
YFIDAESKNWECFP-UHFFFAOYSA-N-P76-P9-P76-601504

>  <HIPPO Pose ID>  (1660) 
507525

>  <name>  (1660) 
YFIDAESKNWECFP-UHFFFAOYSA-N-P76-P9-P76-601504

>  <HIPPO Compound ID>  (1660) 
289726

>  <ref_mols>  (1660) 
A0486a,A0717a

>  <distance_score>  (1660) 
1.831133

>  <inspiration_score>  (1660) 
None

$$$$
CXCYIBNJCGFMTB-UHFFFAOYSA-N-P76-P9-P76-601504
     RDKit          3D

 26 29  0  0  0  0  0  0  0  0999 V2000
   22.4342   16.5871    2.0056 C   0  0  0  0  0  0  0  0  0  0  0  0
   21.1412   15.8922    2.2313 C   0  0  0  0  0  0  0  0  0  0  0  0
   19.8388   16.3090    2.1489 C   0  0  0  0  0  0  0  0  0  0  0  0
   19.4262   17.5987    1.8349 C   0  0  0  0  0  0  0  0  0  0  0  0
   18.0287   17.7001    1.7685 C   0  0  0  0  0  0  0  0  0  0  0  0
   17.1404   16.6004    1.9945 C   0  0  0  0  0  0  0  0  0  0  0  0
   15.6474   16.8300    1.7860 C   0  0  0  0  0  0  0  0  0  0  0  0
   15.0731   17.6801    2.8293 N   0  0  0  0  0  0  0  0  0  0  0  0
   13.8541   18.3837    2.4130 C   0  0  0  0  0  0  0  0  0  0  0  0
   12.6093   17.5256    2.3535 C   0  0  0  0  0  0  0  0  0  0  0  0
   11.6754   17.5167    3.4024 C   0  0  0  0  0  0  0  0  0  0  0  0
   10.5412   16.6858    3.3585 C   0  0  0  0  0  0  0  0  0  0  0  0
   10.3399   15.8130    2.2819 C   0  0  0  0  0  0  0  0  0  0  0  0
    9.3416   14.7343    2.3137 C   0  0  0  0  0  0  0  0  0  0  0  0
    8.3393   14.4558    3.2821 C   0  0  0  0  0  0  0  0  0  0  0  0
    7.8211   13.2292    2.9383 C   0  0  0  0  0  0  0  0  0  0  0  0
    8.4905   12.8447    1.8211 N   0  0  0  0  0  0  0  0  0  0  0  0
    8.3389   11.6009    1.1066 C   0  0  0  0  0  0  0  0  0  0  0  0
    9.3872   13.7483    1.3995 N   0  0  0  0  0  0  0  0  0  0  0  0
   11.2449   15.8763    1.2082 C   0  0  0  0  0  0  0  0  0  0  0  0
   12.3560   16.7235    1.2374 C   0  0  0  0  0  0  0  0  0  0  0  0
   17.6094   15.3018    2.3459 C   0  0  0  0  0  0  0  0  0  0  0  0
   19.0036   15.1714    2.4130 C   0  0  0  0  0  0  0  0  0  0  0  0
   19.7734   14.1073    2.6950 N   0  0  0  0  0  0  0  0  0  0  0  0
   21.0452   14.5719    2.6030 N   0  0  0  0  0  0  0  0  0  0  0  0
   22.1421   13.6865    2.9201 C   0  0  0  0  0  0  0  0  0  0  0  0
  1  2  1  0
  2  3  2  0
  3  4  1  0
  4  5  2  0
  5  6  1  0
  6  7  1  0
  7  8  1  0
  8  9  1  0
  9 10  1  0
 10 11  2  0
 11 12  1  0
 12 13  2  0
 13 14  1  0
 14 15  1  0
 15 16  2  0
 16 17  1  0
 17 18  1  0
 17 19  1  0
 13 20  1  0
 20 21  2  0
  6 22  2  0
 22 23  1  0
 23 24  2  0
 24 25  1  0
 25 26  1  0
 25  2  1  0
 23  3  1  0
 21 10  1  0
 19 14  2  0
M  END
>  <energy_score>  (1661) 
-32.802572

>  <inchikey>  (1661) 
CXCYIBNJCGFMTB-UHFFFAOYSA-N

>  <smiles>  (1661) 
Cc1c2ccc(CNCc3ccc(-c4ccn(C)n4)cc3)cc2nn1C

>  <ref_pdb>  (1661) 
A0514b

>  <alias>  (1661) 
CXCYIBNJCGFMTB-UHFFFAOYSA-N-P76-P9-P76-601504

>  <HIPPO Pose ID>  (1661) 
507527

>  <name>  (1661) 
CXCYIBNJCGFMTB-UHFFFAOYSA-N-P76-P9-P76-601504

>  <HIPPO Compound ID>  (1661) 
289727

>  <ref_mols>  (1661) 
A0486a,A0717a

>  <distance_score>  (1661) 
1.679679

>  <inspiration_score>  (1661) 
None

$$$$
HJCYMYIDFNDTAN-UHFFFAOYSA-N-P76-P9-P76-601504
     RDKit          3D

 26 29  0  0  0  0  0  0  0  0999 V2000
   22.4033   16.5724    1.9575 C   0  0  0  0  0  0  0  0  0  0  0  0
   21.1064   15.8926    2.2056 C   0  0  0  0  0  0  0  0  0  0  0  0
   19.8076   16.3212    2.1326 C   0  0  0  0  0  0  0  0  0  0  0  0
   19.4074   17.6115    1.8071 C   0  0  0  0  0  0  0  0  0  0  0  0
   18.0109   17.7339    1.7731 C   0  0  0  0  0  0  0  0  0  0  0  0
   17.1105   16.6523    2.0368 C   0  0  0  0  0  0  0  0  0  0  0  0
   15.6152   16.9167    1.8825 C   0  0  0  0  0  0  0  0  0  0  0  0
   15.0972   17.7371    2.9776 N   0  0  0  0  0  0  0  0  0  0  0  0
   13.9111   18.5247    2.6223 C   0  0  0  0  0  0  0  0  0  0  0  0
   12.6389   17.7213    2.4759 C   0  0  0  0  0  0  0  0  0  0  0  0
   11.7982   17.4843    3.5706 C   0  0  0  0  0  0  0  0  0  0  0  0
   10.6690   16.6591    3.4435 C   0  0  0  0  0  0  0  0  0  0  0  0
   10.3859   16.0024    2.2378 C   0  0  0  0  0  0  0  0  0  0  0  0
    9.4178   14.8912    2.1913 C   0  0  0  0  0  0  0  0  0  0  0  0
    8.3179   14.6277    2.9960 C   0  0  0  0  0  0  0  0  0  0  0  0
    7.8280   13.3763    2.5895 C   0  0  0  0  0  0  0  0  0  0  0  0
    8.5327   12.8687    1.5840 N   0  0  0  0  0  0  0  0  0  0  0  0
    9.5344   13.7493    1.4116 N   0  0  0  0  0  0  0  0  0  0  0  0
   10.6136   13.3390    0.5402 C   0  0  0  0  0  0  0  0  0  0  0  0
   11.1488   16.3609    1.1184 C   0  0  0  0  0  0  0  0  0  0  0  0
   12.2686   17.1937    1.2356 C   0  0  0  0  0  0  0  0  0  0  0  0
   17.5678   15.3504    2.3945 C   0  0  0  0  0  0  0  0  0  0  0  0
   18.9624   15.1991    2.4325 C   0  0  0  0  0  0  0  0  0  0  0  0
   19.7262   14.1302    2.7183 N   0  0  0  0  0  0  0  0  0  0  0  0
   21.0015   14.5810    2.6018 N   0  0  0  0  0  0  0  0  0  0  0  0
   22.0952   13.6941    2.9254 C   0  0  0  0  0  0  0  0  0  0  0  0
  1  2  1  0
  2  3  2  0
  3  4  1  0
  4  5  2  0
  5  6  1  0
  6  7  1  0
  7  8  1  0
  8  9  1  0
  9 10  1  0
 10 11  2  0
 11 12  1  0
 12 13  2  0
 13 14  1  0
 14 15  2  0
 15 16  1  0
 16 17  2  0
 17 18  1  0
 18 19  1  0
 13 20  1  0
 20 21  2  0
  6 22  2  0
 22 23  1  0
 23 24  2  0
 24 25  1  0
 25 26  1  0
 25  2  1  0
 23  3  1  0
 21 10  1  0
 18 14  1  0
M  END
>  <energy_score>  (1662) 
-39.404207

>  <inchikey>  (1662) 
HJCYMYIDFNDTAN-UHFFFAOYSA-N

>  <smiles>  (1662) 
Cc1c2ccc(CNCc3ccc(-c4ccnn4C)cc3)cc2nn1C

>  <ref_pdb>  (1662) 
A0514b

>  <alias>  (1662) 
HJCYMYIDFNDTAN-UHFFFAOYSA-N-P76-P9-P76-601504

>  <HIPPO Pose ID>  (1662) 
507529

>  <name>  (1662) 
HJCYMYIDFNDTAN-UHFFFAOYSA-N-P76-P9-P76-601504

>  <HIPPO Compound ID>  (1662) 
289728

>  <ref_mols>  (1662) 
A0486a,A0717a

>  <distance_score>  (1662) 
1.692449

>  <inspiration_score>  (1662) 
None

$$$$
KOBXWNWPTOGHSG-UHFFFAOYSA-N-P76-P9-P76-601504
     RDKit          3D

 26 29  0  0  0  0  0  0  0  0999 V2000
    8.5056   11.7951    1.1897 C   0  0  0  0  0  0  0  0  0  0  0  0
    8.7015   13.0819    1.8110 N   0  0  0  0  0  0  0  0  0  0  0  0
    8.0631   13.5643    2.9085 C   0  0  0  0  0  0  0  0  0  0  0  0
    8.6317   14.7914    3.1619 C   0  0  0  0  0  0  0  0  0  0  0  0
    9.6279   14.9695    2.1624 C   0  0  0  0  0  0  0  0  0  0  0  0
   10.6593   16.0123    2.0329 C   0  0  0  0  0  0  0  0  0  0  0  0
   11.4273   16.0889    0.8573 C   0  0  0  0  0  0  0  0  0  0  0  0
   12.5636   16.9089    0.7647 C   0  0  0  0  0  0  0  0  0  0  0  0
   12.9965   17.6586    1.8629 C   0  0  0  0  0  0  0  0  0  0  0  0
   14.2913   18.4694    1.8690 C   0  0  0  0  0  0  0  0  0  0  0  0
   15.2555   18.1076    0.8201 N   0  0  0  0  0  0  0  0  0  0  0  0
   16.6612   18.3972    1.1067 C   0  0  1  0  0  0  0  0  0  0  0  0
   16.7990   19.5460    1.9120 O   0  0  0  0  0  0  0  0  0  0  0  0
   17.4736   17.2428    1.7030 C   0  0  0  0  0  0  0  0  0  0  0  0
   16.8216   16.2514    2.5190 C   0  0  0  0  0  0  0  0  0  0  0  0
   17.4298   15.0967    3.0458 C   0  0  0  0  0  0  0  0  0  0  0  0
   18.7623   15.0472    2.6922 C   0  0  0  0  0  0  0  0  0  0  0  0
   19.6401   14.0735    3.0685 C   0  0  0  0  0  0  0  0  0  0  0  0
   20.8421   14.4718    2.5659 N   0  0  0  0  0  0  0  0  0  0  0  0
   22.1258   13.8465    2.7798 C   0  0  0  0  0  0  0  0  0  0  0  0
   20.7772   15.6085    1.8489 N   0  0  0  0  0  0  0  0  0  0  0  0
   19.4974   16.0045    1.9292 C   0  0  0  0  0  0  0  0  0  0  0  0
   18.8676   17.1508    1.4119 C   0  0  0  0  0  0  0  0  0  0  0  0
   12.1773   17.6549    3.0090 C   0  0  0  0  0  0  0  0  0  0  0  0
   11.0204   16.8532    3.0912 C   0  0  0  0  0  0  0  0  0  0  0  0
    9.6165   13.9264    1.3131 N   0  0  0  0  0  0  0  0  0  0  0  0
  1  2  1  0
  2  3  1  0
  3  4  2  0
  4  5  1  0
  5  6  1  0
  6  7  2  0
  7  8  1  0
  8  9  2  0
  9 10  1  0
 10 11  1  0
 11 12  1  0
 12 13  1  1
 12 14  1  0
 14 15  1  0
 15 16  2  0
 16 17  1  0
 17 18  2  0
 18 19  1  0
 19 20  1  0
 19 21  1  0
 21 22  2  0
 22 23  1  0
  9 24  1  0
 24 25  2  0
  5 26  2  0
 26  2  1  0
 25  6  1  0
 23 14  2  0
 22 17  1  0
M  END
>  <energy_score>  (1663) 
-36.209186

>  <inchikey>  (1663) 
KOBXWNWPTOGHSG-UHFFFAOYSA-N

>  <smiles>  (1663) 
Cn1ccc(-c2ccc(CNC(O)c3ccc4cn(C)nc4c3)cc2)n1

>  <ref_pdb>  (1663) 
A0514b

>  <alias>  (1663) 
KOBXWNWPTOGHSG-UHFFFAOYSA-N-P76-P9-P76-601504

>  <HIPPO Pose ID>  (1663) 
507531

>  <name>  (1663) 
KOBXWNWPTOGHSG-UHFFFAOYSA-N-P76-P9-P76-601504

>  <HIPPO Compound ID>  (1663) 
289729

>  <ref_mols>  (1663) 
A0486a,A0717a

>  <distance_score>  (1663) 
1.831225

>  <inspiration_score>  (1663) 
None

$$$$
UASTZKAZOIYVOI-UHFFFAOYSA-N-P76-P9-P76-601504
     RDKit          3D

 26 29  0  0  0  0  0  0  0  0999 V2000
   22.0776   13.8764    2.7389 C   0  0  0  0  0  0  0  0  0  0  0  0
   20.8417   14.5422    2.4000 N   0  0  0  0  0  0  0  0  0  0  0  0
   19.8580   14.0858    1.5729 C   0  0  0  0  0  0  0  0  0  0  0  0
   18.9363   15.0957    1.5421 C   0  0  0  0  0  0  0  0  0  0  0  0
   17.7802   15.1143    0.7855 C   0  0  0  0  0  0  0  0  0  0  0  0
   17.0860   16.3302    0.9598 C   0  0  0  0  0  0  0  0  0  0  0  0
   17.4776   17.3920    1.8513 C   0  0  0  0  0  0  0  0  0  0  0  0
   16.5824   18.6172    2.0296 C   0  0  1  0  0  0  0  0  0  0  0  0
   16.8979   19.5175    0.9932 O   0  0  0  0  0  0  0  0  0  0  0  0
   15.1446   18.4013    1.9487 N   0  0  0  0  0  0  0  0  0  0  0  0
   14.6019   17.6564    3.0815 C   0  0  0  0  0  0  0  0  0  0  0  0
   13.2601   17.0216    2.7566 C   0  0  0  0  0  0  0  0  0  0  0  0
   13.2203   15.8314    2.0214 C   0  0  0  0  0  0  0  0  0  0  0  0
   12.0040   15.1894    1.7675 C   0  0  0  0  0  0  0  0  0  0  0  0
   10.7856   15.7079    2.2424 C   0  0  0  0  0  0  0  0  0  0  0  0
    9.5731   14.8971    2.1061 C   0  0  0  0  0  0  0  0  0  0  0  0
    8.7067   14.4118    3.0730 C   0  0  0  0  0  0  0  0  0  0  0  0
    7.9341   13.4328    2.4250 C   0  0  0  0  0  0  0  0  0  0  0  0
    8.2057   13.3601    1.1228 N   0  0  0  0  0  0  0  0  0  0  0  0
    9.1557   14.2952    0.9394 N   0  0  0  0  0  0  0  0  0  0  0  0
    9.6184   14.5427   -0.4071 C   0  0  0  0  0  0  0  0  0  0  0  0
   10.8192   16.9099    2.9540 C   0  0  0  0  0  0  0  0  0  0  0  0
   12.0434   17.5656    3.1992 C   0  0  0  0  0  0  0  0  0  0  0  0
   18.7029   17.3286    2.5698 C   0  0  0  0  0  0  0  0  0  0  0  0
   19.4209   16.1361    2.3895 C   0  0  0  0  0  0  0  0  0  0  0  0
   20.5986   15.7654    2.9014 N   0  0  0  0  0  0  0  0  0  0  0  0
  1  2  1  0
  2  3  1  0
  3  4  2  0
  4  5  1  0
  5  6  2  0
  6  7  1  0
  7  8  1  0
  8  9  1  6
  8 10  1  0
 10 11  1  0
 11 12  1  0
 12 13  2  0
 13 14  1  0
 14 15  2  0
 15 16  1  0
 16 17  2  0
 17 18  1  0
 18 19  2  0
 19 20  1  0
 20 21  1  0
 15 22  1  0
 22 23  2  0
  7 24  2  0
 24 25  1  0
 25 26  2  0
 26  2  1  0
 25  4  1  0
 23 12  1  0
 20 16  1  0
M  END
>  <energy_score>  (1664) 
-45.248508

>  <inchikey>  (1664) 
UASTZKAZOIYVOI-UHFFFAOYSA-N

>  <smiles>  (1664) 
Cn1cc2ccc(C(O)NCc3ccc(-c4ccnn4C)cc3)cc2n1

>  <ref_pdb>  (1664) 
A0514b

>  <alias>  (1664) 
UASTZKAZOIYVOI-UHFFFAOYSA-N-P76-P9-P76-601504

>  <HIPPO Pose ID>  (1664) 
507533

>  <name>  (1664) 
UASTZKAZOIYVOI-UHFFFAOYSA-N-P76-P9-P76-601504

>  <HIPPO Compound ID>  (1664) 
289730

>  <ref_mols>  (1664) 
A0486a,A0717a

>  <distance_score>  (1664) 
1.77571

>  <inspiration_score>  (1664) 
None

$$$$
ZTERLLUTVOVPKY-UHFFFAOYSA-N-P76-P9-P76-601504
     RDKit          3D

 27 30  0  0  0  0  0  0  0  0999 V2000
   22.8699   13.3791    1.4779 C   0  0  0  0  0  0  0  0  0  0  0  0
   22.2753   14.0161    2.7173 C   0  0  0  0  0  0  0  0  0  0  0  0
   20.9395   14.5338    2.4891 N   0  0  0  0  0  0  0  0  0  0  0  0
   19.7926   14.0966    3.0770 C   0  0  0  0  0  0  0  0  0  0  0  0
   18.8490   15.0154    2.7282 C   0  0  0  0  0  0  0  0  0  0  0  0
   17.5598   15.0314    3.2101 C   0  0  0  0  0  0  0  0  0  0  0  0
   16.8807   16.1568    2.7225 C   0  0  0  0  0  0  0  0  0  0  0  0
   17.4096   17.1352    1.7949 C   0  0  0  0  0  0  0  0  0  0  0  0
   16.4171   18.2244    1.3474 C   0  0  1  0  0  0  0  0  0  0  0  0
   16.8107   18.8421    0.1438 O   0  0  0  0  0  0  0  0  0  0  0  0
   15.1107   17.6310    1.1368 N   0  0  0  0  0  0  0  0  0  0  0  0
   13.9711   18.5327    1.2177 C   0  0  0  0  0  0  0  0  0  0  0  0
   12.6958   17.7233    1.4160 C   0  0  0  0  0  0  0  0  0  0  0  0
   12.0067   17.7201    2.6410 C   0  0  0  0  0  0  0  0  0  0  0  0
   10.9087   16.8638    2.8613 C   0  0  0  0  0  0  0  0  0  0  0  0
   10.4898   15.9699    1.8681 C   0  0  0  0  0  0  0  0  0  0  0  0
    9.5189   14.8962    2.1273 C   0  0  0  0  0  0  0  0  0  0  0  0
    8.5711   14.7569    3.1774 C   0  0  0  0  0  0  0  0  0  0  0  0
    8.0407   13.4951    3.0362 C   0  0  0  0  0  0  0  0  0  0  0  0
    8.6581   12.9543    1.9537 N   0  0  0  0  0  0  0  0  0  0  0  0
    8.4957   11.6158    1.4415 C   0  0  0  0  0  0  0  0  0  0  0  0
    9.5170   13.7932    1.3578 N   0  0  0  0  0  0  0  0  0  0  0  0
   11.1432   16.0248    0.6238 C   0  0  0  0  0  0  0  0  0  0  0  0
   12.2222   16.8897    0.3965 C   0  0  0  0  0  0  0  0  0  0  0  0
   18.7614   17.0692    1.3577 C   0  0  0  0  0  0  0  0  0  0  0  0
   19.4777   15.9674    1.8689 C   0  0  0  0  0  0  0  0  0  0  0  0
   20.7681   15.6262    1.7173 N   0  0  0  0  0  0  0  0  0  0  0  0
  1  2  1  0
  2  3  1  0
  3  4  1  0
  4  5  2  0
  5  6  1  0
  6  7  2  0
  7  8  1  0
  8  9  1  0
  9 10  1  6
  9 11  1  0
 11 12  1  0
 12 13  1  0
 13 14  2  0
 14 15  1  0
 15 16  2  0
 16 17  1  0
 17 18  1  0
 18 19  2  0
 19 20  1  0
 20 21  1  0
 20 22  1  0
 16 23  1  0
 23 24  2  0
  8 25  2  0
 25 26  1  0
 26 27  2  0
 27  3  1  0
 26  5  1  0
 24 13  1  0
 22 17  2  0
M  END
>  <energy_score>  (1665) 
-38.876148

>  <inchikey>  (1665) 
ZTERLLUTVOVPKY-UHFFFAOYSA-N

>  <smiles>  (1665) 
CCn1cc2ccc(C(O)NCc3ccc(-c4ccn(C)n4)cc3)cc2n1

>  <ref_pdb>  (1665) 
A0514b

>  <alias>  (1665) 
ZTERLLUTVOVPKY-UHFFFAOYSA-N-P76-P9-P76-601504

>  <HIPPO Pose ID>  (1665) 
507535

>  <name>  (1665) 
ZTERLLUTVOVPKY-UHFFFAOYSA-N-P76-P9-P76-601504

>  <HIPPO Compound ID>  (1665) 
289731

>  <ref_mols>  (1665) 
A0486a,A0717a

>  <distance_score>  (1665) 
1.762835

>  <inspiration_score>  (1665) 
None

$$$$
AVXNAUFQWXBNEI-UHFFFAOYSA-N-P76-P9-P76-601504
     RDKit          3D

 27 30  0  0  0  0  0  0  0  0999 V2000
   23.0367   13.4404    1.6351 C   0  0  0  0  0  0  0  0  0  0  0  0
   22.2664   14.0192    2.8068 C   0  0  0  0  0  0  0  0  0  0  0  0
   21.0117   14.6405    2.4241 N   0  0  0  0  0  0  0  0  0  0  0  0
   20.0027   14.0866    1.6906 C   0  0  0  0  0  0  0  0  0  0  0  0
   19.0278   15.0430    1.6628 C   0  0  0  0  0  0  0  0  0  0  0  0
   17.8139   14.9285    1.0177 C   0  0  0  0  0  0  0  0  0  0  0  0
   17.0322   16.0736    1.2477 C   0  0  0  0  0  0  0  0  0  0  0  0
   17.4144   17.1978    2.0741 C   0  0  0  0  0  0  0  0  0  0  0  0
   16.3444   18.2587    2.3726 C   0  0  1  0  0  0  0  0  0  0  0  0
   16.2145   19.1160    1.2584 O   0  0  0  0  0  0  0  0  0  0  0  0
   15.0869   17.5847    2.6542 N   0  0  0  0  0  0  0  0  0  0  0  0
   13.8897   18.4156    2.7200 C   0  0  0  0  0  0  0  0  0  0  0  0
   12.6466   17.5363    2.6297 C   0  0  0  0  0  0  0  0  0  0  0  0
   12.5839   16.5220    1.6653 C   0  0  0  0  0  0  0  0  0  0  0  0
   11.4675   15.6895    1.5653 C   0  0  0  0  0  0  0  0  0  0  0  0
   10.3457   15.8653    2.3900 C   0  0  0  0  0  0  0  0  0  0  0  0
    9.2493   14.8933    2.3213 C   0  0  0  0  0  0  0  0  0  0  0  0
    8.5624   14.2361    3.3305 C   0  0  0  0  0  0  0  0  0  0  0  0
    7.8730   13.1883    2.6956 C   0  0  0  0  0  0  0  0  0  0  0  0
    8.0077   13.2327    1.3714 N   0  0  0  0  0  0  0  0  0  0  0  0
    8.7558   14.3309    1.1619 N   0  0  0  0  0  0  0  0  0  0  0  0
    8.9252   14.7816   -0.2010 C   0  0  0  0  0  0  0  0  0  0  0  0
   10.3901   16.8950    3.3369 C   0  0  0  0  0  0  0  0  0  0  0  0
   11.5272   17.7228    3.4548 C   0  0  0  0  0  0  0  0  0  0  0  0
   18.7072   17.2920    2.6438 C   0  0  0  0  0  0  0  0  0  0  0  0
   19.5010   16.1540    2.4253 C   0  0  0  0  0  0  0  0  0  0  0  0
   20.7425   15.8915    2.8451 N   0  0  0  0  0  0  0  0  0  0  0  0
  1  2  1  0
  2  3  1  0
  3  4  1  0
  4  5  2  0
  5  6  1  0
  6  7  2  0
  7  8  1  0
  8  9  1  0
  9 10  1  6
  9 11  1  0
 11 12  1  0
 12 13  1  0
 13 14  2  0
 14 15  1  0
 15 16  2  0
 16 17  1  0
 17 18  2  0
 18 19  1  0
 19 20  2  0
 20 21  1  0
 21 22  1  0
 16 23  1  0
 23 24  2  0
  8 25  2  0
 25 26  1  0
 26 27  2  0
 27  3  1  0
 26  5  1  0
 24 13  1  0
 21 17  1  0
M  END
>  <energy_score>  (1666) 
-33.321518

>  <inchikey>  (1666) 
AVXNAUFQWXBNEI-UHFFFAOYSA-N

>  <smiles>  (1666) 
CCn1cc2ccc(C(O)NCc3ccc(-c4ccnn4C)cc3)cc2n1

>  <ref_pdb>  (1666) 
A0514b

>  <alias>  (1666) 
AVXNAUFQWXBNEI-UHFFFAOYSA-N-P76-P9-P76-601504

>  <HIPPO Pose ID>  (1666) 
507537

>  <name>  (1666) 
AVXNAUFQWXBNEI-UHFFFAOYSA-N-P76-P9-P76-601504

>  <HIPPO Compound ID>  (1666) 
289732

>  <ref_mols>  (1666) 
A0486a,A0717a

>  <distance_score>  (1666) 
1.674479

>  <inspiration_score>  (1666) 
None

$$$$
LDPZOZJNFOIANG-UHFFFAOYSA-N-P76-P9-P76-601504
     RDKit          3D

 27 30  0  0  0  0  0  0  0  0999 V2000
    9.0501   14.4528   -0.3451 C   0  0  0  0  0  0  0  0  0  0  0  0
    8.7968   14.0348    1.0150 N   0  0  0  0  0  0  0  0  0  0  0  0
    8.0192   12.9547    1.2075 N   0  0  0  0  0  0  0  0  0  0  0  0
    7.8395   12.9214    2.5271 C   0  0  0  0  0  0  0  0  0  0  0  0
    8.5210   13.9628    3.1782 C   0  0  0  0  0  0  0  0  0  0  0  0
    9.2397   14.6103    2.1857 C   0  0  0  0  0  0  0  0  0  0  0  0
   10.3122   15.5994    2.2860 C   0  0  0  0  0  0  0  0  0  0  0  0
   10.2472   16.6691    3.1791 C   0  0  0  0  0  0  0  0  0  0  0  0
   11.3421   17.5344    3.3281 C   0  0  0  0  0  0  0  0  0  0  0  0
   12.5272   17.3536    2.5897 C   0  0  0  0  0  0  0  0  0  0  0  0
   13.6413   18.3708    2.7188 C   0  0  0  0  0  0  0  0  0  0  0  0
   14.9709   17.9708    2.2276 N   0  0  0  0  0  0  0  0  0  0  0  0
   15.7040   17.1227    3.1541 C   0  0  2  0  0  0  0  0  0  0  0  0
   15.8407   17.7981    4.3929 O   0  0  0  0  0  0  0  0  0  0  0  0
   17.1111   16.7344    2.6587 C   0  0  0  0  0  0  0  0  0  0  0  0
   17.9414   17.6901    1.9826 C   0  0  0  0  0  0  0  0  0  0  0  0
   19.2710   17.4468    1.5963 C   0  0  0  0  0  0  0  0  0  0  0  0
   19.7040   16.1826    1.9812 C   0  0  0  0  0  0  0  0  0  0  0  0
   20.9737   15.6933    1.8688 C   0  0  0  0  0  0  0  0  0  0  0  0
   22.4872   16.5441    1.0868 Br  0  0  0  0  0  0  0  0  0  0  0  0
   20.9452   14.4829    2.5038 N   0  0  0  0  0  0  0  0  0  0  0  0
   22.0914   13.6802    2.8582 C   0  0  0  0  0  0  0  0  0  0  0  0
   19.6993   14.0940    2.8882 N   0  0  0  0  0  0  0  0  0  0  0  0
   18.9315   15.1721    2.6481 C   0  0  0  0  0  0  0  0  0  0  0  0
   17.5951   15.4308    2.9892 C   0  0  0  0  0  0  0  0  0  0  0  0
   12.5827   16.2907    1.6868 C   0  0  0  0  0  0  0  0  0  0  0  0
   11.4996   15.4163    1.5547 C   0  0  0  0  0  0  0  0  0  0  0  0
  1  2  1  0
  2  3  1  0
  3  4  2  0
  4  5  1  0
  5  6  2  0
  6  7  1  0
  7  8  2  0
  8  9  1  0
  9 10  2  0
 10 11  1  0
 11 12  1  0
 12 13  1  0
 13 14  1  1
 13 15  1  0
 15 16  1  0
 16 17  2  0
 17 18  1  0
 18 19  2  0
 19 20  1  0
 19 21  1  0
 21 22  1  0
 21 23  1  0
 23 24  2  0
 24 25  1  0
 10 26  1  0
 26 27  2  0
  6  2  1  0
 27  7  1  0
 25 15  2  0
 24 18  1  0
M  END
>  <energy_score>  (1667) 
-38.923053

>  <inchikey>  (1667) 
LDPZOZJNFOIANG-UHFFFAOYSA-N

>  <smiles>  (1667) 
Cn1nccc1-c1ccc(CNC(O)c2ccc3c(Br)n(C)nc3c2)cc1

>  <ref_pdb>  (1667) 
A0514b

>  <alias>  (1667) 
LDPZOZJNFOIANG-UHFFFAOYSA-N-P76-P9-P76-601504

>  <HIPPO Pose ID>  (1667) 
507543

>  <name>  (1667) 
LDPZOZJNFOIANG-UHFFFAOYSA-N-P76-P9-P76-601504

>  <HIPPO Compound ID>  (1667) 
289735

>  <ref_mols>  (1667) 
A0486a,A0717a

>  <distance_score>  (1667) 
1.625899

>  <inspiration_score>  (1667) 
None

$$$$
MSXZCYOWISKQMY-UHFFFAOYSA-N-P76-P9-P76-601504
     RDKit          3D

 27 30  0  0  0  0  0  0  0  0999 V2000
   11.0181   13.5313    0.3060 C   0  0  0  0  0  0  0  0  0  0  0  0
   10.0621   14.0713    1.2482 N   0  0  0  0  0  0  0  0  0  0  0  0
    9.0315   13.2809    1.5956 N   0  0  0  0  0  0  0  0  0  0  0  0
    8.4373   13.9380    2.5862 C   0  0  0  0  0  0  0  0  0  0  0  0
    9.0524   15.1783    2.8356 C   0  0  0  0  0  0  0  0  0  0  0  0
   10.1082   15.2732    1.9384 C   0  0  0  0  0  0  0  0  0  0  0  0
   11.1511   16.3070    1.7701 C   0  0  0  0  0  0  0  0  0  0  0  0
   11.6752   16.6274    0.5059 C   0  0  0  0  0  0  0  0  0  0  0  0
   12.8023   17.4611    0.3519 C   0  0  0  0  0  0  0  0  0  0  0  0
   13.4461   18.0185    1.4622 C   0  0  0  0  0  0  0  0  0  0  0  0
   14.7101   18.8719    1.3227 C   0  0  0  0  0  0  0  0  0  0  0  0
   15.7407   18.2618    0.4704 N   0  0  0  0  0  0  0  0  0  0  0  0
   17.1333   18.3925    0.9233 C   0  0  2  0  0  0  0  0  0  0  0  0
   17.8433   18.5280   -0.2823 O   0  0  0  0  0  0  0  0  0  0  0  0
   17.6605   17.1859    1.7207 C   0  0  0  0  0  0  0  0  0  0  0  0
   16.7164   16.5332    2.5317 C   0  0  0  0  0  0  0  0  0  0  0  0
   16.9587   15.3201    3.1510 C   0  0  0  0  0  0  0  0  0  0  0  0
   18.2082   14.7371    2.9918 C   0  0  0  0  0  0  0  0  0  0  0  0
   18.7453   13.5120    3.3943 C   0  0  0  0  0  0  0  0  0  0  0  0
   20.0193   13.3903    3.0578 N   0  0  0  0  0  0  0  0  0  0  0  0
   20.3242   14.5757    2.4838 N   0  0  0  0  0  0  0  0  0  0  0  0
   21.7095   14.8022    2.1442 C   0  0  0  0  0  0  0  0  0  0  0  0
   19.2329   15.4155    2.3291 C   0  0  0  0  0  0  0  0  0  0  0  0
   18.9922   16.6711    1.7049 C   0  0  0  0  0  0  0  0  0  0  0  0
   20.2962   17.5196    0.9665 Cl  0  0  0  0  0  0  0  0  0  0  0  0
   12.8565   17.7942    2.7183 C   0  0  0  0  0  0  0  0  0  0  0  0
   11.7259   16.9598    2.8681 C   0  0  0  0  0  0  0  0  0  0  0  0
  1  2  1  0
  2  3  1  0
  3  4  2  0
  4  5  1  0
  5  6  2  0
  6  7  1  0
  7  8  2  0
  8  9  1  0
  9 10  2  0
 10 11  1  0
 11 12  1  0
 12 13  1  0
 13 14  1  6
 13 15  1  0
 15 16  2  0
 16 17  1  0
 17 18  2  0
 18 19  1  0
 19 20  2  0
 20 21  1  0
 21 22  1  0
 21 23  1  0
 23 24  2  0
 24 25  1  0
 10 26  1  0
 26 27  2  0
  6  2  1  0
 27  7  1  0
 24 15  1  0
 23 18  1  0
M  END
>  <energy_score>  (1668) 
-37.351227

>  <inchikey>  (1668) 
MSXZCYOWISKQMY-UHFFFAOYSA-N

>  <smiles>  (1668) 
Cn1nccc1-c1ccc(CNC(O)c2ccc3cnn(C)c3c2Cl)cc1

>  <ref_pdb>  (1668) 
A0514b

>  <alias>  (1668) 
MSXZCYOWISKQMY-UHFFFAOYSA-N-P76-P9-P76-601504

>  <HIPPO Pose ID>  (1668) 
507547

>  <name>  (1668) 
MSXZCYOWISKQMY-UHFFFAOYSA-N-P76-P9-P76-601504

>  <HIPPO Compound ID>  (1668) 
289737

>  <ref_mols>  (1668) 
A0486a,A0717a

>  <distance_score>  (1668) 
1.826795

>  <inspiration_score>  (1668) 
None

$$$$
UFBJMASQKWZVJO-UHFFFAOYSA-N-P76-P9-P76-601504
     RDKit          3D

 27 30  0  0  0  0  0  0  0  0999 V2000
    8.7023   11.8765    1.3551 C   0  0  0  0  0  0  0  0  0  0  0  0
    8.9711   13.2167    1.8172 N   0  0  0  0  0  0  0  0  0  0  0  0
    8.3196   13.8872    2.8029 C   0  0  0  0  0  0  0  0  0  0  0  0
    8.9651   15.0971    2.9219 C   0  0  0  0  0  0  0  0  0  0  0  0
   10.0186   15.0716    1.9658 C   0  0  0  0  0  0  0  0  0  0  0  0
   11.0991   16.0443    1.7154 C   0  0  0  0  0  0  0  0  0  0  0  0
   11.8523   15.9637    0.5280 C   0  0  0  0  0  0  0  0  0  0  0  0
   12.9703   16.7868    0.2895 C   0  0  0  0  0  0  0  0  0  0  0  0
   13.4032   17.7096    1.2476 C   0  0  0  0  0  0  0  0  0  0  0  0
   14.6253   18.6070    1.0263 C   0  0  0  0  0  0  0  0  0  0  0  0
   15.7431   17.9569    0.3230 N   0  0  0  0  0  0  0  0  0  0  0  0
   17.0927   18.2818    0.8121 C   0  0  2  0  0  0  0  0  0  0  0  0
   17.8309   18.4774   -0.3644 O   0  0  0  0  0  0  0  0  0  0  0  0
   17.6865   17.1702    1.6959 C   0  0  0  0  0  0  0  0  0  0  0  0
   16.7963   16.6662    2.6623 C   0  0  0  0  0  0  0  0  0  0  0  0
   17.0140   15.4750    3.3311 C   0  0  0  0  0  0  0  0  0  0  0  0
   18.1959   14.7876    3.0836 C   0  0  0  0  0  0  0  0  0  0  0  0
   18.6797   13.5366    3.4800 C   0  0  0  0  0  0  0  0  0  0  0  0
   19.9152   13.3204    3.0556 N   0  0  0  0  0  0  0  0  0  0  0  0
   20.2577   14.4773    2.4455 N   0  0  0  0  0  0  0  0  0  0  0  0
   21.6455   14.6447    2.0819 C   0  0  0  0  0  0  0  0  0  0  0  0
   19.2013   15.3616    2.3035 C   0  0  0  0  0  0  0  0  0  0  0  0
   18.9794   16.5775    1.6022 C   0  0  0  0  0  0  0  0  0  0  0  0
   20.2485   17.2512    0.6551 Cl  0  0  0  0  0  0  0  0  0  0  0  0
   12.6244   17.8280    2.4165 C   0  0  0  0  0  0  0  0  0  0  0  0
   11.4913   17.0113    2.6480 C   0  0  0  0  0  0  0  0  0  0  0  0
    9.9845   13.9147    1.2812 N   0  0  0  0  0  0  0  0  0  0  0  0
  1  2  1  0
  2  3  1  0
  3  4  2  0
  4  5  1  0
  5  6  1  0
  6  7  2  0
  7  8  1  0
  8  9  2  0
  9 10  1  0
 10 11  1  0
 11 12  1  0
 12 13  1  6
 12 14  1  0
 14 15  2  0
 15 16  1  0
 16 17  2  0
 17 18  1  0
 18 19  2  0
 19 20  1  0
 20 21  1  0
 20 22  1  0
 22 23  2  0
 23 24  1  0
  9 25  1  0
 25 26  2  0
  5 27  2  0
 27  2  1  0
 26  6  1  0
 23 14  1  0
 22 17  1  0
M  END
>  <energy_score>  (1669) 
-30.158533

>  <inchikey>  (1669) 
UFBJMASQKWZVJO-UHFFFAOYSA-N

>  <smiles>  (1669) 
Cn1ccc(-c2ccc(CNC(O)c3ccc4cnn(C)c4c3Cl)cc2)n1

>  <ref_pdb>  (1669) 
A0514b

>  <alias>  (1669) 
UFBJMASQKWZVJO-UHFFFAOYSA-N-P76-P9-P76-601504

>  <HIPPO Pose ID>  (1669) 
507549

>  <name>  (1669) 
UFBJMASQKWZVJO-UHFFFAOYSA-N-P76-P9-P76-601504

>  <HIPPO Compound ID>  (1669) 
289738

>  <ref_mols>  (1669) 
A0486a,A0717a

>  <distance_score>  (1669) 
1.810075

>  <inspiration_score>  (1669) 
None

$$$$
YRCHILFIYQZGLZ-UHFFFAOYSA-N-P76-P9-P76-601504
     RDKit          3D

 27 30  0  0  0  0  0  0  0  0999 V2000
    8.8105   12.3032    1.0535 C   0  0  0  0  0  0  0  0  0  0  0  0
    9.0128   13.5323    1.7815 N   0  0  0  0  0  0  0  0  0  0  0  0
    8.2788   13.9902    2.8286 C   0  0  0  0  0  0  0  0  0  0  0  0
    8.8709   15.1721    3.2126 C   0  0  0  0  0  0  0  0  0  0  0  0
    9.9851   15.3494    2.3455 C   0  0  0  0  0  0  0  0  0  0  0  0
   11.0637   16.3598    2.3783 C   0  0  0  0  0  0  0  0  0  0  0  0
   11.9119   16.5018    1.2669 C   0  0  0  0  0  0  0  0  0  0  0  0
   13.0510   17.3252    1.3017 C   0  0  0  0  0  0  0  0  0  0  0  0
   13.4073   18.0300    2.4608 C   0  0  0  0  0  0  0  0  0  0  0  0
   14.6657   18.8987    2.4725 C   0  0  0  0  0  0  0  0  0  0  0  0
   15.7354   18.4001    3.3527 N   0  0  0  0  0  0  0  0  0  0  0  0
   17.0925   18.5350    2.7917 C   0  0  1  0  0  0  0  0  0  0  0  0
   17.8888   18.9861    3.8643 O   0  0  0  0  0  0  0  0  0  0  0  0
   17.6695   17.2086    2.2811 C   0  0  0  0  0  0  0  0  0  0  0  0
   16.8024   16.3752    1.5609 C   0  0  0  0  0  0  0  0  0  0  0  0
   17.0861   15.0336    1.3691 C   0  0  0  0  0  0  0  0  0  0  0  0
   16.1631   14.1928    0.8037 O   0  0  0  0  0  0  0  0  0  0  0  0
   18.3031   14.5270    1.8182 C   0  0  0  0  0  0  0  0  0  0  0  0
   18.8594   13.2440    1.8988 C   0  0  0  0  0  0  0  0  0  0  0  0
   20.0948   13.2620    2.3842 N   0  0  0  0  0  0  0  0  0  0  0  0
   20.3736   14.5755    2.5025 N   0  0  0  0  0  0  0  0  0  0  0  0
   21.7610   14.9421    2.6497 C   0  0  0  0  0  0  0  0  0  0  0  0
   19.2708   15.3882    2.3350 C   0  0  0  0  0  0  0  0  0  0  0  0
   18.9858   16.7527    2.5672 C   0  0  0  0  0  0  0  0  0  0  0  0
   12.5454   17.9244    3.5642 C   0  0  0  0  0  0  0  0  0  0  0  0
   11.3838   17.1123    3.5199 C   0  0  0  0  0  0  0  0  0  0  0  0
   10.0398   14.3370    1.4592 N   0  0  0  0  0  0  0  0  0  0  0  0
  1  2  1  0
  2  3  1  0
  3  4  2  0
  4  5  1  0
  5  6  1  0
  6  7  2  0
  7  8  1  0
  8  9  2  0
  9 10  1  0
 10 11  1  0
 11 12  1  0
 12 13  1  1
 12 14  1  0
 14 15  2  0
 15 16  1  0
 16 17  1  0
 16 18  2  0
 18 19  1  0
 19 20  2  0
 20 21  1  0
 21 22  1  0
 21 23  1  0
 23 24  2  0
  9 25  1  0
 25 26  2  0
  5 27  2  0
 27  2  1  0
 26  6  1  0
 24 14  1  0
 23 18  1  0
M  END
>  <energy_score>  (1670) 
-28.007825

>  <inchikey>  (1670) 
YRCHILFIYQZGLZ-UHFFFAOYSA-N

>  <smiles>  (1670) 
Cn1ccc(-c2ccc(CNC(O)c3cc(O)c4cnn(C)c4c3)cc2)n1

>  <ref_pdb>  (1670) 
A0514b

>  <alias>  (1670) 
YRCHILFIYQZGLZ-UHFFFAOYSA-N-P76-P9-P76-601504

>  <HIPPO Pose ID>  (1670) 
507551

>  <name>  (1670) 
YRCHILFIYQZGLZ-UHFFFAOYSA-N-P76-P9-P76-601504

>  <HIPPO Compound ID>  (1670) 
289739

>  <ref_mols>  (1670) 
A0486a,A0717a

>  <distance_score>  (1670) 
1.780366

>  <inspiration_score>  (1670) 
None

$$$$
GHIAWPWOHGJZFC-UHFFFAOYSA-N-P76-P9-P76-601504
     RDKit          3D

 27 30  0  0  0  0  0  0  0  0999 V2000
   22.5230   14.0089    1.6516 C   0  0  0  0  0  0  0  0  0  0  0  0
   21.6957   14.5284    2.8189 C   0  0  0  0  0  0  0  0  0  0  0  0
   20.2687   14.3565    2.6140 N   0  0  0  0  0  0  0  0  0  0  0  0
   19.7875   13.0930    2.5912 N   0  0  0  0  0  0  0  0  0  0  0  0
   18.6991   13.1999    1.8365 C   0  0  0  0  0  0  0  0  0  0  0  0
   18.3727   14.5390    1.5744 C   0  0  0  0  0  0  0  0  0  0  0  0
   17.3805   15.1780    0.8328 C   0  0  0  0  0  0  0  0  0  0  0  0
   17.2150   16.5473    0.9884 C   0  0  0  0  0  0  0  0  0  0  0  0
   17.9502   17.2610    1.9405 C   0  0  0  0  0  0  0  0  0  0  0  0
   17.3897   18.5934    2.4349 C   0  0  1  0  0  0  0  0  0  0  0  0
   17.8488   19.6018    1.5668 O   0  0  0  0  0  0  0  0  0  0  0  0
   15.9216   18.7045    2.4611 N   0  0  0  0  0  0  0  0  0  0  0  0
   15.2654   17.8364    3.4465 C   0  0  0  0  0  0  0  0  0  0  0  0
   13.8916   17.3112    3.0212 C   0  0  0  0  0  0  0  0  0  0  0  0
   12.6839   17.8375    3.5118 C   0  0  0  0  0  0  0  0  0  0  0  0
   11.4323   17.2307    3.2182 C   0  0  0  0  0  0  0  0  0  0  0  0
   11.3506   16.0892    2.4088 C   0  0  0  0  0  0  0  0  0  0  0  0
   10.1272   15.2735    2.2404 C   0  0  0  0  0  0  0  0  0  0  0  0
    8.9390   15.2501    3.0255 C   0  0  0  0  0  0  0  0  0  0  0  0
    8.2251   14.1543    2.5947 C   0  0  0  0  0  0  0  0  0  0  0  0
    8.9606   13.6064    1.5922 N   0  0  0  0  0  0  0  0  0  0  0  0
    8.6553   12.4130    0.8413 C   0  0  0  0  0  0  0  0  0  0  0  0
   10.0944   14.2759    1.3385 N   0  0  0  0  0  0  0  0  0  0  0  0
   12.5592   15.6132    1.8677 C   0  0  0  0  0  0  0  0  0  0  0  0
   13.7983   16.2003    2.1758 C   0  0  0  0  0  0  0  0  0  0  0  0
   19.1330   16.6814    2.4729 C   0  0  0  0  0  0  0  0  0  0  0  0
   19.3111   15.2941    2.2772 C   0  0  0  0  0  0  0  0  0  0  0  0
  1  2  1  0
  2  3  1  0
  3  4  1  0
  4  5  2  0
  5  6  1  0
  6  7  2  0
  7  8  1  0
  8  9  2  0
  9 10  1  0
 10 11  1  6
 10 12  1  0
 12 13  1  0
 13 14  1  0
 14 15  2  0
 15 16  1  0
 16 17  2  0
 17 18  1  0
 18 19  1  0
 19 20  2  0
 20 21  1  0
 21 22  1  0
 21 23  1  0
 17 24  1  0
 24 25  2  0
  9 26  1  0
 26 27  2  0
 27  3  1  0
 27  6  1  0
 25 14  1  0
 23 18  2  0
M  END
>  <energy_score>  (1671) 
-16.793313

>  <inchikey>  (1671) 
GHIAWPWOHGJZFC-UHFFFAOYSA-N

>  <smiles>  (1671) 
CCn1ncc2ccc(C(O)NCc3ccc(-c4ccn(C)n4)cc3)cc21

>  <ref_pdb>  (1671) 
A0514b

>  <alias>  (1671) 
GHIAWPWOHGJZFC-UHFFFAOYSA-N-P76-P9-P76-601504

>  <HIPPO Pose ID>  (1671) 
507555

>  <name>  (1671) 
GHIAWPWOHGJZFC-UHFFFAOYSA-N-P76-P9-P76-601504

>  <HIPPO Compound ID>  (1671) 
289741

>  <ref_mols>  (1671) 
A0486a,A0717a

>  <distance_score>  (1671) 
1.731785

>  <inspiration_score>  (1671) 
None

$$$$
BZJNWWWWZLRWBF-UHFFFAOYSA-N-P76-P9-P76-601504
     RDKit          3D

 27 30  0  0  0  0  0  0  0  0999 V2000
   22.5954   13.6099    1.8621 C   0  0  0  0  0  0  0  0  0  0  0  0
   21.6611   14.8066    1.9496 C   0  0  0  0  0  0  0  0  0  0  0  0
   20.2986   14.5262    2.3629 N   0  0  0  0  0  0  0  0  0  0  0  0
   20.0155   13.3670    2.9980 N   0  0  0  0  0  0  0  0  0  0  0  0
   18.7935   13.5580    3.4788 C   0  0  0  0  0  0  0  0  0  0  0  0
   18.2600   14.7970    3.1088 C   0  0  0  0  0  0  0  0  0  0  0  0
   17.0816   15.4722    3.4099 C   0  0  0  0  0  0  0  0  0  0  0  0
   16.8226   16.6667    2.7566 C   0  0  0  0  0  0  0  0  0  0  0  0
   17.6638   17.1716    1.7572 C   0  0  0  0  0  0  0  0  0  0  0  0
   17.0870   18.2821    0.8698 C   0  0  1  0  0  0  0  0  0  0  0  0
   17.8901   18.4195   -0.2861 O   0  0  0  0  0  0  0  0  0  0  0  0
   15.7537   17.9490    0.3611 N   0  0  0  0  0  0  0  0  0  0  0  0
   14.6326   18.5339    1.1219 C   0  0  0  0  0  0  0  0  0  0  0  0
   13.4267   17.6063    1.2902 C   0  0  0  0  0  0  0  0  0  0  0  0
   12.1570   18.1365    1.5949 C   0  0  0  0  0  0  0  0  0  0  0  0
   11.0326   17.3064    1.8126 C   0  0  0  0  0  0  0  0  0  0  0  0
   11.1443   15.9174    1.7344 C   0  0  0  0  0  0  0  0  0  0  0  0
    9.9961   15.0150    1.8850 C   0  0  0  0  0  0  0  0  0  0  0  0
    9.0764   14.8535    2.9085 C   0  0  0  0  0  0  0  0  0  0  0  0
    8.3403   13.7002    2.5759 C   0  0  0  0  0  0  0  0  0  0  0  0
    8.6873   13.2112    1.3872 N   0  0  0  0  0  0  0  0  0  0  0  0
    9.6464   14.0511    0.9604 N   0  0  0  0  0  0  0  0  0  0  0  0
   10.1840   13.8533   -0.3671 C   0  0  0  0  0  0  0  0  0  0  0  0
   12.4190   15.3864    1.4689 C   0  0  0  0  0  0  0  0  0  0  0  0
   13.5361   16.2117    1.2470 C   0  0  0  0  0  0  0  0  0  0  0  0
   18.9484   16.5874    1.5901 C   0  0  0  0  0  0  0  0  0  0  0  0
   19.2140   15.3827    2.2810 C   0  0  0  0  0  0  0  0  0  0  0  0
  1  2  1  0
  2  3  1  0
  3  4  1  0
  4  5  2  0
  5  6  1  0
  6  7  2  0
  7  8  1  0
  8  9  2  0
  9 10  1  0
 10 11  1  6
 10 12  1  0
 12 13  1  0
 13 14  1  0
 14 15  2  0
 15 16  1  0
 16 17  2  0
 17 18  1  0
 18 19  2  0
 19 20  1  0
 20 21  2  0
 21 22  1  0
 22 23  1  0
 17 24  1  0
 24 25  2  0
  9 26  1  0
 26 27  2  0
 27  3  1  0
 27  6  1  0
 25 14  1  0
 22 18  1  0
M  END
>  <energy_score>  (1672) 
-37.731091

>  <inchikey>  (1672) 
BZJNWWWWZLRWBF-UHFFFAOYSA-N

>  <smiles>  (1672) 
CCn1ncc2ccc(C(O)NCc3ccc(-c4ccnn4C)cc3)cc21

>  <ref_pdb>  (1672) 
A0514b

>  <alias>  (1672) 
BZJNWWWWZLRWBF-UHFFFAOYSA-N-P76-P9-P76-601504

>  <HIPPO Pose ID>  (1672) 
507557

>  <name>  (1672) 
BZJNWWWWZLRWBF-UHFFFAOYSA-N-P76-P9-P76-601504

>  <HIPPO Compound ID>  (1672) 
289742

>  <ref_mols>  (1672) 
A0486a,A0717a

>  <distance_score>  (1672) 
1.769367

>  <inspiration_score>  (1672) 
None

$$$$
QAXMGIZYEFQQAT-UHFFFAOYSA-N-P76-P9-P76-601504
     RDKit          3D

 27 30  0  0  0  0  0  0  0  0999 V2000
   18.1015   11.9890    1.3849 C   0  0  0  0  0  0  0  0  0  0  0  0
   18.7423   13.2508    1.8333 C   0  0  0  0  0  0  0  0  0  0  0  0
   19.9977   13.2562    2.2776 N   0  0  0  0  0  0  0  0  0  0  0  0
   20.2789   14.5620    2.4638 N   0  0  0  0  0  0  0  0  0  0  0  0
   21.6686   14.9125    2.6295 C   0  0  0  0  0  0  0  0  0  0  0  0
   19.1755   15.3854    2.3718 C   0  0  0  0  0  0  0  0  0  0  0  0
   18.9049   16.7459    2.6630 C   0  0  0  0  0  0  0  0  0  0  0  0
   17.5714   17.2112    2.4814 C   0  0  0  0  0  0  0  0  0  0  0  0
   17.0340   18.5367    3.0391 C   0  0  2  0  0  0  0  0  0  0  0  0
   17.7955   18.8560    4.1905 O   0  0  0  0  0  0  0  0  0  0  0  0
   15.6493   18.4627    3.5397 N   0  0  0  0  0  0  0  0  0  0  0  0
   14.6306   18.9348    2.5773 C   0  0  0  0  0  0  0  0  0  0  0  0
   13.3610   18.0818    2.5537 C   0  0  0  0  0  0  0  0  0  0  0  0
   13.0022   17.3951    1.3837 C   0  0  0  0  0  0  0  0  0  0  0  0
   11.8636   16.5712    1.3343 C   0  0  0  0  0  0  0  0  0  0  0  0
   11.0147   16.4111    2.4416 C   0  0  0  0  0  0  0  0  0  0  0  0
    9.9445   15.3912    2.3966 C   0  0  0  0  0  0  0  0  0  0  0  0
    8.8430   15.1823    3.2735 C   0  0  0  0  0  0  0  0  0  0  0  0
    8.2592   14.0019    2.8719 C   0  0  0  0  0  0  0  0  0  0  0  0
    8.9849   13.5755    1.8061 N   0  0  0  0  0  0  0  0  0  0  0  0
    8.7884   12.3604    1.0538 C   0  0  0  0  0  0  0  0  0  0  0  0
    9.9961   14.3996    1.4868 N   0  0  0  0  0  0  0  0  0  0  0  0
   11.3304   17.1519    3.5925 C   0  0  0  0  0  0  0  0  0  0  0  0
   12.4916   17.9659    3.6506 C   0  0  0  0  0  0  0  0  0  0  0  0
   16.6689   16.3916    1.8002 C   0  0  0  0  0  0  0  0  0  0  0  0
   16.9485   15.0697    1.4957 C   0  0  0  0  0  0  0  0  0  0  0  0
   18.1875   14.5462    1.8581 C   0  0  0  0  0  0  0  0  0  0  0  0
  1  2  1  0
  2  3  2  0
  3  4  1  0
  4  5  1  0
  4  6  1  0
  6  7  2  0
  7  8  1  0
  8  9  1  0
  9 10  1  1
  9 11  1  0
 11 12  1  0
 12 13  1  0
 13 14  2  0
 14 15  1  0
 15 16  2  0
 16 17  1  0
 17 18  1  0
 18 19  2  0
 19 20  1  0
 20 21  1  0
 20 22  1  0
 16 23  1  0
 23 24  2  0
  8 25  2  0
 25 26  1  0
 26 27  2  0
 27  2  1  0
 27  6  1  0
 24 13  1  0
 22 17  2  0
M  END
>  <energy_score>  (1673) 
-18.703172

>  <inchikey>  (1673) 
QAXMGIZYEFQQAT-UHFFFAOYSA-N

>  <smiles>  (1673) 
Cc1nn(C)c2cc(C(O)NCc3ccc(-c4ccn(C)n4)cc3)ccc12

>  <ref_pdb>  (1673) 
A0514b

>  <alias>  (1673) 
QAXMGIZYEFQQAT-UHFFFAOYSA-N-P76-P9-P76-601504

>  <HIPPO Pose ID>  (1673) 
507561

>  <name>  (1673) 
QAXMGIZYEFQQAT-UHFFFAOYSA-N-P76-P9-P76-601504

>  <HIPPO Compound ID>  (1673) 
289744

>  <ref_mols>  (1673) 
A0486a,A0717a

>  <distance_score>  (1673) 
1.803907

>  <inspiration_score>  (1673) 
None

$$$$
NPUMLTFYQROYDB-UHFFFAOYSA-N-P76-P9-P76-601504
     RDKit          3D

 27 30  0  0  0  0  0  0  0  0999 V2000
   20.0343   17.8630    3.1636 C   0  0  0  0  0  0  0  0  0  0  0  0
   19.1329   16.8872    2.4602 C   0  0  0  0  0  0  0  0  0  0  0  0
   17.8636   17.3456    1.9677 C   0  0  0  0  0  0  0  0  0  0  0  0
   17.1581   18.6246    2.4544 C   0  0  1  0  0  0  0  0  0  0  0  0
   17.1476   19.6023    1.4403 O   0  0  0  0  0  0  0  0  0  0  0  0
   15.8051   18.3678    2.9982 N   0  0  0  0  0  0  0  0  0  0  0  0
   14.6740   18.6309    2.0967 C   0  0  0  0  0  0  0  0  0  0  0  0
   13.4582   17.7210    2.2884 C   0  0  0  0  0  0  0  0  0  0  0  0
   13.5397   16.3495    2.0219 C   0  0  0  0  0  0  0  0  0  0  0  0
   12.3908   15.5426    2.0033 C   0  0  0  0  0  0  0  0  0  0  0  0
   11.1111   16.0666    2.2575 C   0  0  0  0  0  0  0  0  0  0  0  0
    9.9411   15.1807    2.1787 C   0  0  0  0  0  0  0  0  0  0  0  0
    8.9696   14.8608    3.1141 C   0  0  0  0  0  0  0  0  0  0  0  0
    8.2639   13.7718    2.5682 C   0  0  0  0  0  0  0  0  0  0  0  0
    8.6752   13.4752    1.3369 N   0  0  0  0  0  0  0  0  0  0  0  0
    9.6496   14.3713    1.0983 N   0  0  0  0  0  0  0  0  0  0  0  0
   10.2640   14.3777   -0.2101 C   0  0  0  0  0  0  0  0  0  0  0  0
   11.0288   17.4204    2.5880 C   0  0  0  0  0  0  0  0  0  0  0  0
   12.1851   18.2376    2.5934 C   0  0  0  0  0  0  0  0  0  0  0  0
   17.1289   16.5414    1.0932 C   0  0  0  0  0  0  0  0  0  0  0  0
   17.3736   15.1849    0.9915 C   0  0  0  0  0  0  0  0  0  0  0  0
   18.4444   14.6483    1.7016 C   0  0  0  0  0  0  0  0  0  0  0  0
   18.8519   13.3373    1.9866 C   0  0  0  0  0  0  0  0  0  0  0  0
   19.9903   13.3124    2.6655 N   0  0  0  0  0  0  0  0  0  0  0  0
   20.4052   14.6000    2.6201 N   0  0  0  0  0  0  0  0  0  0  0  0
   21.8351   14.7969    2.6640 C   0  0  0  0  0  0  0  0  0  0  0  0
   19.3827   15.4881    2.3145 C   0  0  0  0  0  0  0  0  0  0  0  0
  1  2  1  0
  2  3  2  0
  3  4  1  0
  4  5  1  6
  4  6  1  0
  6  7  1  0
  7  8  1  0
  8  9  2  0
  9 10  1  0
 10 11  2  0
 11 12  1  0
 12 13  2  0
 13 14  1  0
 14 15  2  0
 15 16  1  0
 16 17  1  0
 11 18  1  0
 18 19  2  0
  3 20  1  0
 20 21  2  0
 21 22  1  0
 22 23  1  0
 23 24  2  0
 24 25  1  0
 25 26  1  0
 25 27  1  0
 27  2  1  0
 19  8  1  0
 27 22  2  0
 16 12  1  0
M  END
>  <energy_score>  (1674) 
-35.703464

>  <inchikey>  (1674) 
NPUMLTFYQROYDB-UHFFFAOYSA-N

>  <smiles>  (1674) 
Cc1c(C(O)NCc2ccc(-c3ccnn3C)cc2)ccc2cnn(C)c12

>  <ref_pdb>  (1674) 
A0514b

>  <alias>  (1674) 
NPUMLTFYQROYDB-UHFFFAOYSA-N-P76-P9-P76-601504

>  <HIPPO Pose ID>  (1674) 
507563

>  <name>  (1674) 
NPUMLTFYQROYDB-UHFFFAOYSA-N-P76-P9-P76-601504

>  <HIPPO Compound ID>  (1674) 
289745

>  <ref_mols>  (1674) 
A0486a,A0717a

>  <distance_score>  (1674) 
1.634641

>  <inspiration_score>  (1674) 
None

$$$$
UYJHDDYHNOTAEK-UHFFFAOYSA-N-P9-P9-P76-601504
     RDKit          3D

 27 30  0  0  0  0  0  0  0  0999 V2000
   16.6243   14.8178    3.3936 C   0  0  0  0  0  0  0  0  0  0  0  0
   17.6109   15.7729    2.7998 C   0  0  0  0  0  0  0  0  0  0  0  0
   17.2911   17.1542    2.5244 C   0  0  0  0  0  0  0  0  0  0  0  0
   16.0072   17.7851    3.0979 C   0  0  1  0  0  0  0  0  0  0  0  0
   16.2134   19.1787    3.2863 O   0  0  0  0  0  0  0  0  0  0  0  0
   14.8441   17.5768    2.2572 N   0  0  0  0  0  0  0  0  0  0  0  0
   13.6873   18.3419    2.7575 C   0  0  0  0  0  0  0  0  0  0  0  0
   12.3783   17.6255    2.5058 C   0  0  0  0  0  0  0  0  0  0  0  0
   12.0404   17.1469    1.2378 C   0  0  0  0  0  0  0  0  0  0  0  0
   10.9086   16.3434    1.0623 C   0  0  0  0  0  0  0  0  0  0  0  0
   10.1069   15.9748    2.1508 C   0  0  0  0  0  0  0  0  0  0  0  0
    9.1837   14.8296    2.0777 C   0  0  0  0  0  0  0  0  0  0  0  0
    8.0712   14.5271    2.8502 C   0  0  0  0  0  0  0  0  0  0  0  0
    7.6617   13.2436    2.4562 C   0  0  0  0  0  0  0  0  0  0  0  0
    8.4260   12.7526    1.4867 N   0  0  0  0  0  0  0  0  0  0  0  0
    9.3848   13.6815    1.3249 N   0  0  0  0  0  0  0  0  0  0  0  0
   10.5107   13.3124    0.4945 C   0  0  0  0  0  0  0  0  0  0  0  0
   10.3319   16.6247    3.3704 C   0  0  0  0  0  0  0  0  0  0  0  0
   11.4686   17.4224    3.5531 C   0  0  0  0  0  0  0  0  0  0  0  0
   18.1772   18.0102    1.7784 C   0  0  0  0  0  0  0  0  0  0  0  0
   19.4599   17.6438    1.3570 C   0  0  0  0  0  0  0  0  0  0  0  0
   19.7711   16.3640    1.7723 C   0  0  0  0  0  0  0  0  0  0  0  0
   21.0144   15.8201    1.6666 C   0  0  0  0  0  0  0  0  0  0  0  0
   20.9206   14.6393    2.3375 N   0  0  0  0  0  0  0  0  0  0  0  0
   22.0566   13.8575    2.7609 C   0  0  0  0  0  0  0  0  0  0  0  0
   19.6564   14.2999    2.6957 N   0  0  0  0  0  0  0  0  0  0  0  0
   18.9354   15.4174    2.4545 C   0  0  0  0  0  0  0  0  0  0  0  0
  1  2  1  0
  2  3  2  0
  3  4  1  0
  4  5  1  6
  4  6  1  0
  6  7  1  0
  7  8  1  0
  8  9  2  0
  9 10  1  0
 10 11  2  0
 11 12  1  0
 12 13  2  0
 13 14  1  0
 14 15  2  0
 15 16  1  0
 16 17  1  0
 11 18  1  0
 18 19  2  0
  3 20  1  0
 20 21  2  0
 21 22  1  0
 22 23  2  0
 23 24  1  0
 24 25  1  0
 24 26  1  0
 26 27  2  0
 27  2  1  0
 19  8  1  0
 27 22  1  0
 16 12  1  0
M  END
>  <energy_score>  (1675) 
-17.90478

>  <inchikey>  (1675) 
UYJHDDYHNOTAEK-UHFFFAOYSA-N

>  <smiles>  (1675) 
Cc1c(C(O)NCc2ccc(-c3ccnn3C)cc2)ccc2cn(C)nc12

>  <ref_pdb>  (1675) 
A0514b

>  <alias>  (1675) 
UYJHDDYHNOTAEK-UHFFFAOYSA-N-P9-P9-P76-601504

>  <HIPPO Pose ID>  (1675) 
507570

>  <name>  (1675) 
UYJHDDYHNOTAEK-UHFFFAOYSA-N-P9-P9-P76-601504

>  <HIPPO Compound ID>  (1675) 
289749

>  <ref_mols>  (1675) 
A0486a,A0717a

>  <distance_score>  (1675) 
1.743608

>  <inspiration_score>  (1675) 
None

$$$$
POQDMVWERIUBTA-UHFFFAOYSA-N-P9-P9-P76-601504
     RDKit          3D

 27 30  0  0  0  0  0  0  0  0999 V2000
   19.3333   18.6753    3.1061 C   0  0  0  0  0  0  0  0  0  0  0  0
   18.7892   17.4766    2.3946 C   0  0  0  0  0  0  0  0  0  0  0  0
   17.4921   17.4530    1.7774 C   0  0  0  0  0  0  0  0  0  0  0  0
   16.5688   18.6774    1.8777 C   0  0  1  0  0  0  0  0  0  0  0  0
   16.9264   19.5533    0.8336 O   0  0  0  0  0  0  0  0  0  0  0  0
   15.1330   18.4654    1.7408 N   0  0  0  0  0  0  0  0  0  0  0  0
   14.5325   17.7704    2.8766 C   0  0  0  0  0  0  0  0  0  0  0  0
   13.1776   17.1630    2.5479 C   0  0  0  0  0  0  0  0  0  0  0  0
   11.9866   17.6214    3.1354 C   0  0  0  0  0  0  0  0  0  0  0  0
   10.7621   16.9486    2.9303 C   0  0  0  0  0  0  0  0  0  0  0  0
   10.7013   15.8057    2.1240 C   0  0  0  0  0  0  0  0  0  0  0  0
    9.5374   14.9053    2.0779 C   0  0  0  0  0  0  0  0  0  0  0  0
    8.4425   14.8055    2.9803 C   0  0  0  0  0  0  0  0  0  0  0  0
    7.7859   13.6456    2.6394 C   0  0  0  0  0  0  0  0  0  0  0  0
    8.4631   13.1356    1.5779 N   0  0  0  0  0  0  0  0  0  0  0  0
    8.1926   11.8969    0.8902 C   0  0  0  0  0  0  0  0  0  0  0  0
    9.4958   13.8968    1.1901 N   0  0  0  0  0  0  0  0  0  0  0  0
   11.8843   15.4016    1.4783 C   0  0  0  0  0  0  0  0  0  0  0  0
   13.1005   16.0573    1.6943 C   0  0  0  0  0  0  0  0  0  0  0  0
   17.0476   16.3007    1.0292 C   0  0  0  0  0  0  0  0  0  0  0  0
   17.7336   15.0759    0.9138 C   0  0  0  0  0  0  0  0  0  0  0  0
   18.9471   15.1392    1.5643 C   0  0  0  0  0  0  0  0  0  0  0  0
   19.8778   14.1376    1.6003 C   0  0  0  0  0  0  0  0  0  0  0  0
   20.9215   14.6641    2.2991 N   0  0  0  0  0  0  0  0  0  0  0  0
   22.1806   14.0302    2.6107 C   0  0  0  0  0  0  0  0  0  0  0  0
   20.7189   15.9301    2.6936 N   0  0  0  0  0  0  0  0  0  0  0  0
   19.4954   16.2585    2.2592 C   0  0  0  0  0  0  0  0  0  0  0  0
  1  2  1  0
  2  3  2  0
  3  4  1  0
  4  5  1  6
  4  6  1  0
  6  7  1  0
  7  8  1  0
  8  9  2  0
  9 10  1  0
 10 11  2  0
 11 12  1  0
 12 13  1  0
 13 14  2  0
 14 15  1  0
 15 16  1  0
 15 17  1  0
 11 18  1  0
 18 19  2  0
  3 20  1  0
 20 21  2  0
 21 22  1  0
 22 23  2  0
 23 24  1  0
 24 25  1  0
 24 26  1  0
 26 27  2  0
 27  2  1  0
 19  8  1  0
 27 22  1  0
 17 12  2  0
M  END
>  <energy_score>  (1676) 
-36.238929

>  <inchikey>  (1676) 
POQDMVWERIUBTA-UHFFFAOYSA-N

>  <smiles>  (1676) 
Cc1c(C(O)NCc2ccc(-c3ccn(C)n3)cc2)ccc2cn(C)nc12

>  <ref_pdb>  (1676) 
A0514b

>  <alias>  (1676) 
POQDMVWERIUBTA-UHFFFAOYSA-N-P9-P9-P76-601504

>  <HIPPO Pose ID>  (1676) 
507572

>  <name>  (1676) 
POQDMVWERIUBTA-UHFFFAOYSA-N-P9-P9-P76-601504

>  <HIPPO Compound ID>  (1676) 
289750

>  <ref_mols>  (1676) 
A0486a,A0717a

>  <distance_score>  (1676) 
1.869411

>  <inspiration_score>  (1676) 
None

$$$$
OVHYTYKUHPUBKR-UHFFFAOYSA-N-P76-P9-P76-601504
     RDKit          3D

 27 30  0  0  0  0  0  0  0  0999 V2000
   17.2965   19.9782   -0.0150 C   0  0  0  0  0  0  0  0  0  0  0  0
   16.8219   18.6406   -0.0641 O   0  0  0  0  0  0  0  0  0  0  0  0
   16.4377   18.1527    1.2114 C   0  0  1  0  0  0  0  0  0  0  0  0
   15.1196   17.5421    1.0890 N   0  0  0  0  0  0  0  0  0  0  0  0
   13.9865   18.4516    1.0510 C   0  0  0  0  0  0  0  0  0  0  0  0
   12.7038   17.6647    1.2831 C   0  0  0  0  0  0  0  0  0  0  0  0
   12.2116   16.8118    0.2890 C   0  0  0  0  0  0  0  0  0  0  0  0
   11.1300   15.9600    0.5504 C   0  0  0  0  0  0  0  0  0  0  0  0
   10.4949   15.9358    1.8053 C   0  0  0  0  0  0  0  0  0  0  0  0
    9.5203   14.8751    2.1001 C   0  0  0  0  0  0  0  0  0  0  0  0
    8.5821   14.7668    3.1623 C   0  0  0  0  0  0  0  0  0  0  0  0
    8.0424   13.5056    3.0558 C   0  0  0  0  0  0  0  0  0  0  0  0
    8.6463   12.9352    1.9808 N   0  0  0  0  0  0  0  0  0  0  0  0
    8.4726   11.5852    1.5036 C   0  0  0  0  0  0  0  0  0  0  0  0
    9.5030   13.7550    1.3561 N   0  0  0  0  0  0  0  0  0  0  0  0
   10.9354   16.8459    2.7740 C   0  0  0  0  0  0  0  0  0  0  0  0
   12.0353   17.6900    2.5193 C   0  0  0  0  0  0  0  0  0  0  0  0
   17.4285   17.0848    1.7223 C   0  0  0  0  0  0  0  0  0  0  0  0
   16.9217   16.2028    2.7513 C   0  0  0  0  0  0  0  0  0  0  0  0
   17.5936   15.0947    3.2841 C   0  0  0  0  0  0  0  0  0  0  0  0
   18.8548   14.9982    2.7393 C   0  0  0  0  0  0  0  0  0  0  0  0
   19.7859   14.0727    3.1051 C   0  0  0  0  0  0  0  0  0  0  0  0
   20.9107   14.4261    2.4279 N   0  0  0  0  0  0  0  0  0  0  0  0
   22.2298   13.8665    2.6018 C   0  0  0  0  0  0  0  0  0  0  0  0
   20.7295   15.4522    1.5736 N   0  0  0  0  0  0  0  0  0  0  0  0
   19.4643   15.8595    1.7751 C   0  0  0  0  0  0  0  0  0  0  0  0
   18.7530   16.9438    1.2224 C   0  0  0  0  0  0  0  0  0  0  0  0
  1  2  1  0
  2  3  1  0
  3  4  1  6
  4  5  1  0
  5  6  1  0
  6  7  2  0
  7  8  1  0
  8  9  2  0
  9 10  1  0
 10 11  1  0
 11 12  2  0
 12 13  1  0
 13 14  1  0
 13 15  1  0
  9 16  1  0
 16 17  2  0
  3 18  1  0
 18 19  1  0
 19 20  2  0
 20 21  1  0
 21 22  2  0
 22 23  1  0
 23 24  1  0
 23 25  1  0
 25 26  2  0
 26 27  1  0
 17  6  1  0
 27 18  2  0
 15 10  2  0
 26 21  1  0
M  END
>  <energy_score>  (1677) 
-35.044658

>  <inchikey>  (1677) 
OVHYTYKUHPUBKR-UHFFFAOYSA-N

>  <smiles>  (1677) 
COC(NCc1ccc(-c2ccn(C)n2)cc1)c1ccc2cn(C)nc2c1

>  <ref_pdb>  (1677) 
A0514b

>  <alias>  (1677) 
OVHYTYKUHPUBKR-UHFFFAOYSA-N-P76-P9-P76-601504

>  <HIPPO Pose ID>  (1677) 
507575

>  <name>  (1677) 
OVHYTYKUHPUBKR-UHFFFAOYSA-N-P76-P9-P76-601504

>  <HIPPO Compound ID>  (1677) 
289751

>  <ref_mols>  (1677) 
A0486a,A0717a

>  <distance_score>  (1677) 
1.845261

>  <inspiration_score>  (1677) 
None

$$$$
RPWLBUIULDXFFQ-UHFFFAOYSA-N-P76-P9-P76-601504
     RDKit          3D

 27 30  0  0  0  0  0  0  0  0999 V2000
   22.0710   15.5860    0.5259 C   0  0  0  0  0  0  0  0  0  0  0  0
   20.9011   15.3744    1.4131 C   0  0  0  0  0  0  0  0  0  0  0  0
   19.7184   16.0480    1.5690 C   0  0  0  0  0  0  0  0  0  0  0  0
   19.3692   17.2144    0.9034 C   0  0  0  0  0  0  0  0  0  0  0  0
   18.1912   17.7784    1.4221 C   0  0  0  0  0  0  0  0  0  0  0  0
   17.4314   17.2106    2.4984 C   0  0  0  0  0  0  0  0  0  0  0  0
   16.2109   17.9509    3.0547 C   0  0  1  0  0  0  0  0  0  0  0  0
   16.3067   19.3285    2.7673 O   0  0  0  0  0  0  0  0  0  0  0  0
   14.9683   17.4511    2.5004 N   0  0  0  0  0  0  0  0  0  0  0  0
   13.7886   18.0830    3.1177 C   0  0  0  0  0  0  0  0  0  0  0  0
   12.4978   17.3429    2.8184 C   0  0  0  0  0  0  0  0  0  0  0  0
   12.3341   16.5985    1.6466 C   0  0  0  0  0  0  0  0  0  0  0  0
   11.1932   15.8160    1.4584 C   0  0  0  0  0  0  0  0  0  0  0  0
   10.1694   15.7705    2.4199 C   0  0  0  0  0  0  0  0  0  0  0  0
    9.1687   14.6980    2.3393 C   0  0  0  0  0  0  0  0  0  0  0  0
    8.2032   14.2953    3.3023 C   0  0  0  0  0  0  0  0  0  0  0  0
    7.6911   13.1057    2.8397 C   0  0  0  0  0  0  0  0  0  0  0  0
    8.3238   12.8654    1.6612 N   0  0  0  0  0  0  0  0  0  0  0  0
    8.1620   11.7134    0.8086 C   0  0  0  0  0  0  0  0  0  0  0  0
    9.1840   13.8311    1.3120 N   0  0  0  0  0  0  0  0  0  0  0  0
   10.2637   16.6307    3.5203 C   0  0  0  0  0  0  0  0  0  0  0  0
   11.4217   17.4017    3.7209 C   0  0  0  0  0  0  0  0  0  0  0  0
   17.7913   15.9605    3.0872 C   0  0  0  0  0  0  0  0  0  0  0  0
   18.9860   15.3962    2.6129 C   0  0  0  0  0  0  0  0  0  0  0  0
   19.6629   14.3071    3.0154 N   0  0  0  0  0  0  0  0  0  0  0  0
   20.8654   14.4208    2.4007 N   0  0  0  0  0  0  0  0  0  0  0  0
   22.0049   13.6788    2.8915 C   0  0  0  0  0  0  0  0  0  0  0  0
  1  2  1  0
  2  3  2  0
  3  4  1  0
  4  5  2  0
  5  6  1  0
  6  7  1  0
  7  8  1  6
  7  9  1  0
  9 10  1  0
 10 11  1  0
 11 12  2  0
 12 13  1  0
 13 14  2  0
 14 15  1  0
 15 16  1  0
 16 17  2  0
 17 18  1  0
 18 19  1  0
 18 20  1  0
 14 21  1  0
 21 22  2  0
  6 23  2  0
 23 24  1  0
 24 25  2  0
 25 26  1  0
 26 27  1  0
 26  2  1  0
 24  3  1  0
 22 11  1  0
 20 15  2  0
M  END
>  <energy_score>  (1678) 
-29.777478

>  <inchikey>  (1678) 
RPWLBUIULDXFFQ-UHFFFAOYSA-N

>  <smiles>  (1678) 
Cc1c2ccc(C(O)NCc3ccc(-c4ccn(C)n4)cc3)cc2nn1C

>  <ref_pdb>  (1678) 
A0514b

>  <alias>  (1678) 
RPWLBUIULDXFFQ-UHFFFAOYSA-N-P76-P9-P76-601504

>  <HIPPO Pose ID>  (1678) 
507581

>  <name>  (1678) 
RPWLBUIULDXFFQ-UHFFFAOYSA-N-P76-P9-P76-601504

>  <HIPPO Compound ID>  (1678) 
289754

>  <ref_mols>  (1678) 
A0486a,A0717a

>  <distance_score>  (1678) 
1.614343

>  <inspiration_score>  (1678) 
None

$$$$
HPSYOIDWZCGVIM-UHFFFAOYSA-N-P76-P9-P76-601504
     RDKit          3D

 27 30  0  0  0  0  0  0  0  0999 V2000
   10.5434   14.6604   -0.2956 C   0  0  0  0  0  0  0  0  0  0  0  0
    9.8803   14.5946    0.9871 N   0  0  0  0  0  0  0  0  0  0  0  0
    8.8528   13.7367    1.1258 N   0  0  0  0  0  0  0  0  0  0  0  0
    8.3923   13.9842    2.3504 C   0  0  0  0  0  0  0  0  0  0  0  0
    9.1328   14.9910    2.9979 C   0  0  0  0  0  0  0  0  0  0  0  0
   10.1745   15.3037    2.1347 C   0  0  0  0  0  0  0  0  0  0  0  0
   11.4205   16.0567    2.3668 C   0  0  0  0  0  0  0  0  0  0  0  0
   12.6561   15.4311    2.1172 C   0  0  0  0  0  0  0  0  0  0  0  0
   13.8775   16.0300    2.4706 C   0  0  0  0  0  0  0  0  0  0  0  0
   13.9238   17.2941    3.0702 C   0  0  0  0  0  0  0  0  0  0  0  0
   15.2628   17.8769    3.5281 C   0  0  0  0  0  0  0  0  0  0  0  0
   15.9002   18.7831    2.5632 N   0  0  0  0  0  0  0  0  0  0  0  0
   17.3671   18.6674    2.4683 C   0  0  1  0  0  0  0  0  0  0  0  0
   17.9060   18.9937    3.7329 O   0  0  0  0  0  0  0  0  0  0  0  0
   17.8996   17.3148    1.9935 C   0  0  0  0  0  0  0  0  0  0  0  0
   17.1213   16.5931    1.0820 C   0  0  0  0  0  0  0  0  0  0  0  0
   17.2980   15.2276    0.9092 C   0  0  0  0  0  0  0  0  0  0  0  0
   18.3343   14.5913    1.5961 C   0  0  0  0  0  0  0  0  0  0  0  0
   18.7078   13.2599    1.8356 C   0  0  0  0  0  0  0  0  0  0  0  0
   17.6875   11.7725    1.3025 Br  0  0  0  0  0  0  0  0  0  0  0  0
   19.8439   13.1629    2.5149 N   0  0  0  0  0  0  0  0  0  0  0  0
   20.2752   14.4394    2.5717 N   0  0  0  0  0  0  0  0  0  0  0  0
   21.6919   14.6578    2.7474 C   0  0  0  0  0  0  0  0  0  0  0  0
   19.2901   15.3570    2.2647 C   0  0  0  0  0  0  0  0  0  0  0  0
   19.1065   16.7403    2.4718 C   0  0  0  0  0  0  0  0  0  0  0  0
   12.6960   17.9432    3.2840 C   0  0  0  0  0  0  0  0  0  0  0  0
   11.4614   17.3261    2.9527 C   0  0  0  0  0  0  0  0  0  0  0  0
  1  2  1  0
  2  3  1  0
  3  4  2  0
  4  5  1  0
  5  6  2  0
  6  7  1  0
  7  8  2  0
  8  9  1  0
  9 10  2  0
 10 11  1  0
 11 12  1  0
 12 13  1  0
 13 14  1  1
 13 15  1  0
 15 16  2  0
 16 17  1  0
 17 18  2  0
 18 19  1  0
 19 20  1  0
 19 21  2  0
 21 22  1  0
 22 23  1  0
 22 24  1  0
 24 25  2  0
 10 26  1  0
 26 27  2  0
  6  2  1  0
 27  7  1  0
 25 15  1  0
 24 18  1  0
M  END
>  <energy_score>  (1679) 
-14.349774

>  <inchikey>  (1679) 
HPSYOIDWZCGVIM-UHFFFAOYSA-N

>  <smiles>  (1679) 
Cn1nccc1-c1ccc(CNC(O)c2ccc3c(Br)nn(C)c3c2)cc1

>  <ref_pdb>  (1679) 
A0514b

>  <alias>  (1679) 
HPSYOIDWZCGVIM-UHFFFAOYSA-N-P76-P9-P76-601504

>  <HIPPO Pose ID>  (1679) 
507583

>  <name>  (1679) 
HPSYOIDWZCGVIM-UHFFFAOYSA-N-P76-P9-P76-601504

>  <HIPPO Compound ID>  (1679) 
289755

>  <ref_mols>  (1679) 
A0486a,A0717a

>  <distance_score>  (1679) 
1.73668

>  <inspiration_score>  (1679) 
None

$$$$
SDXXQLOXNUSHOW-UHFFFAOYSA-N-P76-P9-P76-601504
     RDKit          3D

 27 30  0  0  0  0  0  0  0  0999 V2000
    8.6351   12.4378    0.8262 C   0  0  0  0  0  0  0  0  0  0  0  0
    8.9125   13.6076    1.6233 N   0  0  0  0  0  0  0  0  0  0  0  0
    8.1826   14.0762    2.6681 C   0  0  0  0  0  0  0  0  0  0  0  0
    8.8589   15.1829    3.1296 C   0  0  0  0  0  0  0  0  0  0  0  0
   10.0218   15.2972    2.3152 C   0  0  0  0  0  0  0  0  0  0  0  0
   11.2138   16.1596    2.4886 C   0  0  0  0  0  0  0  0  0  0  0  0
   12.3751   15.8714    1.7497 C   0  0  0  0  0  0  0  0  0  0  0  0
   13.6173   16.4567    2.0523 C   0  0  0  0  0  0  0  0  0  0  0  0
   13.7589   17.3768    3.0973 C   0  0  0  0  0  0  0  0  0  0  0  0
   15.1486   17.8585    3.5314 C   0  0  0  0  0  0  0  0  0  0  0  0
   15.8170   18.7509    2.5710 N   0  0  0  0  0  0  0  0  0  0  0  0
   17.2847   18.6472    2.5659 C   0  0  2  0  0  0  0  0  0  0  0  0
   17.7552   19.6913    1.7476 O   0  0  0  0  0  0  0  0  0  0  0  0
   17.8665   17.3388    2.0311 C   0  0  0  0  0  0  0  0  0  0  0  0
   17.1396   16.6332    1.0693 C   0  0  0  0  0  0  0  0  0  0  0  0
   17.3213   15.2690    0.8909 C   0  0  0  0  0  0  0  0  0  0  0  0
   18.3388   14.6288    1.6015 C   0  0  0  0  0  0  0  0  0  0  0  0
   18.7139   13.2969    1.8395 C   0  0  0  0  0  0  0  0  0  0  0  0
   17.7111   11.8075    1.2801 Br  0  0  0  0  0  0  0  0  0  0  0  0
   19.8392   13.2011    2.5384 N   0  0  0  0  0  0  0  0  0  0  0  0
   20.2656   14.4799    2.5977 N   0  0  0  0  0  0  0  0  0  0  0  0
   21.6851   14.7034    2.7441 C   0  0  0  0  0  0  0  0  0  0  0  0
   19.2737   15.3942    2.3004 C   0  0  0  0  0  0  0  0  0  0  0  0
   19.0675   16.7722    2.5311 C   0  0  0  0  0  0  0  0  0  0  0  0
   12.5883   17.7281    3.7921 C   0  0  0  0  0  0  0  0  0  0  0  0
   11.3347   17.1313    3.4929 C   0  0  0  0  0  0  0  0  0  0  0  0
   10.0114   14.3359    1.3729 N   0  0  0  0  0  0  0  0  0  0  0  0
  1  2  1  0
  2  3  1  0
  3  4  2  0
  4  5  1  0
  5  6  1  0
  6  7  2  0
  7  8  1  0
  8  9  2  0
  9 10  1  0
 10 11  1  0
 11 12  1  0
 12 13  1  6
 12 14  1  0
 14 15  2  0
 15 16  1  0
 16 17  2  0
 17 18  1  0
 18 19  1  0
 18 20  2  0
 20 21  1  0
 21 22  1  0
 21 23  1  0
 23 24  2  0
  9 25  1  0
 25 26  2  0
  5 27  2  0
 27  2  1  0
 26  6  1  0
 24 14  1  0
 23 17  1  0
M  END
>  <energy_score>  (1680) 
-15.49574

>  <inchikey>  (1680) 
SDXXQLOXNUSHOW-UHFFFAOYSA-N

>  <smiles>  (1680) 
Cn1ccc(-c2ccc(CNC(O)c3ccc4c(Br)nn(C)c4c3)cc2)n1

>  <ref_pdb>  (1680) 
A0514b

>  <alias>  (1680) 
SDXXQLOXNUSHOW-UHFFFAOYSA-N-P76-P9-P76-601504

>  <HIPPO Pose ID>  (1680) 
507585

>  <name>  (1680) 
SDXXQLOXNUSHOW-UHFFFAOYSA-N-P76-P9-P76-601504

>  <HIPPO Compound ID>  (1680) 
289756

>  <ref_mols>  (1680) 
A0486a,A0717a

>  <distance_score>  (1680) 
1.775674

>  <inspiration_score>  (1680) 
None

$$$$
MQTSULCDEQVALO-UHFFFAOYSA-N-P76-P9-P76-601504
     RDKit          3D

 28 31  0  0  0  0  0  0  0  0999 V2000
   16.5476   14.3725    2.9764 C   0  0  0  0  0  0  0  0  0  0  0  0
   17.5057   15.4420    2.5506 C   0  0  0  0  0  0  0  0  0  0  0  0
   17.0776   16.7461    2.1125 C   0  0  0  0  0  0  0  0  0  0  0  0
   15.5774   17.0908    1.9669 C   0  0  2  0  0  0  0  0  0  0  0  0
   15.4182   17.7236    0.7031 O   0  0  0  0  0  0  0  0  0  0  0  0
   15.1086   17.9548    3.0459 N   0  0  0  0  0  0  0  0  0  0  0  0
   13.8606   18.6797    2.7438 C   0  0  0  0  0  0  0  0  0  0  0  0
   12.6136   17.8341    2.6057 C   0  0  0  0  0  0  0  0  0  0  0  0
   12.2077   17.3695    1.3502 C   0  0  0  0  0  0  0  0  0  0  0  0
   11.0985   16.5246    1.2196 C   0  0  0  0  0  0  0  0  0  0  0  0
   10.3744   16.0973    2.3396 C   0  0  0  0  0  0  0  0  0  0  0  0
    9.4249   14.9718    2.2617 C   0  0  0  0  0  0  0  0  0  0  0  0
    8.3385   14.6562    3.0657 C   0  0  0  0  0  0  0  0  0  0  0  0
    7.8721   13.4090    2.6191 C   0  0  0  0  0  0  0  0  0  0  0  0
    8.5784   12.9523    1.5900 N   0  0  0  0  0  0  0  0  0  0  0  0
    9.5595   13.8606    1.4417 N   0  0  0  0  0  0  0  0  0  0  0  0
   10.6437   13.5063    0.5522 C   0  0  0  0  0  0  0  0  0  0  0  0
   10.6857   16.6940    3.5698 C   0  0  0  0  0  0  0  0  0  0  0  0
   11.8125   17.5216    3.7101 C   0  0  0  0  0  0  0  0  0  0  0  0
   18.0163   17.7763    1.7433 C   0  0  0  0  0  0  0  0  0  0  0  0
   19.4052   17.6102    1.7232 C   0  0  0  0  0  0  0  0  0  0  0  0
   19.7710   16.3285    2.1021 C   0  0  0  0  0  0  0  0  0  0  0  0
   21.0614   15.8708    2.1439 C   0  0  0  0  0  0  0  0  0  0  0  0
   22.3647   16.5007    1.8107 C   0  0  0  0  0  0  0  0  0  0  0  0
   20.9415   14.5865    2.6120 N   0  0  0  0  0  0  0  0  0  0  0  0
   22.0286   13.6932    2.9411 C   0  0  0  0  0  0  0  0  0  0  0  0
   19.6630   14.1812    2.8100 N   0  0  0  0  0  0  0  0  0  0  0  0
   18.9073   15.2545    2.5096 C   0  0  0  0  0  0  0  0  0  0  0  0
  1  2  1  0
  2  3  2  0
  3  4  1  0
  4  5  1  6
  4  6  1  0
  6  7  1  0
  7  8  1  0
  8  9  2  0
  9 10  1  0
 10 11  2  0
 11 12  1  0
 12 13  2  0
 13 14  1  0
 14 15  2  0
 15 16  1  0
 16 17  1  0
 11 18  1  0
 18 19  2  0
  3 20  1  0
 20 21  2  0
 21 22  1  0
 22 23  2  0
 23 24  1  0
 23 25  1  0
 25 26  1  0
 25 27  1  0
 27 28  2  0
 28  2  1  0
 19  8  1  0
 28 22  1  0
 16 12  1  0
M  END
>  <energy_score>  (1681) 
-30.52444

>  <inchikey>  (1681) 
MQTSULCDEQVALO-UHFFFAOYSA-N

>  <smiles>  (1681) 
Cc1c(C(O)NCc2ccc(-c3ccnn3C)cc2)ccc2c(C)n(C)nc12

>  <ref_pdb>  (1681) 
A0514b

>  <alias>  (1681) 
MQTSULCDEQVALO-UHFFFAOYSA-N-P76-P9-P76-601504

>  <HIPPO Pose ID>  (1681) 
507591

>  <name>  (1681) 
MQTSULCDEQVALO-UHFFFAOYSA-N-P76-P9-P76-601504

>  <HIPPO Compound ID>  (1681) 
289759

>  <ref_mols>  (1681) 
A0486a,A0717a

>  <distance_score>  (1681) 
1.685208

>  <inspiration_score>  (1681) 
None

$$$$
BSIRVHWYKABYMU-UHFFFAOYSA-N-P76-P9-P76-601504
     RDKit          3D

 28 31  0  0  0  0  0  0  0  0999 V2000
   17.9950   12.0343    1.5473 C   0  0  0  0  0  0  0  0  0  0  0  0
   18.7046   13.2820    1.9256 C   0  0  0  0  0  0  0  0  0  0  0  0
   19.9314   13.2487    2.4330 N   0  0  0  0  0  0  0  0  0  0  0  0
   20.3040   14.5474    2.4937 N   0  0  0  0  0  0  0  0  0  0  0  0
   21.7193   14.7772    2.6566 C   0  0  0  0  0  0  0  0  0  0  0  0
   19.2551   15.4363    2.3066 C   0  0  0  0  0  0  0  0  0  0  0  0
   19.0398   16.8429    2.4733 C   0  0  0  0  0  0  0  0  0  0  0  0
   20.1056   17.8176    2.8877 C   0  0  0  0  0  0  0  0  0  0  0  0
   17.6926   17.2966    2.2661 C   0  0  0  0  0  0  0  0  0  0  0  0
   17.0622   18.5843    2.8425 C   0  0  2  0  0  0  0  0  0  0  0  0
   17.7852   19.0054    3.9776 O   0  0  0  0  0  0  0  0  0  0  0  0
   15.6940   18.3804    3.3661 N   0  0  0  0  0  0  0  0  0  0  0  0
   14.6252   18.9063    2.5012 C   0  0  0  0  0  0  0  0  0  0  0  0
   13.3642   18.0403    2.4856 C   0  0  0  0  0  0  0  0  0  0  0  0
   12.4790   17.9625    3.5732 C   0  0  0  0  0  0  0  0  0  0  0  0
   11.3219   17.1430    3.5281 C   0  0  0  0  0  0  0  0  0  0  0  0
   11.0281   16.3577    2.4015 C   0  0  0  0  0  0  0  0  0  0  0  0
    9.9506   15.3456    2.3704 C   0  0  0  0  0  0  0  0  0  0  0  0
    8.8380   15.1665    3.2394 C   0  0  0  0  0  0  0  0  0  0  0  0
    8.2470   13.9834    2.8569 C   0  0  0  0  0  0  0  0  0  0  0  0
    8.9796   13.5269    1.8083 N   0  0  0  0  0  0  0  0  0  0  0  0
    8.7782   12.2984    1.0794 C   0  0  0  0  0  0  0  0  0  0  0  0
   10.0039   14.3329    1.4844 N   0  0  0  0  0  0  0  0  0  0  0  0
   11.9019   16.4691    1.3069 C   0  0  0  0  0  0  0  0  0  0  0  0
   13.0381   17.2961    1.3430 C   0  0  0  0  0  0  0  0  0  0  0  0
   16.8186   16.4937    1.5256 C   0  0  0  0  0  0  0  0  0  0  0  0
   17.0641   15.1539    1.3100 C   0  0  0  0  0  0  0  0  0  0  0  0
   18.2423   14.6070    1.8104 C   0  0  0  0  0  0  0  0  0  0  0  0
  1  2  1  0
  2  3  2  0
  3  4  1  0
  4  5  1  0
  4  6  1  0
  6  7  2  0
  7  8  1  0
  7  9  1  0
  9 10  1  0
 10 11  1  1
 10 12  1  0
 12 13  1  0
 13 14  1  0
 14 15  2  0
 15 16  1  0
 16 17  2  0
 17 18  1  0
 18 19  1  0
 19 20  2  0
 20 21  1  0
 21 22  1  0
 21 23  1  0
 17 24  1  0
 24 25  2  0
  9 26  2  0
 26 27  1  0
 27 28  2  0
 28  2  1  0
 28  6  1  0
 25 14  1  0
 23 18  2  0
M  END
>  <energy_score>  (1682) 
-20.073306

>  <inchikey>  (1682) 
BSIRVHWYKABYMU-UHFFFAOYSA-N

>  <smiles>  (1682) 
Cc1nn(C)c2c(C)c(C(O)NCc3ccc(-c4ccn(C)n4)cc3)ccc12

>  <ref_pdb>  (1682) 
A0514b

>  <alias>  (1682) 
BSIRVHWYKABYMU-UHFFFAOYSA-N-P76-P9-P76-601504

>  <HIPPO Pose ID>  (1682) 
507595

>  <name>  (1682) 
BSIRVHWYKABYMU-UHFFFAOYSA-N-P76-P9-P76-601504

>  <HIPPO Compound ID>  (1682) 
289761

>  <ref_mols>  (1682) 
A0486a,A0717a

>  <distance_score>  (1682) 
1.74543

>  <inspiration_score>  (1682) 
None

$$$$
HVXLDXITFPGFJS-UHFFFAOYSA-N-P76-P9-P76-601504
     RDKit          3D

 28 31  0  0  0  0  0  0  0  0999 V2000
   18.0153   12.0919    1.4485 C   0  0  0  0  0  0  0  0  0  0  0  0
   18.7436   13.3171    1.8613 C   0  0  0  0  0  0  0  0  0  0  0  0
   19.8920   13.2382    2.5250 N   0  0  0  0  0  0  0  0  0  0  0  0
   20.3410   14.5144    2.5542 N   0  0  0  0  0  0  0  0  0  0  0  0
   21.7660   14.6639    2.7264 C   0  0  0  0  0  0  0  0  0  0  0  0
   19.3549   15.4479    2.2707 C   0  0  0  0  0  0  0  0  0  0  0  0
   19.1663   16.8560    2.4394 C   0  0  0  0  0  0  0  0  0  0  0  0
   20.1807   17.7987    3.0227 C   0  0  0  0  0  0  0  0  0  0  0  0
   17.8722   17.3480    2.0662 C   0  0  0  0  0  0  0  0  0  0  0  0
   17.1371   18.5649    2.6730 C   0  0  2  0  0  0  0  0  0  0  0  0
   17.8380   19.0967    3.7693 O   0  0  0  0  0  0  0  0  0  0  0  0
   15.8225   18.1854    3.2373 N   0  0  0  0  0  0  0  0  0  0  0  0
   14.6732   18.6202    2.4295 C   0  0  0  0  0  0  0  0  0  0  0  0
   13.4477   17.7058    2.5086 C   0  0  0  0  0  0  0  0  0  0  0  0
   13.5008   16.3879    2.0397 C   0  0  0  0  0  0  0  0  0  0  0  0
   12.3437   15.5963    1.9542 C   0  0  0  0  0  0  0  0  0  0  0  0
   11.0800   16.0826    2.3325 C   0  0  0  0  0  0  0  0  0  0  0  0
    9.9059   15.2041    2.2178 C   0  0  0  0  0  0  0  0  0  0  0  0
    8.9525   14.8264    3.1515 C   0  0  0  0  0  0  0  0  0  0  0  0
    8.2530   13.7545    2.5652 C   0  0  0  0  0  0  0  0  0  0  0  0
    8.6467   13.5267    1.3136 N   0  0  0  0  0  0  0  0  0  0  0  0
    9.5874   14.4631    1.0964 N   0  0  0  0  0  0  0  0  0  0  0  0
   10.1393   14.5754   -0.2350 C   0  0  0  0  0  0  0  0  0  0  0  0
   11.0268   17.3773    2.8531 C   0  0  0  0  0  0  0  0  0  0  0  0
   12.1920   18.1799    2.9307 C   0  0  0  0  0  0  0  0  0  0  0  0
   17.1075   16.6157    1.1531 C   0  0  0  0  0  0  0  0  0  0  0  0
   17.3250   15.2659    0.9617 C   0  0  0  0  0  0  0  0  0  0  0  0
   18.3804   14.6617    1.6426 C   0  0  0  0  0  0  0  0  0  0  0  0
  1  2  1  0
  2  3  2  0
  3  4  1  0
  4  5  1  0
  4  6  1  0
  6  7  2  0
  7  8  1  0
  7  9  1  0
  9 10  1  0
 10 11  1  1
 10 12  1  0
 12 13  1  0
 13 14  1  0
 14 15  2  0
 15 16  1  0
 16 17  2  0
 17 18  1  0
 18 19  2  0
 19 20  1  0
 20 21  2  0
 21 22  1  0
 22 23  1  0
 17 24  1  0
 24 25  2  0
  9 26  2  0
 26 27  1  0
 27 28  2  0
 28  2  1  0
 28  6  1  0
 25 14  1  0
 22 18  1  0
M  END
>  <energy_score>  (1683) 
-17.503164

>  <inchikey>  (1683) 
HVXLDXITFPGFJS-UHFFFAOYSA-N

>  <smiles>  (1683) 
Cc1nn(C)c2c(C)c(C(O)NCc3ccc(-c4ccnn4C)cc3)ccc12

>  <ref_pdb>  (1683) 
A0514b

>  <alias>  (1683) 
HVXLDXITFPGFJS-UHFFFAOYSA-N-P76-P9-P76-601504

>  <HIPPO Pose ID>  (1683) 
507597

>  <name>  (1683) 
HVXLDXITFPGFJS-UHFFFAOYSA-N-P76-P9-P76-601504

>  <HIPPO Compound ID>  (1683) 
289762

>  <ref_mols>  (1683) 
A0486a,A0717a

>  <distance_score>  (1683) 
1.674286

>  <inspiration_score>  (1683) 
None

$$$$
ROFKHKMBGCUQTH-UHFFFAOYSA-N-P76-P9-P76-601504
     RDKit          3D

 28 31  0  0  0  0  0  0  0  0999 V2000
    8.4843   11.9402    0.9613 C   0  0  0  0  0  0  0  0  0  0  0  0
    8.6001   13.1256    1.7747 N   0  0  0  0  0  0  0  0  0  0  0  0
    7.9104   13.4065    2.9103 C   0  0  0  0  0  0  0  0  0  0  0  0
    8.4026   14.6108    3.3581 C   0  0  0  0  0  0  0  0  0  0  0  0
    9.4131   14.9850    2.4296 C   0  0  0  0  0  0  0  0  0  0  0  0
   10.4009   16.0764    2.5057 C   0  0  0  0  0  0  0  0  0  0  0  0
   11.3530   16.2078    1.4811 C   0  0  0  0  0  0  0  0  0  0  0  0
   12.4635   17.0467    1.6190 C   0  0  0  0  0  0  0  0  0  0  0  0
   12.6686   17.7832    2.7931 C   0  0  0  0  0  0  0  0  0  0  0  0
   13.9535   18.5796    2.9545 C   0  0  0  0  0  0  0  0  0  0  0  0
   15.0960   17.6734    2.9303 N   0  0  0  0  0  0  0  0  0  0  0  0
   16.3912   18.2834    2.6281 C   0  0  0  0  0  0  0  0  0  0  0  0
   17.4230   17.2001    2.3052 C   0  0  0  0  0  0  0  0  0  0  0  0
   16.9886   16.0875    1.4969 C   0  0  0  0  0  0  0  0  0  0  0  0
   17.7651   14.9582    1.1829 C   0  0  0  0  0  0  0  0  0  0  0  0
   19.0329   15.0832    1.7143 C   0  0  0  0  0  0  0  0  0  0  0  0
   20.0484   14.1852    1.5516 C   0  0  0  0  0  0  0  0  0  0  0  0
   21.1448   14.7791    2.1180 N   0  0  0  0  0  0  0  0  0  0  0  0
   22.5602   14.3877    1.9777 C   0  0  0  0  0  0  0  0  0  0  0  0
   22.7571   13.2660    0.9454 C   0  0  0  0  0  0  0  0  0  0  0  0
   23.3868   15.5959    1.4746 C   0  0  0  0  0  0  0  0  0  0  0  0
   23.1366   13.9144    3.3112 C   0  0  0  0  0  0  0  0  0  0  0  0
   20.8374   15.9352    2.7538 N   0  0  0  0  0  0  0  0  0  0  0  0
   19.5516   16.1768    2.4672 C   0  0  0  0  0  0  0  0  0  0  0  0
   18.7527   17.2895    2.7887 C   0  0  0  0  0  0  0  0  0  0  0  0
   11.6838   17.7197    3.7897 C   0  0  0  0  0  0  0  0  0  0  0  0
   10.5559   16.8845    3.6427 C   0  0  0  0  0  0  0  0  0  0  0  0
    9.4818   14.0782    1.4372 N   0  0  0  0  0  0  0  0  0  0  0  0
  1  2  1  0
  2  3  1  0
  3  4  2  0
  4  5  1  0
  5  6  1  0
  6  7  2  0
  7  8  1  0
  8  9  2  0
  9 10  1  0
 10 11  1  0
 11 12  1  0
 12 13  1  0
 13 14  1  0
 14 15  2  0
 15 16  1  0
 16 17  2  0
 17 18  1  0
 18 19  1  0
 19 20  1  0
 19 21  1  0
 19 22  1  0
 18 23  1  0
 23 24  2  0
 24 25  1  0
  9 26  1  0
 26 27  2  0
  5 28  2  0
 28  2  1  0
 27  6  1  0
 25 13  2  0
 24 16  1  0
M  END
>  <energy_score>  (1684) 
-42.821159

>  <inchikey>  (1684) 
ROFKHKMBGCUQTH-UHFFFAOYSA-N

>  <smiles>  (1684) 
Cn1ccc(-c2ccc(CNCc3ccc4cn(C(C)(C)C)nc4c3)cc2)n1

>  <ref_pdb>  (1684) 
A0514b

>  <alias>  (1684) 
ROFKHKMBGCUQTH-UHFFFAOYSA-N-P76-P9-P76-601504

>  <HIPPO Pose ID>  (1684) 
507599

>  <name>  (1684) 
ROFKHKMBGCUQTH-UHFFFAOYSA-N-P76-P9-P76-601504

>  <HIPPO Compound ID>  (1684) 
289763

>  <ref_mols>  (1684) 
A0486a,A0717a

>  <distance_score>  (1684) 
1.715789

>  <inspiration_score>  (1684) 
None

$$$$
ONSHOKSXCKRHGR-UHFFFAOYSA-N-P76-P9-P76-601504
     RDKit          3D

 28 31  0  0  0  0  0  0  0  0999 V2000
   10.7391   13.8176    0.5590 C   0  0  0  0  0  0  0  0  0  0  0  0
    9.6654   14.0976    1.4870 N   0  0  0  0  0  0  0  0  0  0  0  0
    8.7305   13.1422    1.6336 N   0  0  0  0  0  0  0  0  0  0  0  0
    7.9910   13.5650    2.6532 C   0  0  0  0  0  0  0  0  0  0  0  0
    8.4166   14.8174    3.1275 C   0  0  0  0  0  0  0  0  0  0  0  0
    9.5071   15.1764    2.3469 C   0  0  0  0  0  0  0  0  0  0  0  0
   10.4359   16.3187    2.4669 C   0  0  0  0  0  0  0  0  0  0  0  0
   11.1431   16.8073    1.3613 C   0  0  0  0  0  0  0  0  0  0  0  0
   12.2574   17.6417    1.5221 C   0  0  0  0  0  0  0  0  0  0  0  0
   12.6752   18.0498    2.7952 C   0  0  0  0  0  0  0  0  0  0  0  0
   14.0030   18.7709    2.9544 C   0  0  0  0  0  0  0  0  0  0  0  0
   15.0876   17.8003    2.8400 N   0  0  0  0  0  0  0  0  0  0  0  0
   16.4166   18.3711    2.6010 C   0  0  0  0  0  0  0  0  0  0  0  0
   17.4260   17.2649    2.2822 C   0  0  0  0  0  0  0  0  0  0  0  0
   16.9856   16.1728    1.4500 C   0  0  0  0  0  0  0  0  0  0  0  0
   17.7479   15.0338    1.1330 C   0  0  0  0  0  0  0  0  0  0  0  0
   19.0097   15.1270    1.6865 C   0  0  0  0  0  0  0  0  0  0  0  0
   20.0147   14.2172    1.5213 C   0  0  0  0  0  0  0  0  0  0  0  0
   21.1128   14.7860    2.1117 N   0  0  0  0  0  0  0  0  0  0  0  0
   22.5258   14.3820    1.9775 C   0  0  0  0  0  0  0  0  0  0  0  0
   22.7192   13.2704    0.9337 C   0  0  0  0  0  0  0  0  0  0  0  0
   23.3673   15.5878    1.4937 C   0  0  0  0  0  0  0  0  0  0  0  0
   23.0879   13.8885    3.3098 C   0  0  0  0  0  0  0  0  0  0  0  0
   20.8115   15.9332    2.7659 N   0  0  0  0  0  0  0  0  0  0  0  0
   19.5344   16.1994    2.4650 C   0  0  0  0  0  0  0  0  0  0  0  0
   18.7489   17.3203    2.7907 C   0  0  0  0  0  0  0  0  0  0  0  0
   11.8787   17.6958    3.8905 C   0  0  0  0  0  0  0  0  0  0  0  0
   10.7581   16.8606    3.7217 C   0  0  0  0  0  0  0  0  0  0  0  0
  1  2  1  0
  2  3  1  0
  3  4  2  0
  4  5  1  0
  5  6  2  0
  6  7  1  0
  7  8  2  0
  8  9  1  0
  9 10  2  0
 10 11  1  0
 11 12  1  0
 12 13  1  0
 13 14  1  0
 14 15  1  0
 15 16  2  0
 16 17  1  0
 17 18  2  0
 18 19  1  0
 19 20  1  0
 20 21  1  0
 20 22  1  0
 20 23  1  0
 19 24  1  0
 24 25  2  0
 25 26  1  0
 10 27  1  0
 27 28  2  0
  6  2  1  0
 28  7  1  0
 26 14  2  0
 25 17  1  0
M  END
>  <energy_score>  (1685) 
-31.401177

>  <inchikey>  (1685) 
ONSHOKSXCKRHGR-UHFFFAOYSA-N

>  <smiles>  (1685) 
Cn1nccc1-c1ccc(CNCc2ccc3cn(C(C)(C)C)nc3c2)cc1

>  <ref_pdb>  (1685) 
A0514b

>  <alias>  (1685) 
ONSHOKSXCKRHGR-UHFFFAOYSA-N-P76-P9-P76-601504

>  <HIPPO Pose ID>  (1685) 
507601

>  <name>  (1685) 
ONSHOKSXCKRHGR-UHFFFAOYSA-N-P76-P9-P76-601504

>  <HIPPO Compound ID>  (1685) 
289764

>  <ref_mols>  (1685) 
A0486a,A0717a

>  <distance_score>  (1685) 
1.835606

>  <inspiration_score>  (1685) 
None

$$$$
JYOSNIZMEZSZEB-UHFFFAOYSA-N-P76-P9-P76-601504
     RDKit          3D

 28 31  0  0  0  0  0  0  0  0999 V2000
    9.5651   14.5229   -0.4089 C   0  0  0  0  0  0  0  0  0  0  0  0
    9.1109   14.2713    0.9397 N   0  0  0  0  0  0  0  0  0  0  0  0
    8.1663   13.3319    1.1274 N   0  0  0  0  0  0  0  0  0  0  0  0
    7.9050   13.3989    2.4321 C   0  0  0  0  0  0  0  0  0  0  0  0
    8.6789   14.3786    3.0775 C   0  0  0  0  0  0  0  0  0  0  0  0
    9.5339   14.8717    2.1047 C   0  0  0  0  0  0  0  0  0  0  0  0
   10.7446   15.6847    2.2340 C   0  0  0  0  0  0  0  0  0  0  0  0
   10.7769   16.8933    2.9336 C   0  0  0  0  0  0  0  0  0  0  0  0
   12.0009   17.5505    3.1729 C   0  0  0  0  0  0  0  0  0  0  0  0
   13.2179   17.0002    2.7383 C   0  0  0  0  0  0  0  0  0  0  0  0
   14.5593   17.6378    3.0627 C   0  0  0  0  0  0  0  0  0  0  0  0
   15.0923   18.3987    1.9323 N   0  0  0  0  0  0  0  0  0  0  0  0
   16.5317   18.6362    1.9907 C   0  0  1  0  0  0  0  0  0  0  0  0
   16.7967   19.3773    3.1623 O   0  0  0  0  0  0  0  0  0  0  0  0
   17.4511   17.4117    1.8945 C   0  0  0  0  0  0  0  0  0  0  0  0
   17.0434   16.2727    1.1105 C   0  0  0  0  0  0  0  0  0  0  0  0
   17.7615   15.0640    0.9869 C   0  0  0  0  0  0  0  0  0  0  0  0
   18.9618   15.1358    1.6668 C   0  0  0  0  0  0  0  0  0  0  0  0
   19.9123   14.1555    1.7160 C   0  0  0  0  0  0  0  0  0  0  0  0
   20.9401   14.6988    2.4407 N   0  0  0  0  0  0  0  0  0  0  0  0
   22.2209   14.0693    2.7466 C   0  0  0  0  0  0  0  0  0  0  0  0
   22.6722   13.3479    1.6848 F   0  0  0  0  0  0  0  0  0  0  0  0
   22.0975   13.2113    3.7853 F   0  0  0  0  0  0  0  0  0  0  0  0
   20.6875   15.9628    2.8551 N   0  0  0  0  0  0  0  0  0  0  0  0
   19.4639   16.2516    2.4008 C   0  0  0  0  0  0  0  0  0  0  0  0
   18.7186   17.4314    2.5394 C   0  0  0  0  0  0  0  0  0  0  0  0
   13.1784   15.8029    2.0152 C   0  0  0  0  0  0  0  0  0  0  0  0
   11.9623   15.1609    1.7639 C   0  0  0  0  0  0  0  0  0  0  0  0
  1  2  1  0
  2  3  1  0
  3  4  2  0
  4  5  1  0
  5  6  2  0
  6  7  1  0
  7  8  2  0
  8  9  1  0
  9 10  2  0
 10 11  1  0
 11 12  1  0
 12 13  1  0
 13 14  1  1
 13 15  1  0
 15 16  1  0
 16 17  2  0
 17 18  1  0
 18 19  2  0
 19 20  1  0
 20 21  1  0
 21 22  1  0
 21 23  1  0
 20 24  1  0
 24 25  2  0
 25 26  1  0
 10 27  1  0
 27 28  2  0
  6  2  1  0
 28  7  1  0
 26 15  2  0
 25 18  1  0
M  END
>  <energy_score>  (1686) 
-46.919375

>  <inchikey>  (1686) 
JYOSNIZMEZSZEB-UHFFFAOYSA-N

>  <smiles>  (1686) 
Cn1nccc1-c1ccc(CNC(O)c2ccc3cn(C(F)F)nc3c2)cc1

>  <ref_pdb>  (1686) 
A0514b

>  <alias>  (1686) 
JYOSNIZMEZSZEB-UHFFFAOYSA-N-P76-P9-P76-601504

>  <HIPPO Pose ID>  (1686) 
507605

>  <name>  (1686) 
JYOSNIZMEZSZEB-UHFFFAOYSA-N-P76-P9-P76-601504

>  <HIPPO Compound ID>  (1686) 
289766

>  <ref_mols>  (1686) 
A0486a,A0717a

>  <distance_score>  (1686) 
1.78201

>  <inspiration_score>  (1686) 
None

$$$$
XLDXDMPLOLSHOF-UHFFFAOYSA-N-P76-P9-P76-601504
     RDKit          3D

 28 31  0  0  0  0  0  0  0  0999 V2000
   22.5817   14.0616    1.6483 C   0  0  0  0  0  0  0  0  0  0  0  0
   21.7177   14.5741    2.7923 C   0  0  0  0  0  0  0  0  0  0  0  0
   20.2993   14.3811    2.5539 N   0  0  0  0  0  0  0  0  0  0  0  0
   19.8587   13.1079    2.4626 N   0  0  0  0  0  0  0  0  0  0  0  0
   18.7250   13.2214    1.7834 C   0  0  0  0  0  0  0  0  0  0  0  0
   18.3413   14.5603    1.6235 C   0  0  0  0  0  0  0  0  0  0  0  0
   17.2610   15.1883    1.0056 C   0  0  0  0  0  0  0  0  0  0  0  0
   17.0608   16.5349    1.2519 C   0  0  0  0  0  0  0  0  0  0  0  0
   17.8774   17.2444    2.1476 C   0  0  0  0  0  0  0  0  0  0  0  0
   17.2320   18.5103    2.7428 C   0  0  2  0  0  0  0  0  0  0  0  0
   15.9230   18.0935    3.2734 N   0  0  0  0  0  0  0  0  0  0  0  0
   14.7986   19.0128    3.2649 C   0  0  0  0  0  0  0  0  0  0  0  0
   13.4895   18.2462    3.0540 C   0  0  0  0  0  0  0  0  0  0  0  0
   12.6255   17.9032    4.1020 C   0  0  0  0  0  0  0  0  0  0  0  0
   11.4742   17.1111    3.8720 C   0  0  0  0  0  0  0  0  0  0  0  0
   11.1623   16.6056    2.5963 C   0  0  0  0  0  0  0  0  0  0  0  0
   10.1101   15.5752    2.4005 C   0  0  0  0  0  0  0  0  0  0  0  0
    8.9372   15.3369    3.1077 C   0  0  0  0  0  0  0  0  0  0  0  0
    8.3906   14.1530    2.5815 C   0  0  0  0  0  0  0  0  0  0  0  0
    9.1333   13.6597    1.5970 N   0  0  0  0  0  0  0  0  0  0  0  0
   10.1815   14.5017    1.5202 N   0  0  0  0  0  0  0  0  0  0  0  0
   11.2663   14.1147    0.6444 C   0  0  0  0  0  0  0  0  0  0  0  0
   11.9740   17.0474    1.5415 C   0  0  0  0  0  0  0  0  0  0  0  0
   13.1219   17.8338    1.7654 C   0  0  0  0  0  0  0  0  0  0  0  0
   17.0902   19.4862    1.7176 O   0  0  0  0  0  0  0  0  0  0  0  0
   18.2740   20.2441    1.5120 C   0  0  0  0  0  0  0  0  0  0  0  0
   19.1114   16.6869    2.5682 C   0  0  0  0  0  0  0  0  0  0  0  0
   19.3071   15.3109    2.2987 C   0  0  0  0  0  0  0  0  0  0  0  0
  1  2  1  0
  2  3  1  0
  3  4  1  0
  4  5  2  0
  5  6  1  0
  6  7  2  0
  7  8  1  0
  8  9  2  0
  9 10  1  0
 10 11  1  6
 11 12  1  0
 12 13  1  0
 13 14  2  0
 14 15  1  0
 15 16  2  0
 16 17  1  0
 17 18  2  0
 18 19  1  0
 19 20  2  0
 20 21  1  0
 21 22  1  0
 16 23  1  0
 23 24  2  0
 10 25  1  0
 25 26  1  0
  9 27  1  0
 27 28  2  0
 28  3  1  0
 28  6  1  0
 24 13  1  0
 21 17  1  0
M  END
>  <energy_score>  (1687) 
-24.921233

>  <inchikey>  (1687) 
XLDXDMPLOLSHOF-UHFFFAOYSA-N

>  <smiles>  (1687) 
CCn1ncc2ccc(C(NCc3ccc(-c4ccnn4C)cc3)OC)cc21

>  <ref_pdb>  (1687) 
A0514b

>  <alias>  (1687) 
XLDXDMPLOLSHOF-UHFFFAOYSA-N-P76-P9-P76-601504

>  <HIPPO Pose ID>  (1687) 
507609

>  <name>  (1687) 
XLDXDMPLOLSHOF-UHFFFAOYSA-N-P76-P9-P76-601504

>  <HIPPO Compound ID>  (1687) 
289768

>  <ref_mols>  (1687) 
A0486a,A0717a

>  <distance_score>  (1687) 
1.719234

>  <inspiration_score>  (1687) 
None

$$$$
RGKXBNXITOBCMI-UHFFFAOYSA-N-P76-P9-P76-601504
     RDKit          3D

 29 32  0  0  0  0  0  0  0  0999 V2000
    8.0390   11.5112    1.0857 C   0  0  0  0  0  0  0  0  0  0  0  0
    8.2951   12.7525    1.7746 N   0  0  0  0  0  0  0  0  0  0  0  0
    7.6873   13.2006    2.9045 C   0  0  0  0  0  0  0  0  0  0  0  0
    8.2992   14.3935    3.2107 C   0  0  0  0  0  0  0  0  0  0  0  0
    9.2931   14.5802    2.2121 C   0  0  0  0  0  0  0  0  0  0  0  0
   10.3769   15.5682    2.1495 C   0  0  0  0  0  0  0  0  0  0  0  0
   10.4927   16.6262    3.0574 C   0  0  0  0  0  0  0  0  0  0  0  0
   11.6768   17.3801    3.1201 C   0  0  0  0  0  0  0  0  0  0  0  0
   12.7595   17.1013    2.2674 C   0  0  0  0  0  0  0  0  0  0  0  0
   14.0909   17.8060    2.4258 C   0  0  0  0  0  0  0  0  0  0  0  0
   14.8473   17.3225    3.5912 N   0  0  0  0  0  0  0  0  0  0  0  0
   15.5486   16.0743    3.3461 C   0  0  2  0  0  0  0  0  0  0  0  0
   15.5092   15.4091    4.6016 O   0  0  0  0  0  0  0  0  0  0  0  0
   17.0193   16.1941    2.9214 C   0  0  0  0  0  0  0  0  0  0  0  0
   17.6005   17.4503    2.5410 C   0  0  0  0  0  0  0  0  0  0  0  0
   18.9482   17.6139    2.1765 C   0  0  0  0  0  0  0  0  0  0  0  0
   19.6388   16.4136    2.2392 C   0  0  0  0  0  0  0  0  0  0  0  0
   20.9720   16.2699    2.0010 C   0  0  0  0  0  0  0  0  0  0  0  0
   21.2333   14.9386    2.1933 N   0  0  0  0  0  0  0  0  0  0  0  0
   22.5239   14.2522    2.0003 C   0  0  0  0  0  0  0  0  0  0  0  0
   22.3637   13.1771    0.9203 C   0  0  0  0  0  0  0  0  0  0  0  0
   23.6449   15.2042    1.5132 C   0  0  0  0  0  0  0  0  0  0  0  0
   23.0048   13.6295    3.3109 C   0  0  0  0  0  0  0  0  0  0  0  0
   20.1257   14.2235    2.5433 N   0  0  0  0  0  0  0  0  0  0  0  0
   19.1315   15.1242    2.5866 C   0  0  0  0  0  0  0  0  0  0  0  0
   17.7846   14.9829    2.9269 C   0  0  0  0  0  0  0  0  0  0  0  0
   12.6095   16.1041    1.3028 C   0  0  0  0  0  0  0  0  0  0  0  0
   11.4357   15.3517    1.2475 C   0  0  0  0  0  0  0  0  0  0  0  0
    9.2314   13.5885    1.3078 N   0  0  0  0  0  0  0  0  0  0  0  0
  1  2  1  0
  2  3  1  0
  3  4  2  0
  4  5  1  0
  5  6  1  0
  6  7  2  0
  7  8  1  0
  8  9  2  0
  9 10  1  0
 10 11  1  0
 11 12  1  0
 12 13  1  1
 12 14  1  0
 14 15  1  0
 15 16  2  0
 16 17  1  0
 17 18  2  0
 18 19  1  0
 19 20  1  0
 20 21  1  0
 20 22  1  0
 20 23  1  0
 19 24  1  0
 24 25  2  0
 25 26  1  0
  9 27  1  0
 27 28  2  0
  5 29  2  0
 29  2  1  0
 28  6  1  0
 26 14  2  0
 25 17  1  0
M  END
>  <energy_score>  (1688) 
-43.007599

>  <inchikey>  (1688) 
RGKXBNXITOBCMI-UHFFFAOYSA-N

>  <smiles>  (1688) 
Cn1ccc(-c2ccc(CNC(O)c3ccc4cn(C(C)(C)C)nc4c3)cc2)n1

>  <ref_pdb>  (1688) 
A0514b

>  <alias>  (1688) 
RGKXBNXITOBCMI-UHFFFAOYSA-N-P76-P9-P76-601504

>  <HIPPO Pose ID>  (1688) 
507613

>  <name>  (1688) 
RGKXBNXITOBCMI-UHFFFAOYSA-N-P76-P9-P76-601504

>  <HIPPO Compound ID>  (1688) 
289770

>  <ref_mols>  (1688) 
A0486a,A0717a

>  <distance_score>  (1688) 
1.75766

>  <inspiration_score>  (1688) 
None

$$$$
OUKRFDSAMHKIMS-UHFFFAOYSA-N-P76-P9-P76-601504
     RDKit          3D

 32 35  0  0  0  0  0  0  0  0999 V2000
   10.0782   14.8354   -0.2338 C   0  0  0  0  0  0  0  0  0  0  0  0
    9.5565   14.5978    1.0931 N   0  0  0  0  0  0  0  0  0  0  0  0
    8.6362   13.6288    1.2453 N   0  0  0  0  0  0  0  0  0  0  0  0
    8.2418   13.7595    2.5105 C   0  0  0  0  0  0  0  0  0  0  0  0
    8.9326   14.7918    3.1728 C   0  0  0  0  0  0  0  0  0  0  0  0
    9.8832   15.2447    2.2688 C   0  0  0  0  0  0  0  0  0  0  0  0
   11.0665   16.0997    2.4604 C   0  0  0  0  0  0  0  0  0  0  0  0
   11.0431   17.3000    3.1752 C   0  0  0  0  0  0  0  0  0  0  0  0
   12.2275   18.0509    3.3822 C   0  0  0  0  0  0  0  0  0  0  0  0
   13.4751   17.6162    2.8982 C   0  0  0  0  0  0  0  0  0  0  0  0
   14.7299   18.4889    2.9934 C   0  0  0  0  0  0  0  0  0  0  0  0
   15.8454   17.8803    3.7369 N   0  0  0  0  0  0  0  0  0  0  0  0
   17.1821   18.3111    3.2769 C   0  0  1  0  0  0  0  0  0  0  0  0
   17.9337   18.4583    4.4640 O   0  0  0  0  0  0  0  0  0  0  0  0
   17.8686   17.2566    2.3973 C   0  0  0  0  0  0  0  0  0  0  0  0
   17.1161   16.7034    1.3574 C   0  0  0  0  0  0  0  0  0  0  0  0
   17.3997   15.4394    0.8607 C   0  0  0  0  0  0  0  0  0  0  0  0
   18.5193   14.7688    1.3537 C   0  0  0  0  0  0  0  0  0  0  0  0
   19.0020   13.4591    1.2548 C   0  0  0  0  0  0  0  0  0  0  0  0
   20.1632   13.3043    1.8752 N   0  0  0  0  0  0  0  0  0  0  0  0
   20.5500   14.5884    2.1771 N   0  0  0  0  0  0  0  0  0  0  0  0
   21.9185   14.8918    2.3619 C   0  0  0  0  0  0  0  0  0  0  0  0
   22.2808   16.0099    2.6950 O   0  0  0  0  0  0  0  0  0  0  0  0
   22.6698   13.8108    2.0262 O   0  0  0  0  0  0  0  0  0  0  0  0
   24.1175   13.8377    1.9783 C   0  0  0  0  0  0  0  0  0  0  0  0
   24.6778   13.8516    3.3955 C   0  0  0  0  0  0  0  0  0  0  0  0
   24.5320   12.5234    1.2957 C   0  0  0  0  0  0  0  0  0  0  0  0
   24.6457   15.0055    1.1382 C   0  0  0  0  0  0  0  0  0  0  0  0
   19.4448   15.4468    2.1454 C   0  0  0  0  0  0  0  0  0  0  0  0
   19.1582   16.7285    2.6590 C   0  0  0  0  0  0  0  0  0  0  0  0
   13.4964   16.3931    2.2174 C   0  0  0  0  0  0  0  0  0  0  0  0
   12.3202   15.6541    2.0046 C   0  0  0  0  0  0  0  0  0  0  0  0
  1  2  1  0
  2  3  1  0
  3  4  2  0
  4  5  1  0
  5  6  2  0
  6  7  1  0
  7  8  2  0
  8  9  1  0
  9 10  2  0
 10 11  1  0
 11 12  1  0
 12 13  1  0
 13 14  1  1
 13 15  1  0
 15 16  2  0
 16 17  1  0
 17 18  2  0
 18 19  1  0
 19 20  2  0
 20 21  1  0
 21 22  1  0
 22 23  2  0
 22 24  1  0
 24 25  1  0
 25 26  1  0
 25 27  1  0
 25 28  1  0
 21 29  1  0
 29 30  2  0
 10 31  1  0
 31 32  2  0
  6  2  1  0
 32  7  1  0
 30 15  1  0
 29 18  1  0
M  END
>  <energy_score>  (1689) 
-44.097119

>  <inchikey>  (1689) 
OUKRFDSAMHKIMS-UHFFFAOYSA-N

>  <smiles>  (1689) 
Cn1nccc1-c1ccc(CNC(O)c2ccc3cnn(C(=O)OC(C)(C)C)c3c2)cc1

>  <ref_pdb>  (1689) 
A0514b

>  <alias>  (1689) 
OUKRFDSAMHKIMS-UHFFFAOYSA-N-P76-P9-P76-601504

>  <HIPPO Pose ID>  (1689) 
507615

>  <name>  (1689) 
OUKRFDSAMHKIMS-UHFFFAOYSA-N-P76-P9-P76-601504

>  <HIPPO Compound ID>  (1689) 
289771

>  <ref_mols>  (1689) 
A0486a,A0717a

>  <distance_score>  (1689) 
1.57567

>  <inspiration_score>  (1689) 
None

$$$$
DIAXWFAAFMAQSR-UHFFFAOYSA-N-P87-P87-P439-601504
     RDKit          3D

 23 25  0  0  0  0  0  0  0  0999 V2000
   16.3483   10.6770   25.8791 C   0  0  0  0  0  0  0  0  0  0  0  0
   15.5880   11.7610   26.6313 C   0  0  0  0  0  0  0  0  0  0  0  0
   14.4632   12.3035   25.8814 O   0  0  0  0  0  0  0  0  0  0  0  0
   13.5382   11.4560   25.3719 C   0  0  0  0  0  0  0  0  0  0  0  0
   13.6446   10.2374   25.3512 O   0  0  0  0  0  0  0  0  0  0  0  0
   12.3036   12.1981   24.8964 C   0  0  0  0  0  0  0  0  0  0  0  0
   12.6088   13.0016   23.6481 C   0  0  0  0  0  0  0  0  0  0  0  0
   11.4255   13.6776   22.9928 C   0  0  0  0  0  0  0  0  0  0  0  0
   10.1499   12.9986   23.3144 N   0  0  0  0  0  0  0  0  0  0  0  0
    9.2093   13.8963   24.3537 S   0  0  0  0  0  0  0  0  0  0  0  0
    9.0998   15.1773   23.7016 O   0  0  0  0  0  0  0  0  0  0  0  0
    9.7798   13.7528   25.6768 O   0  0  0  0  0  0  0  0  0  0  0  0
    7.7361   13.1150   24.3408 N   0  0  0  0  0  0  0  0  0  0  0  0
    7.4693   11.9993   25.2399 C   0  0  0  0  0  0  0  0  0  0  0  0
    6.6930   12.4267   26.4598 C   0  0  0  0  0  0  0  0  0  0  0  0
    5.4923   13.3083   26.1931 C   0  0  0  0  0  0  0  0  0  0  0  0
    5.4104   13.9952   24.8307 C   0  0  0  0  0  0  0  0  0  0  0  0
    6.5516   13.8312   23.8175 C   0  0  0  0  0  0  0  0  0  0  0  0
   10.2850   11.5572   23.4467 C   0  0  0  0  0  0  0  0  0  0  0  0
   11.1242   11.2252   24.6607 C   0  0  0  0  0  0  0  0  0  0  0  0
   16.5338   12.8475   27.2081 C   0  0  0  0  0  0  0  0  0  0  0  0
   16.4777   12.2509   28.5261 O   0  0  0  0  0  0  0  0  0  0  0  0
   15.3540   11.4369   28.1223 C   0  0  0  0  0  0  0  0  0  0  0  0
  1  2  1  0
  2  3  1  0
  3  4  1  0
  4  5  2  0
  4  6  1  0
  6  7  1  0
  7  8  1  0
  8  9  1  0
  9 10  1  0
 10 11  2  0
 10 12  2  0
 10 13  1  0
 13 14  1  0
 14 15  1  0
 15 16  1  0
 16 17  1  0
 17 18  1  0
  9 19  1  0
 19 20  1  0
  2 21  1  0
 21 22  1  0
 22 23  1  0
 23  2  1  0
 20  6  1  0
 18 13  1  0
M  END
>  <energy_score>  (1690) 
-55.328317

>  <inchikey>  (1690) 
DIAXWFAAFMAQSR-UHFFFAOYSA-N

>  <smiles>  (1690) 
CC1(OC(=O)C2CCN(S(=O)(=O)N3CCCCC3)CC2)COC1

>  <ref_pdb>  (1690) 
A0514b

>  <alias>  (1690) 
DIAXWFAAFMAQSR-UHFFFAOYSA-N-P87-P87-P439-601504

>  <HIPPO Pose ID>  (1690) 
507620

>  <name>  (1690) 
DIAXWFAAFMAQSR-UHFFFAOYSA-N-P87-P87-P439-601504

>  <HIPPO Compound ID>  (1690) 
314346

>  <ref_mols>  (1690) 
A4706a,A0875a

>  <distance_score>  (1690) 
1.638846

>  <inspiration_score>  (1690) 
None

$$$$
OAFVEFZDPSKQDG-UHFFFAOYSA-N-P87-P87-P439-601504
     RDKit          3D

 23 25  0  0  0  0  0  0  0  0999 V2000
   15.3625   11.2146   28.9831 C   0  0  0  0  0  0  0  0  0  0  0  0
   15.5637   12.1560   27.8023 C   0  0  1  0  0  0  0  0  0  0  0  0
   14.4817   12.0309   26.8476 O   0  0  0  0  0  0  0  0  0  0  0  0
   14.5380   11.0127   25.9709 C   0  0  0  0  0  0  0  0  0  0  0  0
   15.3062   10.0634   26.0524 O   0  0  0  0  0  0  0  0  0  0  0  0
   13.5095   11.0888   24.8547 C   0  0  0  0  0  0  0  0  0  0  0  0
   13.0992   12.5076   24.5454 C   0  0  0  0  0  0  0  0  0  0  0  0
   11.9671   12.8679   25.4654 C   0  0  0  0  0  0  0  0  0  0  0  0
   10.7238   12.1118   25.1358 N   0  0  0  0  0  0  0  0  0  0  0  0
    9.5133   13.2333   24.7875 S   0  0  0  0  0  0  0  0  0  0  0  0
    9.8782   13.9425   23.5877 O   0  0  0  0  0  0  0  0  0  0  0  0
    9.3979   13.8963   26.0614 O   0  0  0  0  0  0  0  0  0  0  0  0
    8.0585   12.4268   24.5431 N   0  0  0  0  0  0  0  0  0  0  0  0
    7.7397   11.3724   25.5083 C   0  0  0  0  0  0  0  0  0  0  0  0
    6.4609   11.5140   26.3098 C   0  0  0  0  0  0  0  0  0  0  0  0
    5.9486   12.9090   26.4718 C   0  0  0  0  0  0  0  0  0  0  0  0
    5.7972   13.5550   25.1183 C   0  0  0  0  0  0  0  0  0  0  0  0
    6.9495   13.3569   24.1296 C   0  0  0  0  0  0  0  0  0  0  0  0
   10.9249   10.9066   24.3320 C   0  0  0  0  0  0  0  0  0  0  0  0
   12.2241   10.1603   24.7983 C   0  0  0  0  0  0  0  0  0  0  0  0
   15.6360   13.6057   28.2056 C   0  0  2  0  0  0  0  0  0  0  0  0
   15.3140   14.1616   29.5778 C   0  0  0  0  0  0  0  0  0  0  0  0
   14.3519   14.1749   28.5211 O   0  0  0  0  0  0  0  0  0  0  0  0
  2  1  1  1
  2  3  1  0
  3  4  1  0
  4  5  2  0
  4  6  1  0
  6  7  1  0
  7  8  1  0
  8  9  1  0
  9 10  1  0
 10 11  2  0
 10 12  2  0
 10 13  1  0
 13 14  1  0
 14 15  1  0
 15 16  1  0
 16 17  1  0
 17 18  1  0
  9 19  1  0
 19 20  1  0
  2 21  1  0
 21 22  1  1
 22 23  1  0
 20  6  1  0
 23 21  1  0
 18 13  1  0
M  END
>  <energy_score>  (1691) 
-18.248935

>  <inchikey>  (1691) 
OAFVEFZDPSKQDG-UHFFFAOYSA-N

>  <smiles>  (1691) 
CC(OC(=O)C1CCN(S(=O)(=O)N2CCCCC2)CC1)C1CO1

>  <ref_pdb>  (1691) 
A0514b

>  <alias>  (1691) 
OAFVEFZDPSKQDG-UHFFFAOYSA-N-P87-P87-P439-601504

>  <HIPPO Pose ID>  (1691) 
507622

>  <name>  (1691) 
OAFVEFZDPSKQDG-UHFFFAOYSA-N-P87-P87-P439-601504

>  <HIPPO Compound ID>  (1691) 
314347

>  <ref_mols>  (1691) 
A4706a,A0875a

>  <distance_score>  (1691) 
1.256869

>  <inspiration_score>  (1691) 
None

$$$$
KNKZBQHPGXDEMM-UHFFFAOYSA-N-P439-P87-P439-601505
     RDKit          3D

 24 25  0  0  0  0  0  0  0  0999 V2000
   14.2595   13.2896   29.9090 C   0  0  0  0  0  0  0  0  0  0  0  0
   14.9009   13.5665   28.6695 O   0  0  0  0  0  0  0  0  0  0  0  0
   15.7964   12.5259   28.2653 C   0  0  0  0  0  0  0  0  0  0  0  0
   15.0823   11.3132   27.6628 C   0  0  2  0  0  0  0  0  0  0  0  0
   16.0564   10.5215   26.7590 C   0  0  0  0  0  0  0  0  0  0  0  0
   17.2183    9.9777   27.4575 N   0  0  0  0  0  0  0  0  0  0  0  0
   13.8315   11.5929   26.9533 O   0  0  0  0  0  0  0  0  0  0  0  0
   13.8977   12.3829   25.8583 C   0  0  0  0  0  0  0  0  0  0  0  0
   14.9037   12.9736   25.5014 O   0  0  0  0  0  0  0  0  0  0  0  0
   12.6456   12.4113   25.0072 C   0  0  0  0  0  0  0  0  0  0  0  0
   12.1903   13.7918   24.5906 C   0  0  0  0  0  0  0  0  0  0  0  0
   11.0584   13.6792   23.5798 C   0  0  0  0  0  0  0  0  0  0  0  0
    9.8932   13.0045   24.2005 N   0  0  0  0  0  0  0  0  0  0  0  0
    8.9972   13.9679   25.2404 S   0  0  0  0  0  0  0  0  0  0  0  0
    9.1774   15.3341   24.8195 O   0  0  0  0  0  0  0  0  0  0  0  0
    9.3086   13.5757   26.5931 O   0  0  0  0  0  0  0  0  0  0  0  0
    7.4028   13.5700   24.8934 N   0  0  0  0  0  0  0  0  0  0  0  0
    6.9183   12.1824   24.9140 C   0  0  0  0  0  0  0  0  0  0  0  0
    6.6808   11.6835   26.3300 C   0  0  0  0  0  0  0  0  0  0  0  0
    5.7163   12.6021   27.0768 C   0  0  0  0  0  0  0  0  0  0  0  0
    6.1283   14.0705   26.9677 C   0  0  0  0  0  0  0  0  0  0  0  0
    6.4004   14.4808   25.5198 C   0  0  0  0  0  0  0  0  0  0  0  0
   10.2160   11.6416   24.6378 C   0  0  0  0  0  0  0  0  0  0  0  0
   11.4716   11.6113   25.5015 C   0  0  0  0  0  0  0  0  0  0  0  0
  1  2  1  0
  2  3  1  0
  4  3  1  6
  4  5  1  0
  5  6  1  0
  4  7  1  0
  7  8  1  0
  8  9  2  0
  8 10  1  0
 10 11  1  0
 11 12  1  0
 12 13  1  0
 13 14  1  0
 14 15  2  0
 14 16  2  0
 14 17  1  0
 17 18  1  0
 18 19  1  0
 19 20  1  0
 20 21  1  0
 21 22  1  0
 13 23  1  0
 23 24  1  0
 24 10  1  0
 22 17  1  0
M  END
>  <energy_score>  (1692) 
-63.439387

>  <inchikey>  (1692) 
KNKZBQHPGXDEMM-UHFFFAOYSA-N

>  <smiles>  (1692) 
COCC(CN)OC(=O)C1CCN(S(=O)(=O)N2CCCCC2)CC1

>  <ref_pdb>  (1692) 
A0875a

>  <alias>  (1692) 
KNKZBQHPGXDEMM-UHFFFAOYSA-N-P439-P87-P439-601505

>  <HIPPO Pose ID>  (1692) 
507625

>  <name>  (1692) 
KNKZBQHPGXDEMM-UHFFFAOYSA-N-P439-P87-P439-601505

>  <HIPPO Compound ID>  (1692) 
314348

>  <ref_mols>  (1692) 
A4706a,A0875a

>  <distance_score>  (1692) 
1.450682

>  <inspiration_score>  (1692) 
None

$$$$
RJZIFSKPELRLIS-UHFFFAOYSA-N-P439-P87-P439-601505
     RDKit          3D

 24 26  0  0  0  0  0  0  0  0999 V2000
   17.4150    9.6054   27.2119 C   0  0  0  0  0  0  0  0  0  0  0  0
   16.7173   10.8475   27.7935 C   0  0  1  0  0  0  0  0  0  0  0  0
   15.6041   11.1878   26.8830 O   0  0  0  0  0  0  0  0  0  0  0  0
   14.9469   12.3432   27.1301 C   0  0  0  0  0  0  0  0  0  0  0  0
   15.2809   13.1334   28.0143 O   0  0  0  0  0  0  0  0  0  0  0  0
   13.7169   12.6782   26.2834 C   0  0  0  0  0  0  0  0  0  0  0  0
   12.7191   13.1930   27.3207 C   0  0  0  0  0  0  0  0  0  0  0  0
   11.2870   13.3601   26.8781 C   0  0  0  0  0  0  0  0  0  0  0  0
   11.1610   13.5043   25.4418 N   0  0  0  0  0  0  0  0  0  0  0  0
    9.7802   14.2829   24.8770 S   0  0  0  0  0  0  0  0  0  0  0  0
   10.0423   14.7457   23.5384 O   0  0  0  0  0  0  0  0  0  0  0  0
    9.3625   15.1988   25.9136 O   0  0  0  0  0  0  0  0  0  0  0  0
    8.5649   13.0924   24.7673 N   0  0  0  0  0  0  0  0  0  0  0  0
    8.4194   12.1629   25.9079 C   0  0  0  0  0  0  0  0  0  0  0  0
    7.0420   11.5212   25.9633 C   0  0  0  0  0  0  0  0  0  0  0  0
    5.9773   12.5775   26.2372 C   0  0  0  0  0  0  0  0  0  0  0  0
    6.3229   13.9077   25.5693 C   0  0  0  0  0  0  0  0  0  0  0  0
    7.2444   13.7124   24.3635 C   0  0  0  0  0  0  0  0  0  0  0  0
   11.8091   12.4916   24.6081 C   0  0  0  0  0  0  0  0  0  0  0  0
   12.9654   11.7448   25.3540 C   0  0  0  0  0  0  0  0  0  0  0  0
   16.2167   10.5578   29.2160 C   0  0  0  0  0  0  0  0  0  0  0  0
   17.3168   11.0928   30.1041 C   0  0  0  0  0  0  0  0  0  0  0  0
   17.8520   12.2226   29.4226 O   0  0  0  0  0  0  0  0  0  0  0  0
   17.7802   11.9538   28.0128 C   0  0  0  0  0  0  0  0  0  0  0  0
  2  1  1  6
  2  3  1  0
  3  4  1  0
  4  5  2  0
  4  6  1  0
  6  7  1  0
  7  8  1  0
  8  9  1  0
  9 10  1  0
 10 11  2  0
 10 12  2  0
 10 13  1  0
 13 14  1  0
 14 15  1  0
 15 16  1  0
 16 17  1  0
 17 18  1  0
  9 19  1  0
 19 20  1  0
  2 21  1  0
 21 22  1  0
 22 23  1  0
 23 24  1  0
 24  2  1  0
 20  6  1  0
 18 13  1  0
M  END
>  <energy_score>  (1693) 
-43.762899

>  <inchikey>  (1693) 
RJZIFSKPELRLIS-UHFFFAOYSA-N

>  <smiles>  (1693) 
CC1(OC(=O)C2CCN(S(=O)(=O)N3CCCCC3)CC2)CCOC1

>  <ref_pdb>  (1693) 
A0875a

>  <alias>  (1693) 
RJZIFSKPELRLIS-UHFFFAOYSA-N-P439-P87-P439-601505

>  <HIPPO Pose ID>  (1693) 
507629

>  <name>  (1693) 
RJZIFSKPELRLIS-UHFFFAOYSA-N-P439-P87-P439-601505

>  <HIPPO Compound ID>  (1693) 
314350

>  <ref_mols>  (1693) 
A4706a,A0875a

>  <distance_score>  (1693) 
1.871279

>  <inspiration_score>  (1693) 
None

$$$$
WVBAKBAQRWIRDM-UHFFFAOYSA-N-P439-P87-P439-601505
     RDKit          3D

 24 26  0  0  0  0  0  0  0  0999 V2000
   10.1921   15.0804   18.9747 C   0  0  0  0  0  0  0  0  0  0  0  0
   10.3174   15.4118   20.4433 C   0  0  2  0  0  0  0  0  0  0  0  0
   11.7328   15.0739   20.9032 C   0  0  0  0  0  0  0  0  0  0  0  0
   11.7051   14.9354   22.3202 O   0  0  0  0  0  0  0  0  0  0  0  0
   10.3424   15.0674   22.6922 C   0  0  0  0  0  0  0  0  0  0  0  0
    9.4889   14.6664   21.4968 C   0  0  1  0  0  0  0  0  0  0  0  0
    8.1064   15.0805   21.6195 O   0  0  0  0  0  0  0  0  0  0  0  0
    7.1980   14.2335   22.1986 C   0  0  0  0  0  0  0  0  0  0  0  0
    6.3299   13.6582   21.5539 O   0  0  0  0  0  0  0  0  0  0  0  0
    7.2883   14.0609   23.6994 C   0  0  0  0  0  0  0  0  0  0  0  0
    6.8052   12.7080   24.2513 C   0  0  0  0  0  0  0  0  0  0  0  0
    7.0630   12.5481   25.7586 C   0  0  0  0  0  0  0  0  0  0  0  0
    7.5949   13.7897   26.3185 N   0  0  0  0  0  0  0  0  0  0  0  0
    9.2015   14.2597   26.3672 S   0  0  0  0  0  0  0  0  0  0  0  0
    9.3703   15.3153   25.3978 O   0  0  0  0  0  0  0  0  0  0  0  0
    9.4958   14.5467   27.7487 O   0  0  0  0  0  0  0  0  0  0  0  0
   10.2566   13.0348   25.9233 N   0  0  0  0  0  0  0  0  0  0  0  0
   10.0872   12.1286   24.7819 C   0  0  0  0  0  0  0  0  0  0  0  0
   10.9047   10.8943   25.0976 C   0  0  0  0  0  0  0  0  0  0  0  0
   12.3603   11.2877   25.4720 C   0  0  0  0  0  0  0  0  0  0  0  0
   12.6466   12.7395   25.1657 C   0  0  0  0  0  0  0  0  0  0  0  0
   11.6688   13.5796   25.9783 C   0  0  0  0  0  0  0  0  0  0  0  0
    6.6597   14.9190   26.0219 C   0  0  0  0  0  0  0  0  0  0  0  0
    6.6004   15.1696   24.5002 C   0  0  0  0  0  0  0  0  0  0  0  0
  2  1  1  6
  2  3  1  0
  3  4  1  0
  4  5  1  0
  5  6  1  0
  6  7  1  1
  7  8  1  0
  8  9  2  0
  8 10  1  0
 10 11  1  0
 11 12  1  0
 12 13  1  0
 13 14  1  0
 14 15  2  0
 14 16  2  0
 14 17  1  0
 17 18  1  0
 18 19  1  0
 19 20  1  0
 20 21  1  0
 21 22  1  0
 13 23  1  0
 23 24  1  0
  6  2  1  0
 24 10  1  0
 22 17  1  0
M  END
>  <energy_score>  (1694) 
-3.110416

>  <inchikey>  (1694) 
WVBAKBAQRWIRDM-UHFFFAOYSA-N

>  <smiles>  (1694) 
CC1COCC1OC(=O)C1CCN(S(=O)(=O)N2CCCCC2)CC1

>  <ref_pdb>  (1694) 
A0875a

>  <alias>  (1694) 
WVBAKBAQRWIRDM-UHFFFAOYSA-N-P439-P87-P439-601505

>  <HIPPO Pose ID>  (1694) 
507641

>  <name>  (1694) 
WVBAKBAQRWIRDM-UHFFFAOYSA-N-P439-P87-P439-601505

>  <HIPPO Compound ID>  (1694) 
314356

>  <ref_mols>  (1694) 
A4706a,A0875a

>  <distance_score>  (1694) 
1.69541

>  <inspiration_score>  (1694) 
None

$$$$
MRYRZVFKIDASDM-UHFFFAOYSA-N-P87-P87-P439-601505
     RDKit          3D

 24 26  0  0  0  0  0  0  0  0999 V2000
   17.1429    9.8172   27.5964 C   0  0  0  0  0  0  0  0  0  0  0  0
   16.8510   11.2818   27.8546 C   0  0  0  0  0  0  0  0  0  0  0  0
   15.3607   11.5584   28.1324 C   0  0  0  0  0  0  0  0  0  0  0  0
   14.4339   11.0287   27.1125 O   0  0  0  0  0  0  0  0  0  0  0  0
   14.5632   11.5540   25.8859 C   0  0  0  0  0  0  0  0  0  0  0  0
   15.4737   12.3177   25.5821 O   0  0  0  0  0  0  0  0  0  0  0  0
   13.5121   11.1792   24.8362 C   0  0  0  0  0  0  0  0  0  0  0  0
   12.9912   12.5276   24.3524 C   0  0  0  0  0  0  0  0  0  0  0  0
   11.9203   12.9234   25.3319 C   0  0  0  0  0  0  0  0  0  0  0  0
   10.6827   12.1190   25.1285 N   0  0  0  0  0  0  0  0  0  0  0  0
    9.4469   13.2096   24.7770 S   0  0  0  0  0  0  0  0  0  0  0  0
    9.7908   13.9073   23.5634 O   0  0  0  0  0  0  0  0  0  0  0  0
    9.3528   13.8863   26.0456 O   0  0  0  0  0  0  0  0  0  0  0  0
    7.9805   12.4264   24.5564 N   0  0  0  0  0  0  0  0  0  0  0  0
    7.6394   11.3920   25.5305 C   0  0  0  0  0  0  0  0  0  0  0  0
    6.3849   11.5743   26.3636 C   0  0  0  0  0  0  0  0  0  0  0  0
    5.8568   12.9702   26.4637 C   0  0  0  0  0  0  0  0  0  0  0  0
    5.7330   13.5947   25.0973 C   0  0  0  0  0  0  0  0  0  0  0  0
    6.8909   13.3691   24.1242 C   0  0  0  0  0  0  0  0  0  0  0  0
   10.8934   10.8661   24.4031 C   0  0  0  0  0  0  0  0  0  0  0  0
   12.2590   10.2049   24.8477 C   0  0  0  0  0  0  0  0  0  0  0  0
   14.9792   11.2217   29.5963 C   0  0  0  0  0  0  0  0  0  0  0  0
   14.4730   12.5566   29.8176 O   0  0  0  0  0  0  0  0  0  0  0  0
   15.0819   13.0147   28.5883 C   0  0  0  0  0  0  0  0  0  0  0  0
  1  2  1  0
  2  3  1  0
  3  4  1  0
  4  5  1  0
  5  6  2  0
  5  7  1  0
  7  8  1  0
  8  9  1  0
  9 10  1  0
 10 11  1  0
 11 12  2  0
 11 13  2  0
 11 14  1  0
 14 15  1  0
 15 16  1  0
 16 17  1  0
 17 18  1  0
 18 19  1  0
 10 20  1  0
 20 21  1  0
  3 22  1  0
 22 23  1  0
 23 24  1  0
 24  3  1  0
 21  7  1  0
 19 14  1  0
M  END
>  <energy_score>  (1695) 
-27.648601

>  <inchikey>  (1695) 
MRYRZVFKIDASDM-UHFFFAOYSA-N

>  <smiles>  (1695) 
CCC1(OC(=O)C2CCN(S(=O)(=O)N3CCCCC3)CC2)COC1

>  <ref_pdb>  (1695) 
A0875a

>  <alias>  (1695) 
MRYRZVFKIDASDM-UHFFFAOYSA-N-P87-P87-P439-601505

>  <HIPPO Pose ID>  (1695) 
507644

>  <name>  (1695) 
MRYRZVFKIDASDM-UHFFFAOYSA-N-P87-P87-P439-601505

>  <HIPPO Compound ID>  (1695) 
314358

>  <ref_mols>  (1695) 
A4706a,A0875a

>  <distance_score>  (1695) 
1.175633

>  <inspiration_score>  (1695) 
None

$$$$
JEGPXZVWPVWCGI-UHFFFAOYSA-N-P439-P87-P439-601505
     RDKit          3D

 24 26  0  0  0  0  0  0  0  0999 V2000
   14.7591   10.7988   30.3902 N   0  0  0  0  0  0  0  0  0  0  0  0
   15.2797   10.9819   29.3693 C   0  0  0  0  0  0  0  0  0  0  0  0
   15.8578   11.2126   28.0525 C   0  0  0  0  0  0  0  0  0  0  0  0
   14.7890   11.4272   27.0499 O   0  0  0  0  0  0  0  0  0  0  0  0
   14.1683   12.6269   27.1885 C   0  0  0  0  0  0  0  0  0  0  0  0
   14.5145   13.4415   28.0407 O   0  0  0  0  0  0  0  0  0  0  0  0
   13.0921   12.9477   26.1528 C   0  0  0  0  0  0  0  0  0  0  0  0
   11.9902   13.8274   26.7759 C   0  0  0  0  0  0  0  0  0  0  0  0
   10.6108   13.2376   26.6830 C   0  0  0  0  0  0  0  0  0  0  0  0
   10.2557   12.9233   25.2968 N   0  0  0  0  0  0  0  0  0  0  0  0
    9.1307   13.9940   24.6466 S   0  0  0  0  0  0  0  0  0  0  0  0
    8.9422   13.7161   23.2483 O   0  0  0  0  0  0  0  0  0  0  0  0
    9.4976   15.2954   25.1427 O   0  0  0  0  0  0  0  0  0  0  0  0
    7.7962   13.4468   25.4980 N   0  0  0  0  0  0  0  0  0  0  0  0
    7.2634   12.1201   25.1267 C   0  0  0  0  0  0  0  0  0  0  0  0
    6.5060   11.5744   26.3313 C   0  0  0  0  0  0  0  0  0  0  0  0
    5.4073   12.5374   26.7796 C   0  0  0  0  0  0  0  0  0  0  0  0
    5.9445   13.9559   26.9733 C   0  0  0  0  0  0  0  0  0  0  0  0
    6.7196   14.4285   25.7442 C   0  0  0  0  0  0  0  0  0  0  0  0
   11.3668   12.5428   24.4193 C   0  0  0  0  0  0  0  0  0  0  0  0
   12.4919   11.8836   25.2546 C   0  0  0  0  0  0  0  0  0  0  0  0
   17.0584   12.1876   28.0610 C   0  0  0  0  0  0  0  0  0  0  0  0
   18.0053   11.1205   27.8497 O   0  0  0  0  0  0  0  0  0  0  0  0
   16.9362   10.1727   27.6692 C   0  0  0  0  0  0  0  0  0  0  0  0
  1  2  3  0
  2  3  1  0
  3  4  1  0
  4  5  1  0
  5  6  2  0
  5  7  1  0
  7  8  1  0
  8  9  1  0
  9 10  1  0
 10 11  1  0
 11 12  2  0
 11 13  2  0
 11 14  1  0
 14 15  1  0
 15 16  1  0
 16 17  1  0
 17 18  1  0
 18 19  1  0
 10 20  1  0
 20 21  1  0
  3 22  1  0
 22 23  1  0
 23 24  1  0
 24  3  1  0
 21  7  1  0
 19 14  1  0
M  END
>  <energy_score>  (1696) 
-68.534394

>  <inchikey>  (1696) 
JEGPXZVWPVWCGI-UHFFFAOYSA-N

>  <smiles>  (1696) 
N#CC1(OC(=O)C2CCN(S(=O)(=O)N3CCCCC3)CC2)COC1

>  <ref_pdb>  (1696) 
A0875a

>  <alias>  (1696) 
JEGPXZVWPVWCGI-UHFFFAOYSA-N-P439-P87-P439-601505

>  <HIPPO Pose ID>  (1696) 
507659

>  <name>  (1696) 
JEGPXZVWPVWCGI-UHFFFAOYSA-N-P439-P87-P439-601505

>  <HIPPO Compound ID>  (1696) 
314365

>  <ref_mols>  (1696) 
A4706a,A0875a

>  <distance_score>  (1696) 
1.930495

>  <inspiration_score>  (1696) 
None

$$$$
XJQKKBNTMAIOSA-UHFFFAOYSA-N-P87-P87-P439-601505
     RDKit          3D

 24 26  0  0  0  0  0  0  0  0999 V2000
   16.0371   10.6825   26.4768 C   0  0  0  0  0  0  0  0  0  0  0  0
   15.0954   11.8826   26.5383 C   0  0  1  0  0  0  0  0  0  0  0  0
   13.7726   11.5715   26.0077 O   0  0  0  0  0  0  0  0  0  0  0  0
   13.7107   11.6710   24.6561 C   0  0  0  0  0  0  0  0  0  0  0  0
   14.7074   11.6321   23.9443 O   0  0  0  0  0  0  0  0  0  0  0  0
   12.3179   11.9199   24.0541 C   0  0  0  0  0  0  0  0  0  0  0  0
   11.8283   13.2451   24.5055 C   0  0  0  0  0  0  0  0  0  0  0  0
   10.9321   12.9812   25.6457 C   0  0  0  0  0  0  0  0  0  0  0  0
    9.7205   12.1804   25.1976 N   0  0  0  0  0  0  0  0  0  0  0  0
    8.4590   13.2077   25.1638 S   0  0  0  0  0  0  0  0  0  0  0  0
    8.6699   14.1095   24.0614 O   0  0  0  0  0  0  0  0  0  0  0  0
    8.5323   13.5701   26.5502 O   0  0  0  0  0  0  0  0  0  0  0  0
    6.9828   12.4557   25.0520 N   0  0  0  0  0  0  0  0  0  0  0  0
    6.7468   11.3908   26.0328 C   0  0  0  0  0  0  0  0  0  0  0  0
    6.1890   11.8579   27.3771 C   0  0  0  0  0  0  0  0  0  0  0  0
    4.9636   12.7195   27.2958 C   0  0  0  0  0  0  0  0  0  0  0  0
    5.1753   13.8225   26.2966 C   0  0  0  0  0  0  0  0  0  0  0  0
    5.8210   13.4216   24.9728 C   0  0  0  0  0  0  0  0  0  0  0  0
    9.8921   11.3373   24.0450 C   0  0  0  0  0  0  0  0  0  0  0  0
   11.2632   10.7630   24.1852 C   0  0  0  0  0  0  0  0  0  0  0  0
   14.9499   12.3343   27.9928 C   0  0  1  0  0  0  0  0  0  0  0  0
   16.1350   13.0906   28.6099 C   0  0  0  0  0  0  0  0  0  0  0  0
   15.1052   14.1664   28.9330 C   0  0  0  0  0  0  0  0  0  0  0  0
   14.1079   13.5184   28.1024 O   0  0  0  0  0  0  0  0  0  0  0  0
  2  1  1  1
  2  3  1  0
  3  4  1  0
  4  5  2  0
  4  6  1  0
  6  7  1  0
  7  8  1  0
  8  9  1  0
  9 10  1  0
 10 11  2  0
 10 12  2  0
 10 13  1  0
 13 14  1  0
 14 15  1  0
 15 16  1  0
 16 17  1  0
 17 18  1  0
  9 19  1  0
 19 20  1  0
  2 21  1  0
 21 22  1  6
 22 23  1  0
 23 24  1  0
 20  6  1  0
 24 21  1  0
 18 13  1  0
M  END
>  <energy_score>  (1697) 
-42.905367

>  <inchikey>  (1697) 
XJQKKBNTMAIOSA-UHFFFAOYSA-N

>  <smiles>  (1697) 
CC(OC(=O)C1CCN(S(=O)(=O)N2CCCCC2)CC1)C1CCO1

>  <ref_pdb>  (1697) 
A0875a

>  <alias>  (1697) 
XJQKKBNTMAIOSA-UHFFFAOYSA-N-P87-P87-P439-601505

>  <HIPPO Pose ID>  (1697) 
507660

>  <name>  (1697) 
XJQKKBNTMAIOSA-UHFFFAOYSA-N-P87-P87-P439-601505

>  <HIPPO Compound ID>  (1697) 
314366

>  <ref_mols>  (1697) 
A4706a,A0875a

>  <distance_score>  (1697) 
1.369692

>  <inspiration_score>  (1697) 
None

$$$$
OSOJIFSJLSGDFP-UHFFFAOYSA-N-P439-P87-P439-601505
     RDKit          3D

 24 26  0  0  0  0  0  0  0  0999 V2000
   10.3180   15.6085   19.1646 O   0  0  0  0  0  0  0  0  0  0  0  0
   10.0406   15.4588   20.3412 C   0  0  0  0  0  0  0  0  0  0  0  0
    8.6553   15.4250   20.8956 C   0  0  0  0  0  0  0  0  0  0  0  0
    8.8528   14.6801   22.1625 C   0  0  2  0  0  0  0  0  0  0  0  0
    7.8288   14.9531   23.1414 O   0  0  0  0  0  0  0  0  0  0  0  0
    6.8237   14.0286   23.2057 C   0  0  0  0  0  0  0  0  0  0  0  0
    6.5871   13.2143   22.3140 O   0  0  0  0  0  0  0  0  0  0  0  0
    6.0597   14.0099   24.5501 C   0  0  0  0  0  0  0  0  0  0  0  0
    5.9699   12.5698   25.1093 C   0  0  0  0  0  0  0  0  0  0  0  0
    7.1069   12.0515   26.0024 C   0  0  0  0  0  0  0  0  0  0  0  0
    8.0041   13.1440   26.4391 N   0  0  0  0  0  0  0  0  0  0  0  0
    9.2556   13.5024   25.3796 S   0  0  0  0  0  0  0  0  0  0  0  0
    8.9692   12.8124   24.1477 O   0  0  0  0  0  0  0  0  0  0  0  0
    9.4639   14.9245   25.4604 O   0  0  0  0  0  0  0  0  0  0  0  0
   10.6298   12.7638   25.9841 N   0  0  0  0  0  0  0  0  0  0  0  0
   11.8335   13.6547   26.0054 C   0  0  0  0  0  0  0  0  0  0  0  0
   12.7888   13.2909   24.8695 C   0  0  0  0  0  0  0  0  0  0  0  0
   13.4210   11.9529   25.1542 C   0  0  0  0  0  0  0  0  0  0  0  0
   12.3376   11.0547   25.6477 C   0  0  0  0  0  0  0  0  0  0  0  0
   10.9142   11.4677   25.2999 C   0  0  0  0  0  0  0  0  0  0  0  0
    7.1876   14.3240   26.8505 C   0  0  0  0  0  0  0  0  0  0  0  0
    6.4949   14.9885   25.6502 C   0  0  0  0  0  0  0  0  0  0  0  0
   10.2378   15.1560   22.5542 C   0  0  0  0  0  0  0  0  0  0  0  0
   10.9566   15.3230   21.3415 O   0  0  0  0  0  0  0  0  0  0  0  0
  1  2  2  0
  2  3  1  0
  3  4  1  0
  4  5  1  1
  5  6  1  0
  6  7  2  0
  6  8  1  0
  8  9  1  0
  9 10  1  0
 10 11  1  0
 11 12  1  0
 12 13  2  0
 12 14  2  0
 12 15  1  0
 15 16  1  0
 16 17  1  0
 17 18  1  0
 18 19  1  0
 19 20  1  0
 11 21  1  0
 21 22  1  0
  4 23  1  0
 23 24  1  0
 24  2  1  0
 22  8  1  0
 20 15  1  0
M  END
>  <energy_score>  (1698) 
-39.33496

>  <inchikey>  (1698) 
OSOJIFSJLSGDFP-UHFFFAOYSA-N

>  <smiles>  (1698) 
O=C1CC(OC(=O)C2CCN(S(=O)(=O)N3CCCCC3)CC2)CO1

>  <ref_pdb>  (1698) 
A0875a

>  <alias>  (1698) 
OSOJIFSJLSGDFP-UHFFFAOYSA-N-P439-P87-P439-601505

>  <HIPPO Pose ID>  (1698) 
507663

>  <name>  (1698) 
OSOJIFSJLSGDFP-UHFFFAOYSA-N-P439-P87-P439-601505

>  <HIPPO Compound ID>  (1698) 
314367

>  <ref_mols>  (1698) 
A4706a,A0875a

>  <distance_score>  (1698) 
1.434011

>  <inspiration_score>  (1698) 
None

$$$$
YIPQLZDLDOBAJQ-UHFFFAOYSA-N-P87-P87-P439-601505
     RDKit          3D

 24 26  0  0  0  0  0  0  0  0999 V2000
   14.6893   10.8088   29.9428 C   0  0  0  0  0  0  0  0  0  0  0  0
   15.0501   11.4237   28.9760 C   0  0  0  0  0  0  0  0  0  0  0  0
   15.5304   12.1805   27.8277 C   0  0  0  0  0  0  0  0  0  0  0  0
   14.5116   12.1981   26.7795 O   0  0  0  0  0  0  0  0  0  0  0  0
   14.4530   11.0999   25.9916 C   0  0  0  0  0  0  0  0  0  0  0  0
   15.1370   10.0969   26.1512 O   0  0  0  0  0  0  0  0  0  0  0  0
   13.4436   11.1480   24.8533 C   0  0  0  0  0  0  0  0  0  0  0  0
   12.9923   12.5468   24.5285 C   0  0  0  0  0  0  0  0  0  0  0  0
   11.8736   12.8678   25.4781 C   0  0  0  0  0  0  0  0  0  0  0  0
   10.6269   12.1039   25.1469 N   0  0  0  0  0  0  0  0  0  0  0  0
    9.4443   13.2436   24.7780 S   0  0  0  0  0  0  0  0  0  0  0  0
    9.8611   13.9386   23.5854 O   0  0  0  0  0  0  0  0  0  0  0  0
    9.3565   13.9115   26.0510 O   0  0  0  0  0  0  0  0  0  0  0  0
    7.9532   12.5278   24.5027 N   0  0  0  0  0  0  0  0  0  0  0  0
    7.4304   11.6089   25.5098 C   0  0  0  0  0  0  0  0  0  0  0  0
    6.7221   12.2960   26.6554 C   0  0  0  0  0  0  0  0  0  0  0  0
    5.6072   13.2246   26.2549 C   0  0  0  0  0  0  0  0  0  0  0  0
    5.6809   13.7670   24.8404 C   0  0  0  0  0  0  0  0  0  0  0  0
    6.9226   13.5016   23.9747 C   0  0  0  0  0  0  0  0  0  0  0  0
   10.8503   10.9032   24.3368 C   0  0  0  0  0  0  0  0  0  0  0  0
   12.1722   10.1841   24.7920 C   0  0  0  0  0  0  0  0  0  0  0  0
   16.0907   13.5713   28.2282 C   0  0  0  0  0  0  0  0  0  0  0  0
   17.4544   13.1544   27.9948 O   0  0  0  0  0  0  0  0  0  0  0  0
   16.9970   11.9131   27.4133 C   0  0  0  0  0  0  0  0  0  0  0  0
  1  2  3  0
  2  3  1  0
  3  4  1  0
  4  5  1  0
  5  6  2  0
  5  7  1  0
  7  8  1  0
  8  9  1  0
  9 10  1  0
 10 11  1  0
 11 12  2  0
 11 13  2  0
 11 14  1  0
 14 15  1  0
 15 16  1  0
 16 17  1  0
 17 18  1  0
 18 19  1  0
 10 20  1  0
 20 21  1  0
  3 22  1  0
 22 23  1  0
 23 24  1  0
 24  3  1  0
 21  7  1  0
 19 14  1  0
M  END
>  <energy_score>  (1699) 
-27.047087

>  <inchikey>  (1699) 
YIPQLZDLDOBAJQ-UHFFFAOYSA-N

>  <smiles>  (1699) 
C#CC1(OC(=O)C2CCN(S(=O)(=O)N3CCCCC3)CC2)COC1

>  <ref_pdb>  (1699) 
A0875a

>  <alias>  (1699) 
YIPQLZDLDOBAJQ-UHFFFAOYSA-N-P87-P87-P439-601505

>  <HIPPO Pose ID>  (1699) 
507666

>  <name>  (1699) 
YIPQLZDLDOBAJQ-UHFFFAOYSA-N-P87-P87-P439-601505

>  <HIPPO Compound ID>  (1699) 
314369

>  <ref_mols>  (1699) 
A4706a,A0875a

>  <distance_score>  (1699) 
1.331462

>  <inspiration_score>  (1699) 
None

$$$$
CRUYGRLEHQLFHZ-UHFFFAOYSA-N-P87-P87-P439-601505
     RDKit          3D

 24 26  0  0  0  0  0  0  0  0999 V2000
   17.7274   13.5515   28.2812 N   0  0  0  0  0  0  0  0  0  0  0  0
   18.4552   12.3955   27.7463 C   0  0  0  0  0  0  0  0  0  0  0  0
   17.5433   11.1864   27.4503 C   0  0  0  0  0  0  0  0  0  0  0  0
   16.3611   11.6588   26.7410 O   0  0  0  0  0  0  0  0  0  0  0  0
   15.4946   10.7695   26.2073 C   0  0  0  0  0  0  0  0  0  0  0  0
   15.7540    9.6340   25.8414 O   0  0  0  0  0  0  0  0  0  0  0  0
   14.0615   11.2944   26.1972 C   0  0  0  0  0  0  0  0  0  0  0  0
   13.9222   12.7335   26.1322 C   0  0  0  0  0  0  0  0  0  0  0  0
   12.4712   13.1533   26.3014 C   0  0  0  0  0  0  0  0  0  0  0  0
   11.4498   12.4254   25.5153 N   0  0  0  0  0  0  0  0  0  0  0  0
   10.2541   13.5444   25.0357 S   0  0  0  0  0  0  0  0  0  0  0  0
   10.8172   14.3673   23.9938 O   0  0  0  0  0  0  0  0  0  0  0  0
    9.8426   14.1050   26.2978 O   0  0  0  0  0  0  0  0  0  0  0  0
    8.9512   12.7454   24.3761 N   0  0  0  0  0  0  0  0  0  0  0  0
    8.2859   11.6690   25.1051 C   0  0  0  0  0  0  0  0  0  0  0  0
    7.2247   12.1714   26.0601 C   0  0  0  0  0  0  0  0  0  0  0  0
    6.1934   13.0767   25.4345 C   0  0  0  0  0  0  0  0  0  0  0  0
    6.5775   13.6307   24.0717 C   0  0  0  0  0  0  0  0  0  0  0  0
    8.0409   13.7147   23.6884 C   0  0  0  0  0  0  0  0  0  0  0  0
   12.0714   11.6650   24.4578 C   0  0  0  0  0  0  0  0  0  0  0  0
   13.2537   10.7850   25.0034 C   0  0  0  0  0  0  0  0  0  0  0  0
   18.3798    9.9805   26.9675 C   0  0  0  0  0  0  0  0  0  0  0  0
   18.2535    9.3215   28.2512 O   0  0  0  0  0  0  0  0  0  0  0  0
   17.2956   10.3071   28.6949 C   0  0  0  0  0  0  0  0  0  0  0  0
  1  2  1  0
  2  3  1  0
  3  4  1  0
  4  5  1  0
  5  6  2  0
  5  7  1  0
  7  8  1  0
  8  9  1  0
  9 10  1  0
 10 11  1  0
 11 12  2  0
 11 13  2  0
 11 14  1  0
 14 15  1  0
 15 16  1  0
 16 17  1  0
 17 18  1  0
 18 19  1  0
 10 20  1  0
 20 21  1  0
  3 22  1  0
 22 23  1  0
 23 24  1  0
 24  3  1  0
 21  7  1  0
 19 14  1  0
M  END
>  <energy_score>  (1700) 
-22.023491

>  <inchikey>  (1700) 
CRUYGRLEHQLFHZ-UHFFFAOYSA-N

>  <smiles>  (1700) 
NCC1(OC(=O)C2CCN(S(=O)(=O)N3CCCCC3)CC2)COC1

>  <ref_pdb>  (1700) 
A0875a

>  <alias>  (1700) 
CRUYGRLEHQLFHZ-UHFFFAOYSA-N-P87-P87-P439-601505

>  <HIPPO Pose ID>  (1700) 
507670

>  <name>  (1700) 
CRUYGRLEHQLFHZ-UHFFFAOYSA-N-P87-P87-P439-601505

>  <HIPPO Compound ID>  (1700) 
314371

>  <ref_mols>  (1700) 
A4706a,A0875a

>  <distance_score>  (1700) 
1.688997

>  <inspiration_score>  (1700) 
None

$$$$
QGHSTAJKFDYVEK-UHFFFAOYSA-N-P439-P87-P439-601505
     RDKit          3D

 24 26  0  0  0  0  0  0  0  0999 V2000
    9.9707   15.1950   19.1471 C   0  0  0  0  0  0  0  0  0  0  0  0
   10.3104   14.9384   20.4102 C   0  0  0  0  0  0  0  0  0  0  0  0
   11.7435   14.6530   20.7588 C   0  0  0  0  0  0  0  0  0  0  0  0
   11.9444   15.1766   22.0789 O   0  0  0  0  0  0  0  0  0  0  0  0
   10.7057   15.8100   22.4040 C   0  0  0  0  0  0  0  0  0  0  0  0
    9.6156   14.9607   21.7485 C   0  0  1  0  0  0  0  0  0  0  0  0
    8.3120   15.5156   22.0191 O   0  0  0  0  0  0  0  0  0  0  0  0
    7.3408   14.5894   22.2936 C   0  0  0  0  0  0  0  0  0  0  0  0
    7.1672   13.5977   21.5904 O   0  0  0  0  0  0  0  0  0  0  0  0
    6.4118   14.8703   23.5239 C   0  0  0  0  0  0  0  0  0  0  0  0
    5.6564   13.5943   24.0049 C   0  0  0  0  0  0  0  0  0  0  0  0
    6.3154   12.7054   25.0860 C   0  0  0  0  0  0  0  0  0  0  0  0
    7.5518   13.3166   25.6414 N   0  0  0  0  0  0  0  0  0  0  0  0
    8.9166   13.0894   24.6833 S   0  0  0  0  0  0  0  0  0  0  0  0
    8.4847   12.2925   23.5639 O   0  0  0  0  0  0  0  0  0  0  0  0
    9.5522   14.3662   24.5159 O   0  0  0  0  0  0  0  0  0  0  0  0
    9.9661   12.1470   25.6046 N   0  0  0  0  0  0  0  0  0  0  0  0
   10.2654   10.8711   24.8783 C   0  0  0  0  0  0  0  0  0  0  0  0
   11.5793   10.2288   25.2637 C   0  0  0  0  0  0  0  0  0  0  0  0
   12.7664   11.2143   25.4386 C   0  0  0  0  0  0  0  0  0  0  0  0
   12.3532   12.6561   25.2126 C   0  0  0  0  0  0  0  0  0  0  0  0
   11.1505   12.9131   26.0999 C   0  0  0  0  0  0  0  0  0  0  0  0
    7.2561   14.7231   26.0020 C   0  0  0  0  0  0  0  0  0  0  0  0
    7.0118   15.5781   24.7481 C   0  0  0  0  0  0  0  0  0  0  0  0
  1  2  2  0
  2  3  1  0
  3  4  1  0
  4  5  1  0
  5  6  1  0
  6  7  1  6
  7  8  1  0
  8  9  2  0
  8 10  1  0
 10 11  1  0
 11 12  1  0
 12 13  1  0
 13 14  1  0
 14 15  2  0
 14 16  2  0
 14 17  1  0
 17 18  1  0
 18 19  1  0
 19 20  1  0
 20 21  1  0
 21 22  1  0
 13 23  1  0
 23 24  1  0
  6  2  1  0
 24 10  1  0
 22 17  1  0
M  END
>  <energy_score>  (1701) 
-17.760243

>  <inchikey>  (1701) 
QGHSTAJKFDYVEK-UHFFFAOYSA-N

>  <smiles>  (1701) 
C=C1COCC1OC(=O)C1CCN(S(=O)(=O)N2CCCCC2)CC1

>  <ref_pdb>  (1701) 
A0875a

>  <alias>  (1701) 
QGHSTAJKFDYVEK-UHFFFAOYSA-N-P439-P87-P439-601505

>  <HIPPO Pose ID>  (1701) 
507675

>  <name>  (1701) 
QGHSTAJKFDYVEK-UHFFFAOYSA-N-P439-P87-P439-601505

>  <HIPPO Compound ID>  (1701) 
314373

>  <ref_mols>  (1701) 
A4706a,A0875a

>  <distance_score>  (1701) 
1.864983

>  <inspiration_score>  (1701) 
None

$$$$
YHTXAKLMEWRTTI-UHFFFAOYSA-N-P439-P87-P439-601505
     RDKit          3D

 24 26  0  0  0  0  0  0  0  0999 V2000
    6.7794   13.4205   22.0080 O   0  0  0  0  0  0  0  0  0  0  0  0
    7.0543   14.2916   22.8332 C   0  0  0  0  0  0  0  0  0  0  0  0
    8.1349   15.1249   22.7330 O   0  0  0  0  0  0  0  0  0  0  0  0
    9.2642   14.6625   21.9323 C   0  0  1  0  0  0  0  0  0  0  0  0
    9.1464   14.9906   20.4870 C   0  0  0  0  0  0  0  0  0  0  0  0
   10.2425   15.0719   19.7231 C   0  0  0  0  0  0  0  0  0  0  0  0
   11.5624   14.8528   20.3709 C   0  0  0  0  0  0  0  0  0  0  0  0
   11.6069   15.5972   21.5784 O   0  0  0  0  0  0  0  0  0  0  0  0
   10.6140   15.1686   22.5171 C   0  0  0  0  0  0  0  0  0  0  0  0
    6.2173   14.4691   24.1342 C   0  0  0  0  0  0  0  0  0  0  0  0
    5.8039   13.1000   24.7417 C   0  0  0  0  0  0  0  0  0  0  0  0
    6.7529   12.4230   25.7530 C   0  0  0  0  0  0  0  0  0  0  0  0
    7.8428   13.3354   26.1892 N   0  0  0  0  0  0  0  0  0  0  0  0
    9.1670   13.3717   25.1540 S   0  0  0  0  0  0  0  0  0  0  0  0
    9.7057   14.7072   25.1611 O   0  0  0  0  0  0  0  0  0  0  0  0
    8.7254   12.7147   23.9509 O   0  0  0  0  0  0  0  0  0  0  0  0
   10.2987   12.3275   25.8334 N   0  0  0  0  0  0  0  0  0  0  0  0
   11.5760   12.9869   26.2231 C   0  0  0  0  0  0  0  0  0  0  0  0
   12.6807   12.6186   25.2569 C   0  0  0  0  0  0  0  0  0  0  0  0
   12.9573   11.1387   25.4305 C   0  0  0  0  0  0  0  0  0  0  0  0
   11.6720   10.2780   25.2895 C   0  0  0  0  0  0  0  0  0  0  0  0
   10.4227   11.0805   25.0023 C   0  0  0  0  0  0  0  0  0  0  0  0
    7.2627   14.6693   26.5004 C   0  0  0  0  0  0  0  0  0  0  0  0
    6.7685   15.3868   25.2361 C   0  0  0  0  0  0  0  0  0  0  0  0
  1  2  2  0
  2  3  1  0
  4  3  1  1
  4  5  1  0
  5  6  2  0
  6  7  1  0
  7  8  1  0
  8  9  1  0
  2 10  1  0
 10 11  1  0
 11 12  1  0
 12 13  1  0
 13 14  1  0
 14 15  2  0
 14 16  2  0
 14 17  1  0
 17 18  1  0
 18 19  1  0
 19 20  1  0
 20 21  1  0
 21 22  1  0
 13 23  1  0
 23 24  1  0
  9  4  1  0
 24 10  1  0
 22 17  1  0
M  END
>  <energy_score>  (1702) 
-10.85038

>  <inchikey>  (1702) 
YHTXAKLMEWRTTI-UHFFFAOYSA-N

>  <smiles>  (1702) 
O=C(OC1C=CCOC1)C1CCN(S(=O)(=O)N2CCCCC2)CC1

>  <ref_pdb>  (1702) 
A0875a

>  <alias>  (1702) 
YHTXAKLMEWRTTI-UHFFFAOYSA-N-P439-P87-P439-601505

>  <HIPPO Pose ID>  (1702) 
507677

>  <name>  (1702) 
YHTXAKLMEWRTTI-UHFFFAOYSA-N-P439-P87-P439-601505

>  <HIPPO Compound ID>  (1702) 
314374

>  <ref_mols>  (1702) 
A4706a,A0875a

>  <distance_score>  (1702) 
1.555487

>  <inspiration_score>  (1702) 
None

$$$$
BIVMVLCHXGCTEU-UHFFFAOYSA-N-P439-P87-P439-601505
     RDKit          3D

 24 26  0  0  0  0  0  0  0  0999 V2000
   16.0475   13.3507   30.3802 C   0  0  0  0  0  0  0  0  0  0  0  0
   16.0713   13.4412   28.9590 O   0  0  0  0  0  0  0  0  0  0  0  0
   17.0834   12.5933   28.3838 C   0  0  0  0  0  0  0  0  0  0  0  0
   16.5532   11.1941   28.2272 C   0  0  0  0  0  0  0  0  0  0  0  0
   15.1396   11.1344   27.9247 O   0  0  0  0  0  0  0  0  0  0  0  0
   14.7373   11.4342   26.6583 C   0  0  0  0  0  0  0  0  0  0  0  0
   15.4467   11.4607   25.6645 O   0  0  0  0  0  0  0  0  0  0  0  0
   13.2582   11.7862   26.6502 C   0  0  0  0  0  0  0  0  0  0  0  0
   13.1482   13.2567   26.6977 C   0  0  0  0  0  0  0  0  0  0  0  0
   11.7179   13.7573   26.7732 C   0  0  0  0  0  0  0  0  0  0  0  0
   10.8032   12.9928   25.8864 N   0  0  0  0  0  0  0  0  0  0  0  0
    9.4772   13.9596   25.4475 S   0  0  0  0  0  0  0  0  0  0  0  0
    9.8669   14.7901   24.3345 O   0  0  0  0  0  0  0  0  0  0  0  0
    8.9988   14.5453   26.6778 O   0  0  0  0  0  0  0  0  0  0  0  0
    8.3160   12.8546   24.9276 N   0  0  0  0  0  0  0  0  0  0  0  0
    8.1254   11.6316   25.7447 C   0  0  0  0  0  0  0  0  0  0  0  0
    6.6850   11.4211   26.1902 C   0  0  0  0  0  0  0  0  0  0  0  0
    6.0881   12.6962   26.7597 C   0  0  0  0  0  0  0  0  0  0  0  0
    6.1510   13.8347   25.7433 C   0  0  0  0  0  0  0  0  0  0  0  0
    7.0368   13.5213   24.5350 C   0  0  0  0  0  0  0  0  0  0  0  0
   11.5021   12.3194   24.7893 C   0  0  0  0  0  0  0  0  0  0  0  0
   12.5366   11.3278   25.3828 C   0  0  0  0  0  0  0  0  0  0  0  0
   17.0532   10.1178   29.1632 C   0  0  0  0  0  0  0  0  0  0  0  0
   17.4407   10.0890   27.7129 C   0  0  0  0  0  0  0  0  0  0  0  0
  1  2  1  0
  2  3  1  0
  3  4  1  0
  4  5  1  0
  5  6  1  0
  6  7  2  0
  6  8  1  0
  8  9  1  0
  9 10  1  0
 10 11  1  0
 11 12  1  0
 12 13  2  0
 12 14  2  0
 12 15  1  0
 15 16  1  0
 16 17  1  0
 17 18  1  0
 18 19  1  0
 19 20  1  0
 11 21  1  0
 21 22  1  0
  4 23  1  0
 23 24  1  0
 24  4  1  0
 22  8  1  0
 20 15  1  0
M  END
>  <energy_score>  (1703) 
-66.740569

>  <inchikey>  (1703) 
BIVMVLCHXGCTEU-UHFFFAOYSA-N

>  <smiles>  (1703) 
COCC1(OC(=O)C2CCN(S(=O)(=O)N3CCCCC3)CC2)CC1

>  <ref_pdb>  (1703) 
A0875a

>  <alias>  (1703) 
BIVMVLCHXGCTEU-UHFFFAOYSA-N-P439-P87-P439-601505

>  <HIPPO Pose ID>  (1703) 
507679

>  <name>  (1703) 
BIVMVLCHXGCTEU-UHFFFAOYSA-N-P439-P87-P439-601505

>  <HIPPO Compound ID>  (1703) 
314375

>  <ref_mols>  (1703) 
A4706a,A0875a

>  <distance_score>  (1703) 
1.494386

>  <inspiration_score>  (1703) 
None

$$$$
JBTUBECIVPSUQD-UHFFFAOYSA-N-P87-P87-P439-601505
     RDKit          3D

 24 25  0  0  0  0  0  0  0  0999 V2000
   17.8480    9.9517   29.8189 C   0  0  0  0  0  0  0  0  0  0  0  0
   16.6300   10.6787   29.7189 O   0  0  0  0  0  0  0  0  0  0  0  0
   16.2471   10.8889   28.3597 C   0  0  0  0  0  0  0  0  0  0  0  0
   14.9490   11.7215   28.3139 C   0  0  1  0  0  0  0  0  0  0  0  0
   15.2062   13.2273   28.2815 C   0  0  0  0  0  0  0  0  0  0  0  0
   15.7398   13.9297   30.0104 Br  0  0  0  0  0  0  0  0  0  0  0  0
   14.0445   11.3714   27.2074 O   0  0  0  0  0  0  0  0  0  0  0  0
   14.5381   11.2411   25.9650 C   0  0  0  0  0  0  0  0  0  0  0  0
   15.7265   11.3293   25.6879 O   0  0  0  0  0  0  0  0  0  0  0  0
   13.4733   11.0720   24.8788 C   0  0  0  0  0  0  0  0  0  0  0  0
   13.0577   12.4712   24.4839 C   0  0  0  0  0  0  0  0  0  0  0  0
   11.9305   12.8790   25.3941 C   0  0  0  0  0  0  0  0  0  0  0  0
   10.6724   12.1074   25.1322 N   0  0  0  0  0  0  0  0  0  0  0  0
    9.4744   13.2390   24.7720 S   0  0  0  0  0  0  0  0  0  0  0  0
    9.8727   13.9254   23.5673 O   0  0  0  0  0  0  0  0  0  0  0  0
    9.4029   13.9199   26.0393 O   0  0  0  0  0  0  0  0  0  0  0  0
    7.9793   12.5248   24.5109 N   0  0  0  0  0  0  0  0  0  0  0  0
    7.4537   11.6084   25.5170 C   0  0  0  0  0  0  0  0  0  0  0  0
    6.7414   12.2996   26.6577 C   0  0  0  0  0  0  0  0  0  0  0  0
    5.6215   13.2189   26.2511 C   0  0  0  0  0  0  0  0  0  0  0  0
    5.6999   13.7589   24.8366 C   0  0  0  0  0  0  0  0  0  0  0  0
    6.9476   13.4970   23.9781 C   0  0  0  0  0  0  0  0  0  0  0  0
   10.8679   10.8805   24.3605 C   0  0  0  0  0  0  0  0  0  0  0  0
   12.1837   10.1466   24.8272 C   0  0  0  0  0  0  0  0  0  0  0  0
  1  2  1  0
  2  3  1  0
  4  3  1  6
  4  5  1  0
  5  6  1  0
  4  7  1  0
  7  8  1  0
  8  9  2  0
  8 10  1  0
 10 11  1  0
 11 12  1  0
 12 13  1  0
 13 14  1  0
 14 15  2  0
 14 16  2  0
 14 17  1  0
 17 18  1  0
 18 19  1  0
 19 20  1  0
 20 21  1  0
 21 22  1  0
 13 23  1  0
 23 24  1  0
 24 10  1  0
 22 17  1  0
M  END
>  <energy_score>  (1704) 
-41.924692

>  <inchikey>  (1704) 
JBTUBECIVPSUQD-UHFFFAOYSA-N

>  <smiles>  (1704) 
COCC(CBr)OC(=O)C1CCN(S(=O)(=O)N2CCCCC2)CC1

>  <ref_pdb>  (1704) 
A0875a

>  <alias>  (1704) 
JBTUBECIVPSUQD-UHFFFAOYSA-N-P87-P87-P439-601505

>  <HIPPO Pose ID>  (1704) 
507682

>  <name>  (1704) 
JBTUBECIVPSUQD-UHFFFAOYSA-N-P87-P87-P439-601505

>  <HIPPO Compound ID>  (1704) 
314377

>  <ref_mols>  (1704) 
A4706a,A0875a

>  <distance_score>  (1704) 
1.233874

>  <inspiration_score>  (1704) 
None

$$$$
AQBPLMQGMLAYHT-UHFFFAOYSA-N-P87-P87-P439-601505
     RDKit          3D

 24 26  0  0  0  0  0  0  0  0999 V2000
   16.1902   10.4343   26.4234 C   0  0  0  0  0  0  0  0  0  0  0  0
   15.4436   11.6372   27.0213 C   0  0  0  0  0  0  0  0  0  0  0  0
   15.2460   11.4123   28.5330 C   0  0  0  0  0  0  0  0  0  0  0  0
   14.0785   11.7876   26.4770 O   0  0  0  0  0  0  0  0  0  0  0  0
   13.8725   11.8785   25.1349 C   0  0  0  0  0  0  0  0  0  0  0  0
   14.6936   11.5627   24.2843 O   0  0  0  0  0  0  0  0  0  0  0  0
   12.4980   12.4503   24.7901 C   0  0  0  0  0  0  0  0  0  0  0  0
   12.6043   13.1744   23.4506 C   0  0  0  0  0  0  0  0  0  0  0  0
   11.3295   13.7487   22.8952 C   0  0  0  0  0  0  0  0  0  0  0  0
   10.1425   12.9902   23.3440 N   0  0  0  0  0  0  0  0  0  0  0  0
    9.2074   13.8875   24.3854 S   0  0  0  0  0  0  0  0  0  0  0  0
    9.0650   15.1608   23.7239 O   0  0  0  0  0  0  0  0  0  0  0  0
    9.7932   13.7634   25.7030 O   0  0  0  0  0  0  0  0  0  0  0  0
    7.7449   13.0916   24.3850 N   0  0  0  0  0  0  0  0  0  0  0  0
    7.4958   11.9750   25.2839 C   0  0  0  0  0  0  0  0  0  0  0  0
    6.7020   12.4008   26.4950 C   0  0  0  0  0  0  0  0  0  0  0  0
    5.4960   13.2738   26.2227 C   0  0  0  0  0  0  0  0  0  0  0  0
    5.4171   13.9653   24.8639 C   0  0  0  0  0  0  0  0  0  0  0  0
    6.5555   13.7911   23.8520 C   0  0  0  0  0  0  0  0  0  0  0  0
   10.4116   11.5743   23.5649 C   0  0  0  0  0  0  0  0  0  0  0  0
   11.3807   11.3976   24.7267 C   0  0  0  0  0  0  0  0  0  0  0  0
   16.2406   12.8902   26.7491 C   0  0  2  0  0  0  0  0  0  0  0  0
   17.4437   13.3268   27.5526 C   0  0  0  0  0  0  0  0  0  0  0  0
   16.1495   13.9193   27.7415 O   0  0  0  0  0  0  0  0  0  0  0  0
  1  2  1  0
  2  3  1  0
  2  4  1  0
  4  5  1  0
  5  6  2  0
  5  7  1  0
  7  8  1  0
  8  9  1  0
  9 10  1  0
 10 11  1  0
 11 12  2  0
 11 13  2  0
 11 14  1  0
 14 15  1  0
 15 16  1  0
 16 17  1  0
 17 18  1  0
 18 19  1  0
 10 20  1  0
 20 21  1  0
 22  2  1  1
 22 23  1  0
 23 24  1  0
 21  7  1  0
 24 22  1  0
 19 14  1  0
M  END
>  <energy_score>  (1705) 
-46.296953

>  <inchikey>  (1705) 
AQBPLMQGMLAYHT-UHFFFAOYSA-N

>  <smiles>  (1705) 
CC(C)(OC(=O)C1CCN(S(=O)(=O)N2CCCCC2)CC1)C1CO1

>  <ref_pdb>  (1705) 
A0875a

>  <alias>  (1705) 
AQBPLMQGMLAYHT-UHFFFAOYSA-N-P87-P87-P439-601505

>  <HIPPO Pose ID>  (1705) 
507684

>  <name>  (1705) 
AQBPLMQGMLAYHT-UHFFFAOYSA-N-P87-P87-P439-601505

>  <HIPPO Compound ID>  (1705) 
314378

>  <ref_mols>  (1705) 
A4706a,A0875a

>  <distance_score>  (1705) 
1.522396

>  <inspiration_score>  (1705) 
None

$$$$
DKEDSPUURMVLHM-UHFFFAOYSA-N-P87-P87-P439-601505
     RDKit          3D

 25 26  0  0  0  0  0  0  0  0999 V2000
   16.0207   13.7345   30.5647 C   0  0  0  0  0  0  0  0  0  0  0  0
   15.9284   12.7652   29.5178 O   0  0  0  0  0  0  0  0  0  0  0  0
   15.0826   13.1190   28.5096 C   0  0  0  0  0  0  0  0  0  0  0  0
   14.4401   14.1615   28.4773 O   0  0  0  0  0  0  0  0  0  0  0  0
   14.9785   12.0055   27.4688 C   0  0  2  0  0  0  0  0  0  0  0  0
   16.3282   11.7771   26.7796 C   0  0  0  0  0  0  0  0  0  0  0  0
   16.4725   10.3804   26.3487 N   0  0  0  0  0  0  0  0  0  0  0  0
   13.9467   12.4366   26.5426 O   0  0  0  0  0  0  0  0  0  0  0  0
   13.4520   11.6215   25.5888 C   0  0  0  0  0  0  0  0  0  0  0  0
   13.8665   10.5014   25.3256 O   0  0  0  0  0  0  0  0  0  0  0  0
   12.2306   12.2556   24.9566 C   0  0  0  0  0  0  0  0  0  0  0  0
   12.5926   13.0032   23.6941 C   0  0  0  0  0  0  0  0  0  0  0  0
   11.4174   13.6497   22.9895 C   0  0  0  0  0  0  0  0  0  0  0  0
   10.1340   12.9712   23.3086 N   0  0  0  0  0  0  0  0  0  0  0  0
    9.1698   13.8812   24.3224 S   0  0  0  0  0  0  0  0  0  0  0  0
    9.0805   15.1615   23.6668 O   0  0  0  0  0  0  0  0  0  0  0  0
    9.6911   13.7367   25.6645 O   0  0  0  0  0  0  0  0  0  0  0  0
    7.6877   13.1067   24.2768 N   0  0  0  0  0  0  0  0  0  0  0  0
    7.4128   12.0060   25.1954 C   0  0  0  0  0  0  0  0  0  0  0  0
    6.6764   12.4483   26.4328 C   0  0  0  0  0  0  0  0  0  0  0  0
    5.4766   13.3352   26.1856 C   0  0  0  0  0  0  0  0  0  0  0  0
    5.3807   14.0227   24.8242 C   0  0  0  0  0  0  0  0  0  0  0  0
    6.5097   13.8656   23.7961 C   0  0  0  0  0  0  0  0  0  0  0  0
   10.2799   11.5308   23.4669 C   0  0  0  0  0  0  0  0  0  0  0  0
   11.1175   11.2219   24.6908 C   0  0  0  0  0  0  0  0  0  0  0  0
  1  2  1  0
  2  3  1  0
  3  4  2  0
  3  5  1  0
  5  6  1  6
  6  7  1  0
  5  8  1  0
  8  9  1  0
  9 10  2  0
  9 11  1  0
 11 12  1  0
 12 13  1  0
 13 14  1  0
 14 15  1  0
 15 16  2  0
 15 17  2  0
 15 18  1  0
 18 19  1  0
 19 20  1  0
 20 21  1  0
 21 22  1  0
 22 23  1  0
 14 24  1  0
 24 25  1  0
 25 11  1  0
 23 18  1  0
M  END
>  <energy_score>  (1706) 
-46.892321

>  <inchikey>  (1706) 
DKEDSPUURMVLHM-UHFFFAOYSA-N

>  <smiles>  (1706) 
COC(=O)C(CN)OC(=O)C1CCN(S(=O)(=O)N2CCCCC2)CC1

>  <ref_pdb>  (1706) 
A0875a

>  <alias>  (1706) 
DKEDSPUURMVLHM-UHFFFAOYSA-N-P87-P87-P439-601505

>  <HIPPO Pose ID>  (1706) 
507696

>  <name>  (1706) 
DKEDSPUURMVLHM-UHFFFAOYSA-N-P87-P87-P439-601505

>  <HIPPO Compound ID>  (1706) 
314384

>  <ref_mols>  (1706) 
A4706a,A0875a

>  <distance_score>  (1706) 
1.639342

>  <inspiration_score>  (1706) 
None

$$$$
QJQFNTSESIQPFJ-UHFFFAOYSA-N-P439-P87-P439-601505
     RDKit          3D

 25 26  0  0  0  0  0  0  0  0999 V2000
   17.1742   10.1026   27.2080 C   0  0  0  0  0  0  0  0  0  0  0  0
   15.9563   10.8458   26.6797 C   0  0  0  0  0  0  0  0  0  0  0  0
   15.7609   12.2702   27.1811 C   0  0  1  0  0  0  0  0  0  0  0  0
   14.6129   12.8217   26.4686 O   0  0  0  0  0  0  0  0  0  0  0  0
   13.4120   12.4402   26.9591 C   0  0  0  0  0  0  0  0  0  0  0  0
   13.2841   11.7488   27.9628 O   0  0  0  0  0  0  0  0  0  0  0  0
   12.2053   12.8155   26.1415 C   0  0  0  0  0  0  0  0  0  0  0  0
   12.3115   13.8958   25.0691 C   0  0  0  0  0  0  0  0  0  0  0  0
   11.3877   13.7036   23.8563 C   0  0  0  0  0  0  0  0  0  0  0  0
   10.1282   13.0513   24.2856 N   0  0  0  0  0  0  0  0  0  0  0  0
    9.0431   14.1723   24.9072 S   0  0  0  0  0  0  0  0  0  0  0  0
    8.5201   14.9131   23.7882 O   0  0  0  0  0  0  0  0  0  0  0  0
    9.7004   14.8598   25.9961 O   0  0  0  0  0  0  0  0  0  0  0  0
    7.8093   13.3176   25.6161 N   0  0  0  0  0  0  0  0  0  0  0  0
    7.1217   12.2296   24.9157 C   0  0  0  0  0  0  0  0  0  0  0  0
    6.5860   11.3272   26.0300 C   0  0  0  0  0  0  0  0  0  0  0  0
    5.5722   12.0813   26.8927 C   0  0  0  0  0  0  0  0  0  0  0  0
    6.1459   13.3969   27.4133 C   0  0  0  0  0  0  0  0  0  0  0  0
    6.8160   14.1978   26.3030 C   0  0  0  0  0  0  0  0  0  0  0  0
   10.3570   11.7483   24.9277 C   0  0  0  0  0  0  0  0  0  0  0  0
   11.8008   11.5882   25.3726 C   0  0  0  0  0  0  0  0  0  0  0  0
   15.6883   12.5506   28.6920 C   0  0  0  0  0  0  0  0  0  0  0  0
   15.3665   13.6625   29.1097 O   0  0  0  0  0  0  0  0  0  0  0  0
   16.0160   11.4925   29.4652 O   0  0  0  0  0  0  0  0  0  0  0  0
   15.8916   11.7259   30.8691 C   0  0  0  0  0  0  0  0  0  0  0  0
  1  2  1  0
  3  2  1  1
  3  4  1  0
  4  5  1  0
  5  6  2  0
  5  7  1  0
  7  8  1  0
  8  9  1  0
  9 10  1  0
 10 11  1  0
 11 12  2  0
 11 13  2  0
 11 14  1  0
 14 15  1  0
 15 16  1  0
 16 17  1  0
 17 18  1  0
 18 19  1  0
 10 20  1  0
 20 21  1  0
  3 22  1  0
 22 23  2  0
 22 24  1  0
 24 25  1  0
 21  7  1  0
 19 14  1  0
M  END
>  <energy_score>  (1707) 
-49.410125

>  <inchikey>  (1707) 
QJQFNTSESIQPFJ-UHFFFAOYSA-N

>  <smiles>  (1707) 
CCC(OC(=O)C1CCN(S(=O)(=O)N2CCCCC2)CC1)C(=O)OC

>  <ref_pdb>  (1707) 
A0875a

>  <alias>  (1707) 
QJQFNTSESIQPFJ-UHFFFAOYSA-N-P439-P87-P439-601505

>  <HIPPO Pose ID>  (1707) 
507699

>  <name>  (1707) 
QJQFNTSESIQPFJ-UHFFFAOYSA-N-P439-P87-P439-601505

>  <HIPPO Compound ID>  (1707) 
314385

>  <ref_mols>  (1707) 
A4706a,A0875a

>  <distance_score>  (1707) 
1.89912

>  <inspiration_score>  (1707) 
None

$$$$
WXJYXDUPTWVORK-UHFFFAOYSA-N-P439-P87-P439-601505
     RDKit          3D

 25 27  0  0  0  0  0  0  0  0999 V2000
    6.9236   13.8243   21.9077 O   0  0  0  0  0  0  0  0  0  0  0  0
    7.1274   14.5768   22.8613 C   0  0  0  0  0  0  0  0  0  0  0  0
    8.1590   15.4713   22.9292 O   0  0  0  0  0  0  0  0  0  0  0  0
    9.2290   15.3357   21.9397 C   0  0  1  0  0  0  0  0  0  0  0  0
    9.1654   16.3891   20.8365 C   0  0  0  0  0  0  0  0  0  0  0  0
    9.4722   15.7950   19.5238 N   0  0  0  0  0  0  0  0  0  0  0  0
   10.8021   15.2386   19.3202 C   0  0  0  0  0  0  0  0  0  0  0  0
   11.6200   14.7314   20.5117 C   0  0  0  0  0  0  0  0  0  0  0  0
   11.6864   15.6449   21.6032 O   0  0  0  0  0  0  0  0  0  0  0  0
   10.6407   15.4136   22.5501 C   0  0  0  0  0  0  0  0  0  0  0  0
    6.2209   14.5231   24.1181 C   0  0  0  0  0  0  0  0  0  0  0  0
    5.8936   13.0608   24.4967 C   0  0  0  0  0  0  0  0  0  0  0  0
    6.9881   12.2809   25.2458 C   0  0  0  0  0  0  0  0  0  0  0  0
    7.9097   13.1916   25.9709 N   0  0  0  0  0  0  0  0  0  0  0  0
    9.2983   13.6427   25.1342 S   0  0  0  0  0  0  0  0  0  0  0  0
    9.5047   15.0366   25.4134 O   0  0  0  0  0  0  0  0  0  0  0  0
    9.1961   13.1381   23.7896 O   0  0  0  0  0  0  0  0  0  0  0  0
   10.5642   12.8148   25.8557 N   0  0  0  0  0  0  0  0  0  0  0  0
   11.8080   13.6446   25.9558 C   0  0  0  0  0  0  0  0  0  0  0  0
   12.7867   13.2636   24.8523 C   0  0  0  0  0  0  0  0  0  0  0  0
   13.3627   11.9032   25.1387 C   0  0  0  0  0  0  0  0  0  0  0  0
   12.2352   11.0403   25.6077 C   0  0  0  0  0  0  0  0  0  0  0  0
   10.8172   11.4832   25.2452 C   0  0  0  0  0  0  0  0  0  0  0  0
    7.1488   14.3563   26.5221 C   0  0  0  0  0  0  0  0  0  0  0  0
    6.6322   15.2733   25.3934 C   0  0  0  0  0  0  0  0  0  0  0  0
  1  2  2  0
  2  3  1  0
  4  3  1  1
  4  5  1  0
  5  6  1  0
  6  7  1  0
  7  8  1  0
  8  9  1  0
  9 10  1  0
  2 11  1  0
 11 12  1  0
 12 13  1  0
 13 14  1  0
 14 15  1  0
 15 16  2  0
 15 17  2  0
 15 18  1  0
 18 19  1  0
 19 20  1  0
 20 21  1  0
 21 22  1  0
 22 23  1  0
 14 24  1  0
 24 25  1  0
 10  4  1  0
 25 11  1  0
 23 18  1  0
M  END
>  <energy_score>  (1708) 
-52.409986

>  <inchikey>  (1708) 
WXJYXDUPTWVORK-UHFFFAOYSA-N

>  <smiles>  (1708) 
O=C(OC1CNCCOC1)C1CCN(S(=O)(=O)N2CCCCC2)CC1

>  <ref_pdb>  (1708) 
A0875a

>  <alias>  (1708) 
WXJYXDUPTWVORK-UHFFFAOYSA-N-P439-P87-P439-601505

>  <HIPPO Pose ID>  (1708) 
507703

>  <name>  (1708) 
WXJYXDUPTWVORK-UHFFFAOYSA-N-P439-P87-P439-601505

>  <HIPPO Compound ID>  (1708) 
314387

>  <ref_mols>  (1708) 
A4706a,A0875a

>  <distance_score>  (1708) 
1.594022

>  <inspiration_score>  (1708) 
None

$$$$
CALPBEFGCAHIQT-UHFFFAOYSA-N-P87-P87-P439-601505
     RDKit          3D

 25 27  0  0  0  0  0  0  0  0999 V2000
   16.4452    9.3605   25.9473 C   0  0  0  0  0  0  0  0  0  0  0  0
   15.9493   10.3532   26.4052 C   0  0  0  0  0  0  0  0  0  0  0  0
   15.3639   11.5881   26.9670 C   0  0  2  0  0  0  0  0  0  0  0  0
   14.0279   11.8376   26.4429 O   0  0  0  0  0  0  0  0  0  0  0  0
   13.8787   11.9820   25.0947 C   0  0  0  0  0  0  0  0  0  0  0  0
   14.7401   11.7373   24.2618 O   0  0  0  0  0  0  0  0  0  0  0  0
   12.5017   12.5237   24.7281 C   0  0  0  0  0  0  0  0  0  0  0  0
   12.5788   13.2039   23.3639 C   0  0  0  0  0  0  0  0  0  0  0  0
   11.2890   13.7177   22.7802 C   0  0  0  0  0  0  0  0  0  0  0  0
   10.1165   13.0007   23.3213 N   0  0  0  0  0  0  0  0  0  0  0  0
    9.2775   13.9603   24.3888 S   0  0  0  0  0  0  0  0  0  0  0  0
    9.0314   15.1824   23.6659 O   0  0  0  0  0  0  0  0  0  0  0  0
   10.0143   13.9393   25.6367 O   0  0  0  0  0  0  0  0  0  0  0  0
    7.8415   13.1112   24.6151 N   0  0  0  0  0  0  0  0  0  0  0  0
    7.7569   12.3171   25.8430 C   0  0  0  0  0  0  0  0  0  0  0  0
    6.3607   11.9206   26.2387 C   0  0  0  0  0  0  0  0  0  0  0  0
    5.4661   13.1327   26.3058 C   0  0  0  0  0  0  0  0  0  0  0  0
    5.4276   13.8868   24.9861 C   0  0  0  0  0  0  0  0  0  0  0  0
    6.6059   13.6879   24.0231 C   0  0  0  0  0  0  0  0  0  0  0  0
   10.3865   11.5938   23.6004 C   0  0  0  0  0  0  0  0  0  0  0  0
   11.3947   11.4612   24.7336 C   0  0  0  0  0  0  0  0  0  0  0  0
   16.2998   12.7738   26.8326 C   0  0  0  0  0  0  0  0  0  0  0  0
   17.2941   12.5572   27.9523 C   0  0  0  0  0  0  0  0  0  0  0  0
   16.5564   11.9637   29.0299 O   0  0  0  0  0  0  0  0  0  0  0  0
   15.3017   11.4949   28.5020 C   0  0  0  0  0  0  0  0  0  0  0  0
  1  2  3  0
  3  2  1  6
  3  4  1  0
  4  5  1  0
  5  6  2  0
  5  7  1  0
  7  8  1  0
  8  9  1  0
  9 10  1  0
 10 11  1  0
 11 12  2  0
 11 13  2  0
 11 14  1  0
 14 15  1  0
 15 16  1  0
 16 17  1  0
 17 18  1  0
 18 19  1  0
 10 20  1  0
 20 21  1  0
  3 22  1  0
 22 23  1  0
 23 24  1  0
 24 25  1  0
 25  3  1  0
 21  7  1  0
 19 14  1  0
M  END
>  <energy_score>  (1709) 
-32.840724

>  <inchikey>  (1709) 
CALPBEFGCAHIQT-UHFFFAOYSA-N

>  <smiles>  (1709) 
C#CC1(OC(=O)C2CCN(S(=O)(=O)N3CCCCC3)CC2)CCOC1

>  <ref_pdb>  (1709) 
A0875a

>  <alias>  (1709) 
CALPBEFGCAHIQT-UHFFFAOYSA-N-P87-P87-P439-601505

>  <HIPPO Pose ID>  (1709) 
507708

>  <name>  (1709) 
CALPBEFGCAHIQT-UHFFFAOYSA-N-P87-P87-P439-601505

>  <HIPPO Compound ID>  (1709) 
314390

>  <ref_mols>  (1709) 
A4706a,A0875a

>  <distance_score>  (1709) 
1.532467

>  <inspiration_score>  (1709) 
None

$$$$
OUDAPDHWTIBFFN-UHFFFAOYSA-N-P439-P87-P439-601505
     RDKit          3D

 25 27  0  0  0  0  0  0  0  0999 V2000
    7.8657   14.7447   20.9375 N   0  0  0  0  0  0  0  0  0  0  0  0
    9.2731   14.4016   21.0553 C   0  0  1  0  0  0  0  0  0  0  0  0
   10.2018   15.2768   20.2278 C   0  0  0  0  0  0  0  0  0  0  0  0
   11.6133   14.9120   20.6458 C   0  0  0  0  0  0  0  0  0  0  0  0
   11.8953   15.1991   22.0131 O   0  0  0  0  0  0  0  0  0  0  0  0
   10.7441   15.3157   22.8391 C   0  0  0  0  0  0  0  0  0  0  0  0
    9.6806   14.2804   22.5223 C   0  0  1  0  0  0  0  0  0  0  0  0
    8.5252   14.4258   23.3923 O   0  0  0  0  0  0  0  0  0  0  0  0
    7.7336   13.3247   23.4896 C   0  0  0  0  0  0  0  0  0  0  0  0
    8.0572   12.2208   23.0610 O   0  0  0  0  0  0  0  0  0  0  0  0
    6.4046   13.5175   24.2183 C   0  0  0  0  0  0  0  0  0  0  0  0
    6.3013   12.4797   25.3676 C   0  0  0  0  0  0  0  0  0  0  0  0
    7.1756   12.8465   26.5827 C   0  0  0  0  0  0  0  0  0  0  0  0
    7.9330   14.0418   26.2011 N   0  0  0  0  0  0  0  0  0  0  0  0
    9.4332   14.4431   26.7726 S   0  0  0  0  0  0  0  0  0  0  0  0
    9.3146   14.7173   28.1779 O   0  0  0  0  0  0  0  0  0  0  0  0
    9.9705   15.4279   25.8627 O   0  0  0  0  0  0  0  0  0  0  0  0
   10.3988   13.0620   26.6075 N   0  0  0  0  0  0  0  0  0  0  0  0
   10.1847   12.3830   25.3421 C   0  0  0  0  0  0  0  0  0  0  0  0
   11.1261   11.2596   25.0836 C   0  0  0  0  0  0  0  0  0  0  0  0
   12.5914   11.6569   25.2904 C   0  0  0  0  0  0  0  0  0  0  0  0
   12.7496   13.0901   25.7099 C   0  0  0  0  0  0  0  0  0  0  0  0
   11.8377   13.3855   26.8850 C   0  0  0  0  0  0  0  0  0  0  0  0
    7.0190   15.1936   26.0101 C   0  0  0  0  0  0  0  0  0  0  0  0
    6.1854   14.9300   24.7613 C   0  0  0  0  0  0  0  0  0  0  0  0
  2  1  1  1
  2  3  1  0
  3  4  1  0
  4  5  1  0
  5  6  1  0
  6  7  1  0
  7  8  1  1
  8  9  1  0
  9 10  2  0
  9 11  1  0
 11 12  1  0
 12 13  1  0
 13 14  1  0
 14 15  1  0
 15 16  2  0
 15 17  2  0
 15 18  1  0
 18 19  1  0
 19 20  1  0
 20 21  1  0
 21 22  1  0
 22 23  1  0
 14 24  1  0
 24 25  1  0
  7  2  1  0
 25 11  1  0
 23 18  1  0
M  END
>  <energy_score>  (1710) 
-35.854611

>  <inchikey>  (1710) 
OUDAPDHWTIBFFN-UHFFFAOYSA-N

>  <smiles>  (1710) 
NC1CCOCC1OC(=O)C1CCN(S(=O)(=O)N2CCCCC2)CC1

>  <ref_pdb>  (1710) 
A0875a

>  <alias>  (1710) 
OUDAPDHWTIBFFN-UHFFFAOYSA-N-P439-P87-P439-601505

>  <HIPPO Pose ID>  (1710) 
507711

>  <name>  (1710) 
OUDAPDHWTIBFFN-UHFFFAOYSA-N-P439-P87-P439-601505

>  <HIPPO Compound ID>  (1710) 
314391

>  <ref_mols>  (1710) 
A4706a,A0875a

>  <distance_score>  (1710) 
1.733965

>  <inspiration_score>  (1710) 
None

$$$$
GEQYOKOEPUPJHN-UHFFFAOYSA-N-P439-P87-P439-601505
     RDKit          3D

 25 27  0  0  0  0  0  0  0  0999 V2000
    6.6179   13.2394   22.0467 O   0  0  0  0  0  0  0  0  0  0  0  0
    7.7907   13.5350   22.2708 C   0  0  0  0  0  0  0  0  0  0  0  0
    8.5897   13.9600   21.2565 O   0  0  0  0  0  0  0  0  0  0  0  0
   10.0427   14.1393   21.3211 C   0  0  1  0  0  0  0  0  0  0  0  0
   10.7270   14.2878   19.8949 C   0  0  0  0  0  0  0  0  0  0  0  0
   10.8213   15.6260   19.4132 O   0  0  0  0  0  0  0  0  0  0  0  0
    9.6889   16.3351   19.8380 C   0  0  0  0  0  0  0  0  0  0  0  0
    9.8004   16.6215   21.3090 C   0  0  0  0  0  0  0  0  0  0  0  0
   10.3120   15.4232   22.0730 C   0  0  2  0  0  0  0  0  0  0  0  0
   12.2095   15.4640   22.3245 Br  0  0  0  0  0  0  0  0  0  0  0  0
    8.3569   13.3200   23.6503 C   0  0  0  0  0  0  0  0  0  0  0  0
    8.2548   11.8656   24.1101 C   0  0  0  0  0  0  0  0  0  0  0  0
    8.9979   11.6537   25.4254 C   0  0  0  0  0  0  0  0  0  0  0  0
    9.0838   12.8926   26.2149 N   0  0  0  0  0  0  0  0  0  0  0  0
   10.4716   13.8410   26.3437 S   0  0  0  0  0  0  0  0  0  0  0  0
   10.3684   14.4413   27.6479 O   0  0  0  0  0  0  0  0  0  0  0  0
   10.5865   14.6742   25.1720 O   0  0  0  0  0  0  0  0  0  0  0  0
   11.7777   12.7452   26.3392 N   0  0  0  0  0  0  0  0  0  0  0  0
   12.8463   12.9944   27.3645 C   0  0  0  0  0  0  0  0  0  0  0  0
   14.2805   12.7436   26.8914 C   0  0  0  0  0  0  0  0  0  0  0  0
   14.4398   11.4578   26.1452 C   0  0  0  0  0  0  0  0  0  0  0  0
   13.3239   11.3039   25.1438 C   0  0  0  0  0  0  0  0  0  0  0  0
   12.3589   12.4850   25.0158 C   0  0  0  0  0  0  0  0  0  0  0  0
    7.8239   13.6935   26.1188 C   0  0  0  0  0  0  0  0  0  0  0  0
    7.6505   14.2196   24.6873 C   0  0  0  0  0  0  0  0  0  0  0  0
  1  2  2  0
  2  3  1  0
  4  3  1  6
  4  5  1  0
  5  6  1  0
  6  7  1  0
  7  8  1  0
  8  9  1  0
  9 10  1  6
  2 11  1  0
 11 12  1  0
 12 13  1  0
 13 14  1  0
 14 15  1  0
 15 16  2  0
 15 17  2  0
 15 18  1  0
 18 19  1  0
 19 20  1  0
 20 21  1  0
 21 22  1  0
 22 23  1  0
 14 24  1  0
 24 25  1  0
  9  4  1  0
 25 11  1  0
 23 18  1  0
M  END
>  <energy_score>  (1711) 
-11.928593

>  <inchikey>  (1711) 
GEQYOKOEPUPJHN-UHFFFAOYSA-N

>  <smiles>  (1711) 
O=C(OC1COCCC1Br)C1CCN(S(=O)(=O)N2CCCCC2)CC1

>  <ref_pdb>  (1711) 
A0875a

>  <alias>  (1711) 
GEQYOKOEPUPJHN-UHFFFAOYSA-N-P439-P87-P439-601505

>  <HIPPO Pose ID>  (1711) 
507721

>  <name>  (1711) 
GEQYOKOEPUPJHN-UHFFFAOYSA-N-P439-P87-P439-601505

>  <HIPPO Compound ID>  (1711) 
314396

>  <ref_mols>  (1711) 
A4706a,A0875a

>  <distance_score>  (1711) 
1.777966

>  <inspiration_score>  (1711) 
None

$$$$
OYMOMISHKDRNPJ-UHFFFAOYSA-N-P87-P87-P439-601505
     RDKit          3D

 25 26  0  0  0  0  0  0  0  0999 V2000
   12.7309   16.0786   20.5564 C   0  0  0  0  0  0  0  0  0  0  0  0
   12.1989   14.8516   20.6131 C   0  0  0  0  0  0  0  0  0  0  0  0
   11.4902   14.2740   21.7747 C   0  0  0  0  0  0  0  0  0  0  0  0
   10.1040   14.5243   21.6693 O   0  0  0  0  0  0  0  0  0  0  0  0
    9.7627   15.7374   22.3299 C   0  0  0  0  0  0  0  0  0  0  0  0
    8.2971   16.0771   22.0533 C   0  0  2  0  0  0  0  0  0  0  0  0
    8.1964   17.5693   21.8584 C   0  0  0  0  0  0  0  0  0  0  0  0
    7.4799   15.7544   23.1901 O   0  0  0  0  0  0  0  0  0  0  0  0
    6.7079   14.6349   23.0963 C   0  0  0  0  0  0  0  0  0  0  0  0
    5.9213   14.3468   22.2114 O   0  0  0  0  0  0  0  0  0  0  0  0
    7.0929   13.7510   24.2635 C   0  0  0  0  0  0  0  0  0  0  0  0
    7.5232   12.4539   23.7319 C   0  0  0  0  0  0  0  0  0  0  0  0
    8.0419   11.4183   24.6833 C   0  0  0  0  0  0  0  0  0  0  0  0
    8.5426   12.1380   25.8392 N   0  0  0  0  0  0  0  0  0  0  0  0
    9.9104   13.1447   25.4710 S   0  0  0  0  0  0  0  0  0  0  0  0
   10.1131   14.1281   26.5079 O   0  0  0  0  0  0  0  0  0  0  0  0
    9.9434   13.5061   24.0871 O   0  0  0  0  0  0  0  0  0  0  0  0
   11.1967   12.0715   25.5782 N   0  0  0  0  0  0  0  0  0  0  0  0
   11.1381   10.9038   24.6765 C   0  0  0  0  0  0  0  0  0  0  0  0
   12.3460   10.0016   24.8721 C   0  0  0  0  0  0  0  0  0  0  0  0
   13.6732   10.7821   25.0218 C   0  0  0  0  0  0  0  0  0  0  0  0
   13.5040   12.2210   24.6227 C   0  0  0  0  0  0  0  0  0  0  0  0
   12.4632   12.8401   25.5124 C   0  0  0  0  0  0  0  0  0  0  0  0
    7.2810   12.7126   26.5057 C   0  0  0  0  0  0  0  0  0  0  0  0
    6.2958   13.4071   25.5156 C   0  0  0  0  0  0  0  0  0  0  0  0
  1  2  2  0
  2  3  1  0
  3  4  1  0
  4  5  1  0
  5  6  1  0
  6  7  1  1
  6  8  1  0
  8  9  1  0
  9 10  2  0
  9 11  1  0
 11 12  1  0
 12 13  1  0
 13 14  1  0
 14 15  1  0
 15 16  2  0
 15 17  2  0
 15 18  1  0
 18 19  1  0
 19 20  1  0
 20 21  1  0
 21 22  1  0
 22 23  1  0
 14 24  1  0
 24 25  1  0
 25 11  1  0
 23 18  1  0
M  END
>  <energy_score>  (1712) 
-17.020283

>  <inchikey>  (1712) 
OYMOMISHKDRNPJ-UHFFFAOYSA-N

>  <smiles>  (1712) 
C=CCOCC(C)OC(=O)C1CCN(S(=O)(=O)N2CCCCC2)CC1

>  <ref_pdb>  (1712) 
A0875a

>  <alias>  (1712) 
OYMOMISHKDRNPJ-UHFFFAOYSA-N-P87-P87-P439-601505

>  <HIPPO Pose ID>  (1712) 
507724

>  <name>  (1712) 
OYMOMISHKDRNPJ-UHFFFAOYSA-N-P87-P87-P439-601505

>  <HIPPO Compound ID>  (1712) 
314398

>  <ref_mols>  (1712) 
A4706a,A0875a

>  <distance_score>  (1712) 
1.713219

>  <inspiration_score>  (1712) 
None

$$$$
RXKANFORUSLNDD-UHFFFAOYSA-N-P87-P87-P439-601505
     RDKit          3D

 25 27  0  0  0  0  0  0  0  0999 V2000
   17.2207    9.6226   27.2299 C   0  0  0  0  0  0  0  0  0  0  0  0
   17.0187   11.0946   27.5801 C   0  0  0  0  0  0  0  0  0  0  0  0
   18.0659   11.5079   28.6229 C   0  0  0  0  0  0  0  0  0  0  0  0
   15.5472   11.3870   28.0097 C   0  0  0  0  0  0  0  0  0  0  0  0
   14.5591   10.9069   27.0155 O   0  0  0  0  0  0  0  0  0  0  0  0
   14.5536   11.5738   25.8535 C   0  0  0  0  0  0  0  0  0  0  0  0
   15.3777   12.4429   25.5917 O   0  0  0  0  0  0  0  0  0  0  0  0
   13.4919   11.1927   24.8173 C   0  0  0  0  0  0  0  0  0  0  0  0
   12.9321   12.5354   24.3584 C   0  0  0  0  0  0  0  0  0  0  0  0
   11.8835   12.8863   25.3814 C   0  0  0  0  0  0  0  0  0  0  0  0
   10.6358   12.0904   25.1577 N   0  0  0  0  0  0  0  0  0  0  0  0
    9.4351   13.2067   24.7689 S   0  0  0  0  0  0  0  0  0  0  0  0
    9.8361   13.8771   23.5564 O   0  0  0  0  0  0  0  0  0  0  0  0
    9.3543   13.9051   26.0259 O   0  0  0  0  0  0  0  0  0  0  0  0
    7.9400   12.4949   24.5161 N   0  0  0  0  0  0  0  0  0  0  0  0
    7.4160   11.5911   25.5340 C   0  0  0  0  0  0  0  0  0  0  0  0
    6.7196   12.2950   26.6769 C   0  0  0  0  0  0  0  0  0  0  0  0
    5.6021   13.2187   26.2734 C   0  0  0  0  0  0  0  0  0  0  0  0
    5.6759   13.7545   24.8572 C   0  0  0  0  0  0  0  0  0  0  0  0
    6.9141   13.4790   23.9909 C   0  0  0  0  0  0  0  0  0  0  0  0
   10.8626   10.8462   24.4168 C   0  0  0  0  0  0  0  0  0  0  0  0
   12.2463   10.2003   24.8424 C   0  0  0  0  0  0  0  0  0  0  0  0
   15.1872   11.0048   29.4732 C   0  0  0  0  0  0  0  0  0  0  0  0
   15.2477   12.3834   29.9007 O   0  0  0  0  0  0  0  0  0  0  0  0
   15.2833   12.8335   28.5277 C   0  0  0  0  0  0  0  0  0  0  0  0
  1  2  1  0
  2  3  1  0
  2  4  1  0
  4  5  1  0
  5  6  1  0
  6  7  2  0
  6  8  1  0
  8  9  1  0
  9 10  1  0
 10 11  1  0
 11 12  1  0
 12 13  2  0
 12 14  2  0
 12 15  1  0
 15 16  1  0
 16 17  1  0
 17 18  1  0
 18 19  1  0
 19 20  1  0
 11 21  1  0
 21 22  1  0
  4 23  1  0
 23 24  1  0
 24 25  1  0
 25  4  1  0
 22  8  1  0
 20 15  1  0
M  END
>  <energy_score>  (1713) 
-31.693015

>  <inchikey>  (1713) 
RXKANFORUSLNDD-UHFFFAOYSA-N

>  <smiles>  (1713) 
CC(C)C1(OC(=O)C2CCN(S(=O)(=O)N3CCCCC3)CC2)COC1

>  <ref_pdb>  (1713) 
A0875a

>  <alias>  (1713) 
RXKANFORUSLNDD-UHFFFAOYSA-N-P87-P87-P439-601505

>  <HIPPO Pose ID>  (1713) 
507728

>  <name>  (1713) 
RXKANFORUSLNDD-UHFFFAOYSA-N-P87-P87-P439-601505

>  <HIPPO Compound ID>  (1713) 
314400

>  <ref_mols>  (1713) 
A4706a,A0875a

>  <distance_score>  (1713) 
1.219857

>  <inspiration_score>  (1713) 
None

$$$$
HNEAVBWKPSPQSJ-UHFFFAOYSA-N-P87-P87-P439-601505
     RDKit          3D

 25 27  0  0  0  0  0  0  0  0999 V2000
   14.7672   11.8782   30.0370 C   0  0  0  0  0  0  0  0  0  0  0  0
   15.4409   12.7689   28.9908 C   0  0  2  0  0  0  0  0  0  0  0  0
   14.5489   13.8941   28.6595 N   0  0  0  0  0  0  0  0  0  0  0  0
   15.8039   11.9496   27.7259 C   0  0  0  0  0  0  0  0  0  0  0  0
   14.5875   11.6757   26.9483 O   0  0  0  0  0  0  0  0  0  0  0  0
   14.6611   10.8458   25.8864 C   0  0  0  0  0  0  0  0  0  0  0  0
   15.4632    9.9331   25.7561 O   0  0  0  0  0  0  0  0  0  0  0  0
   13.5641   11.0528   24.8563 C   0  0  0  0  0  0  0  0  0  0  0  0
   13.1835   12.4977   24.6596 C   0  0  0  0  0  0  0  0  0  0  0  0
   12.0458   12.8194   25.5854 C   0  0  0  0  0  0  0  0  0  0  0  0
   10.7913   12.1142   25.1851 N   0  0  0  0  0  0  0  0  0  0  0  0
    9.6005   13.2585   24.8236 S   0  0  0  0  0  0  0  0  0  0  0  0
    9.9933   13.9694   23.6341 O   0  0  0  0  0  0  0  0  0  0  0  0
    9.4677   13.9211   26.0963 O   0  0  0  0  0  0  0  0  0  0  0  0
    8.1465   12.4525   24.5495 N   0  0  0  0  0  0  0  0  0  0  0  0
    7.8182   11.3717   25.4820 C   0  0  0  0  0  0  0  0  0  0  0  0
    6.5215   11.4898   26.2561 C   0  0  0  0  0  0  0  0  0  0  0  0
    6.0064   12.8801   26.4449 C   0  0  0  0  0  0  0  0  0  0  0  0
    5.8588   13.5391   25.0974 C   0  0  0  0  0  0  0  0  0  0  0  0
    7.0301   13.3669   24.1221 C   0  0  0  0  0  0  0  0  0  0  0  0
   10.9851   10.9292   24.3465 C   0  0  0  0  0  0  0  0  0  0  0  0
   12.2667   10.1505   24.8001 C   0  0  0  0  0  0  0  0  0  0  0  0
   16.8541   10.8535   28.0299 C   0  0  0  0  0  0  0  0  0  0  0  0
   17.8355   11.4846   27.1784 O   0  0  0  0  0  0  0  0  0  0  0  0
   16.9578   12.6031   26.9331 C   0  0  0  0  0  0  0  0  0  0  0  0
  2  1  1  1
  2  3  1  0
  2  4  1  0
  4  5  1  0
  5  6  1  0
  6  7  2  0
  6  8  1  0
  8  9  1  0
  9 10  1  0
 10 11  1  0
 11 12  1  0
 12 13  2  0
 12 14  2  0
 12 15  1  0
 15 16  1  0
 16 17  1  0
 17 18  1  0
 18 19  1  0
 19 20  1  0
 11 21  1  0
 21 22  1  0
  4 23  1  0
 23 24  1  0
 24 25  1  0
 25  4  1  0
 22  8  1  0
 20 15  1  0
M  END
>  <energy_score>  (1714) 
-57.131999

>  <inchikey>  (1714) 
HNEAVBWKPSPQSJ-UHFFFAOYSA-N

>  <smiles>  (1714) 
CC(N)C1(OC(=O)C2CCN(S(=O)(=O)N3CCCCC3)CC2)COC1

>  <ref_pdb>  (1714) 
A0875a

>  <alias>  (1714) 
HNEAVBWKPSPQSJ-UHFFFAOYSA-N-P87-P87-P439-601505

>  <HIPPO Pose ID>  (1714) 
507734

>  <name>  (1714) 
HNEAVBWKPSPQSJ-UHFFFAOYSA-N-P87-P87-P439-601505

>  <HIPPO Compound ID>  (1714) 
314403

>  <ref_mols>  (1714) 
A4706a,A0875a

>  <distance_score>  (1714) 
1.200195

>  <inspiration_score>  (1714) 
None

$$$$
JNNKKDXKOMOTQA-UHFFFAOYSA-N-P439-P87-P439-601505
     RDKit          3D

 25 28  0  0  0  0  0  0  0  0999 V2000
    6.7322   13.2154   22.3399 O   0  0  0  0  0  0  0  0  0  0  0  0
    6.9665   14.0049   23.2519 C   0  0  0  0  0  0  0  0  0  0  0  0
    7.7554   15.1045   23.1646 O   0  0  0  0  0  0  0  0  0  0  0  0
    8.4884   15.4297   21.9612 C   0  0  1  0  0  0  0  0  0  0  0  0
    9.8447   16.0962   22.2676 C   0  0  0  0  0  0  0  0  0  0  0  0
   10.8596   15.5540   21.4198 O   0  0  0  0  0  0  0  0  0  0  0  0
   10.1383   14.8871   20.3930 C   0  0  0  0  0  0  0  0  0  0  0  0
   10.9008   14.4960   19.1630 C   0  0  0  0  0  0  0  0  0  0  0  0
    9.9767   15.6590   19.1182 C   0  0  0  0  0  0  0  0  0  0  0  0
    8.9194   14.3160   21.0272 C   0  0  0  0  0  0  0  0  0  0  0  0
    6.3452   13.8247   24.6461 C   0  0  0  0  0  0  0  0  0  0  0  0
    6.5117   12.3774   25.1490 C   0  0  0  0  0  0  0  0  0  0  0  0
    7.8887   12.0255   25.7183 C   0  0  0  0  0  0  0  0  0  0  0  0
    8.5552   13.2065   26.3208 N   0  0  0  0  0  0  0  0  0  0  0  0
    9.8193   13.8727   25.4210 S   0  0  0  0  0  0  0  0  0  0  0  0
    9.5814   13.5611   24.0389 O   0  0  0  0  0  0  0  0  0  0  0  0
   10.0395   15.2188   25.8835 O   0  0  0  0  0  0  0  0  0  0  0  0
   11.1446   12.9208   25.9121 N   0  0  0  0  0  0  0  0  0  0  0  0
   11.8605   13.5265   27.0642 C   0  0  0  0  0  0  0  0  0  0  0  0
   13.1322   12.7604   27.4464 C   0  0  0  0  0  0  0  0  0  0  0  0
   13.9897   12.2939   26.2856 C   0  0  0  0  0  0  0  0  0  0  0  0
   13.1194   11.6834   25.2189 C   0  0  0  0  0  0  0  0  0  0  0  0
   12.0672   12.6845   24.7709 C   0  0  0  0  0  0  0  0  0  0  0  0
    7.5765   14.1848   26.8579 C   0  0  0  0  0  0  0  0  0  0  0  0
    6.7653   14.8264   25.7348 C   0  0  0  0  0  0  0  0  0  0  0  0
  1  2  2  0
  2  3  1  0
  4  3  1  1
  4  5  1  0
  5  6  1  0
  6  7  1  0
  7  8  1  0
  8  9  1  0
  7 10  1  0
  2 11  1  0
 11 12  1  0
 12 13  1  0
 13 14  1  0
 14 15  1  0
 15 16  2  0
 15 17  2  0
 15 18  1  0
 18 19  1  0
 19 20  1  0
 20 21  1  0
 21 22  1  0
 22 23  1  0
 14 24  1  0
 24 25  1  0
 10  4  1  0
 25 11  1  0
  9  7  1  0
 23 18  1  0
M  END
>  <energy_score>  (1715) 
-31.29675

>  <inchikey>  (1715) 
JNNKKDXKOMOTQA-UHFFFAOYSA-N

>  <smiles>  (1715) 
O=C(OC1COC2(CC2)C1)C1CCN(S(=O)(=O)N2CCCCC2)CC1

>  <ref_pdb>  (1715) 
A0875a

>  <alias>  (1715) 
JNNKKDXKOMOTQA-UHFFFAOYSA-N-P439-P87-P439-601505

>  <HIPPO Pose ID>  (1715) 
507739

>  <name>  (1715) 
JNNKKDXKOMOTQA-UHFFFAOYSA-N-P439-P87-P439-601505

>  <HIPPO Compound ID>  (1715) 
314405

>  <ref_mols>  (1715) 
A4706a,A0875a

>  <distance_score>  (1715) 
1.52606

>  <inspiration_score>  (1715) 
None

$$$$
SKVUFYZVPVLIFB-UHFFFAOYSA-N-P439-P87-P439-601505
     RDKit          3D

 25 28  0  0  0  0  0  0  0  0999 V2000
    5.8791   13.9214   21.7843 O   0  0  0  0  0  0  0  0  0  0  0  0
    6.9723   14.0277   22.3199 C   0  0  0  0  0  0  0  0  0  0  0  0
    8.1281   14.0703   21.6018 O   0  0  0  0  0  0  0  0  0  0  0  0
    8.9537   15.2783   21.5540 C   0  0  2  0  0  0  0  0  0  0  0  0
    9.3642   15.5346   20.0763 C   0  0  0  0  0  0  0  0  0  0  0  0
   10.5880   14.9265   19.6826 O   0  0  0  0  0  0  0  0  0  0  0  0
   11.5188   14.7430   20.7547 C   0  0  1  0  0  0  0  0  0  0  0  0
   11.4836   15.8425   21.8492 C   0  0  0  0  0  0  0  0  0  0  0  0
   10.2436   15.0732   22.3626 C   0  0  2  0  0  0  0  0  0  0  0  0
   11.0113   13.8224   21.8913 C   0  0  0  0  0  0  0  0  0  0  0  0
    7.1624   14.0115   23.8162 C   0  0  0  0  0  0  0  0  0  0  0  0
    6.7241   12.6815   24.4585 C   0  0  0  0  0  0  0  0  0  0  0  0
    7.0614   12.6067   25.9553 C   0  0  0  0  0  0  0  0  0  0  0  0
    7.5206   13.9103   26.4428 N   0  0  0  0  0  0  0  0  0  0  0  0
    9.1067   14.4339   26.5211 S   0  0  0  0  0  0  0  0  0  0  0  0
    9.3341   15.3733   25.4505 O   0  0  0  0  0  0  0  0  0  0  0  0
    9.3280   14.8554   27.8802 O   0  0  0  0  0  0  0  0  0  0  0  0
   10.1727   13.1637   26.2453 N   0  0  0  0  0  0  0  0  0  0  0  0
   10.0908   12.4666   24.9644 C   0  0  0  0  0  0  0  0  0  0  0  0
   10.9037   11.2087   25.0690 C   0  0  0  0  0  0  0  0  0  0  0  0
   12.3585   11.5335   25.4612 C   0  0  0  0  0  0  0  0  0  0  0  0
   12.6163   13.0156   25.5691 C   0  0  0  0  0  0  0  0  0  0  0  0
   11.5868   13.6351   26.5145 C   0  0  0  0  0  0  0  0  0  0  0  0
    6.5429   14.9798   26.0882 C   0  0  0  0  0  0  0  0  0  0  0  0
    6.4829   15.1618   24.5599 C   0  0  0  0  0  0  0  0  0  0  0  0
  1  2  2  0
  2  3  1  0
  4  3  1  6
  4  5  1  0
  5  6  1  0
  6  7  1  0
  7  8  1  1
  9  8  1  6
  9 10  1  0
  2 11  1  0
 11 12  1  0
 12 13  1  0
 13 14  1  0
 14 15  1  0
 15 16  2  0
 15 17  2  0
 15 18  1  0
 18 19  1  0
 19 20  1  0
 20 21  1  0
 21 22  1  0
 22 23  1  0
 14 24  1  0
 24 25  1  0
  9  4  1  0
 25 11  1  0
 10  7  1  0
 23 18  1  0
M  END
>  <energy_score>  (1716) 
-17.461842

>  <inchikey>  (1716) 
SKVUFYZVPVLIFB-UHFFFAOYSA-N

>  <smiles>  (1716) 
O=C(OC1COC2CC1C2)C1CCN(S(=O)(=O)N2CCCCC2)CC1

>  <ref_pdb>  (1716) 
A0875a

>  <alias>  (1716) 
SKVUFYZVPVLIFB-UHFFFAOYSA-N-P439-P87-P439-601505

>  <HIPPO Pose ID>  (1716) 
507745

>  <name>  (1716) 
SKVUFYZVPVLIFB-UHFFFAOYSA-N-P439-P87-P439-601505

>  <HIPPO Compound ID>  (1716) 
314408

>  <ref_mols>  (1716) 
A4706a,A0875a

>  <distance_score>  (1716) 
1.736771

>  <inspiration_score>  (1716) 
None

$$$$
KRNDDFJHZWMSAR-UHFFFAOYSA-N-P439-P87-P439-601505
     RDKit          3D

 25 27  0  0  0  0  0  0  0  0999 V2000
   11.1225   14.8955   19.0273 C   0  0  0  0  0  0  0  0  0  0  0  0
    9.8654   16.1322   19.4183 S   0  0  0  0  0  0  0  0  0  0  0  0
    9.5357   16.0029   21.2453 C   0  0  2  0  0  0  0  0  0  0  0  0
   10.7776   15.7373   22.0897 C   0  0  0  0  0  0  0  0  0  0  0  0
   10.8536   14.3254   22.3195 O   0  0  0  0  0  0  0  0  0  0  0  0
    9.6758   13.7637   21.7274 C   0  0  0  0  0  0  0  0  0  0  0  0
    8.6144   14.8340   21.5698 C   0  0  1  0  0  0  0  0  0  0  0  0
    7.8348   15.0547   22.7789 O   0  0  0  0  0  0  0  0  0  0  0  0
    6.7854   14.1986   22.9880 C   0  0  0  0  0  0  0  0  0  0  0  0
    6.4382   13.3429   22.1738 O   0  0  0  0  0  0  0  0  0  0  0  0
    6.0816   14.3588   24.3701 C   0  0  0  0  0  0  0  0  0  0  0  0
    5.8482   12.9901   25.0743 C   0  0  0  0  0  0  0  0  0  0  0  0
    6.8242   12.5587   26.1909 C   0  0  0  0  0  0  0  0  0  0  0  0
    7.9433   13.5247   26.3586 N   0  0  0  0  0  0  0  0  0  0  0  0
    9.1208   13.4199   25.1579 S   0  0  0  0  0  0  0  0  0  0  0  0
    8.4781   12.6501   24.1239 O   0  0  0  0  0  0  0  0  0  0  0  0
    9.6812   14.7317   24.9536 O   0  0  0  0  0  0  0  0  0  0  0  0
   10.2885   12.3947   25.8145 N   0  0  0  0  0  0  0  0  0  0  0  0
   10.4285   11.1662   24.9591 C   0  0  0  0  0  0  0  0  0  0  0  0
   11.6584   10.3464   25.2806 C   0  0  0  0  0  0  0  0  0  0  0  0
   12.9427   11.1994   25.4360 C   0  0  0  0  0  0  0  0  0  0  0  0
   12.6735   12.6818   25.2514 C   0  0  0  0  0  0  0  0  0  0  0  0
   11.5539   13.0727   26.1954 C   0  0  0  0  0  0  0  0  0  0  0  0
    7.3755   14.8763   26.5704 C   0  0  0  0  0  0  0  0  0  0  0  0
    6.6577   15.4113   25.3291 C   0  0  0  0  0  0  0  0  0  0  0  0
  1  2  1  0
  3  2  1  6
  3  4  1  0
  4  5  1  0
  5  6  1  0
  6  7  1  0
  7  8  1  1
  8  9  1  0
  9 10  2  0
  9 11  1  0
 11 12  1  0
 12 13  1  0
 13 14  1  0
 14 15  1  0
 15 16  2  0
 15 17  2  0
 15 18  1  0
 18 19  1  0
 19 20  1  0
 20 21  1  0
 21 22  1  0
 22 23  1  0
 14 24  1  0
 24 25  1  0
  7  3  1  0
 25 11  1  0
 23 18  1  0
M  END
>  <energy_score>  (1717) 
-26.721453

>  <inchikey>  (1717) 
KRNDDFJHZWMSAR-UHFFFAOYSA-N

>  <smiles>  (1717) 
CSC1COCC1OC(=O)C1CCN(S(=O)(=O)N2CCCCC2)CC1

>  <ref_pdb>  (1717) 
A0875a

>  <alias>  (1717) 
KRNDDFJHZWMSAR-UHFFFAOYSA-N-P439-P87-P439-601505

>  <HIPPO Pose ID>  (1717) 
507747

>  <name>  (1717) 
KRNDDFJHZWMSAR-UHFFFAOYSA-N-P439-P87-P439-601505

>  <HIPPO Compound ID>  (1717) 
314409

>  <ref_mols>  (1717) 
A4706a,A0875a

>  <distance_score>  (1717) 
1.33247

>  <inspiration_score>  (1717) 
None

$$$$
ALLDMVZLBLZBCY-UHFFFAOYSA-N-P87-P87-P439-601505
     RDKit          3D

 25 26  0  0  0  0  0  0  0  0999 V2000
   17.5682   13.6824   27.0700 C   0  0  0  0  0  0  0  0  0  0  0  0
   16.7586   12.7979   27.0081 C   0  0  0  0  0  0  0  0  0  0  0  0
   15.8370   11.6498   27.0453 C   0  0  1  0  0  0  0  0  0  0  0  0
   16.4877   10.4185   26.4049 C   0  0  0  0  0  0  0  0  0  0  0  0
   15.5679   11.3228   28.5447 C   0  0  0  0  0  0  0  0  0  0  0  0
   14.7510   12.3303   29.1571 O   0  0  0  0  0  0  0  0  0  0  0  0
   14.6893   12.1656   30.5685 C   0  0  0  0  0  0  0  0  0  0  0  0
   14.5413   11.9192   26.4229 O   0  0  0  0  0  0  0  0  0  0  0  0
   14.4160   12.1444   25.0882 C   0  0  0  0  0  0  0  0  0  0  0  0
   15.3348   12.2478   24.2975 O   0  0  0  0  0  0  0  0  0  0  0  0
   12.9597   12.1471   24.6526 C   0  0  0  0  0  0  0  0  0  0  0  0
   11.9528   12.5084   25.6922 C   0  0  0  0  0  0  0  0  0  0  0  0
   10.7079   11.7326   25.2524 C   0  0  0  0  0  0  0  0  0  0  0  0
   10.1189   12.3904   24.0998 N   0  0  0  0  0  0  0  0  0  0  0  0
    9.1782   13.7083   24.4917 S   0  0  0  0  0  0  0  0  0  0  0  0
    9.3704   14.7300   23.4984 O   0  0  0  0  0  0  0  0  0  0  0  0
    9.4133   13.9088   25.9036 O   0  0  0  0  0  0  0  0  0  0  0  0
    7.6569   13.0081   24.3351 N   0  0  0  0  0  0  0  0  0  0  0  0
    7.2724   11.9366   25.2509 C   0  0  0  0  0  0  0  0  0  0  0  0
    6.6000   12.4424   26.4988 C   0  0  0  0  0  0  0  0  0  0  0  0
    5.4449   13.3842   26.2340 C   0  0  0  0  0  0  0  0  0  0  0  0
    5.3814   14.0321   24.8488 C   0  0  0  0  0  0  0  0  0  0  0  0
    6.5435   13.8624   23.8570 C   0  0  0  0  0  0  0  0  0  0  0  0
   11.0217   12.4784   22.9550 C   0  0  0  0  0  0  0  0  0  0  0  0
   12.4515   12.8605   23.3810 C   0  0  0  0  0  0  0  0  0  0  0  0
  1  2  3  0
  2  3  1  0
  3  4  1  6
  3  5  1  0
  5  6  1  0
  6  7  1  0
  3  8  1  0
  8  9  1  0
  9 10  2  0
  9 11  1  0
 11 12  1  0
 12 13  1  0
 13 14  1  0
 14 15  1  0
 15 16  2  0
 15 17  2  0
 15 18  1  0
 18 19  1  0
 19 20  1  0
 20 21  1  0
 21 22  1  0
 22 23  1  0
 14 24  1  0
 24 25  1  0
 25 11  1  0
 23 18  1  0
M  END
>  <energy_score>  (1718) 
-37.611639

>  <inchikey>  (1718) 
ALLDMVZLBLZBCY-UHFFFAOYSA-N

>  <smiles>  (1718) 
C#CC(C)(COC)OC(=O)C1CCN(S(=O)(=O)N2CCCCC2)CC1

>  <ref_pdb>  (1718) 
A0875a

>  <alias>  (1718) 
ALLDMVZLBLZBCY-UHFFFAOYSA-N-P87-P87-P439-601505

>  <HIPPO Pose ID>  (1718) 
507748

>  <name>  (1718) 
ALLDMVZLBLZBCY-UHFFFAOYSA-N-P87-P87-P439-601505

>  <HIPPO Compound ID>  (1718) 
314410

>  <ref_mols>  (1718) 
A4706a,A0875a

>  <distance_score>  (1718) 
1.424696

>  <inspiration_score>  (1718) 
None

$$$$
VASHJITYRBAHPO-UHFFFAOYSA-N-P87-P87-P439-601505
     RDKit          3D

 25 26  0  0  0  0  0  0  0  0999 V2000
   14.7492   12.8914   30.3845 C   0  0  0  0  0  0  0  0  0  0  0  0
   14.4862   12.2385   29.1472 O   0  0  0  0  0  0  0  0  0  0  0  0
   14.9106   13.0229   28.0280 C   0  0  0  0  0  0  0  0  0  0  0  0
   15.1679   12.1152   26.8061 C   0  0  1  0  0  0  0  0  0  0  0  0
   16.0051   10.9180   27.2909 C   0  0  0  0  0  0  0  0  0  0  0  0
   16.6781   10.2403   26.2349 O   0  0  0  0  0  0  0  0  0  0  0  0
   15.7576    9.3155   25.5915 N   0  0  0  0  0  0  0  0  0  0  0  0
   13.8689   11.7597   26.2043 O   0  0  0  0  0  0  0  0  0  0  0  0
   13.8457   11.6833   24.8429 C   0  0  0  0  0  0  0  0  0  0  0  0
   14.8451   11.5573   24.1417 O   0  0  0  0  0  0  0  0  0  0  0  0
   12.4648   11.8809   24.1892 C   0  0  0  0  0  0  0  0  0  0  0  0
   11.9370   13.2245   24.5421 C   0  0  0  0  0  0  0  0  0  0  0  0
   10.9846   13.0178   25.6445 C   0  0  0  0  0  0  0  0  0  0  0  0
    9.8060   12.2092   25.1637 N   0  0  0  0  0  0  0  0  0  0  0  0
    8.5204   13.2018   25.1124 S   0  0  0  0  0  0  0  0  0  0  0  0
    8.7150   14.1159   24.0181 O   0  0  0  0  0  0  0  0  0  0  0  0
    8.5553   13.5689   26.5001 O   0  0  0  0  0  0  0  0  0  0  0  0
    7.0756   12.3919   24.9803 N   0  0  0  0  0  0  0  0  0  0  0  0
    6.9293   11.2286   25.8677 C   0  0  0  0  0  0  0  0  0  0  0  0
    5.9481   11.3554   27.0294 C   0  0  0  0  0  0  0  0  0  0  0  0
    5.7612   12.7597   27.5259 C   0  0  0  0  0  0  0  0  0  0  0  0
    5.2805   13.6158   26.3810 C   0  0  0  0  0  0  0  0  0  0  0  0
    5.9024   13.3362   25.0134 C   0  0  0  0  0  0  0  0  0  0  0  0
   10.0271   11.3391   24.0386 C   0  0  0  0  0  0  0  0  0  0  0  0
   11.3788   10.7415   24.2862 C   0  0  0  0  0  0  0  0  0  0  0  0
  1  2  1  0
  2  3  1  0
  4  3  1  1
  4  5  1  0
  5  6  1  0
  6  7  1  0
  4  8  1  0
  8  9  1  0
  9 10  2  0
  9 11  1  0
 11 12  1  0
 12 13  1  0
 13 14  1  0
 14 15  1  0
 15 16  2  0
 15 17  2  0
 15 18  1  0
 18 19  1  0
 19 20  1  0
 20 21  1  0
 21 22  1  0
 22 23  1  0
 14 24  1  0
 24 25  1  0
 25 11  1  0
 23 18  1  0
M  END
>  <energy_score>  (1719) 
-14.606309

>  <inchikey>  (1719) 
VASHJITYRBAHPO-UHFFFAOYSA-N

>  <smiles>  (1719) 
COCC(CON)OC(=O)C1CCN(S(=O)(=O)N2CCCCC2)CC1

>  <ref_pdb>  (1719) 
A0875a

>  <alias>  (1719) 
VASHJITYRBAHPO-UHFFFAOYSA-N-P87-P87-P439-601505

>  <HIPPO Pose ID>  (1719) 
507754

>  <name>  (1719) 
VASHJITYRBAHPO-UHFFFAOYSA-N-P87-P87-P439-601505

>  <HIPPO Compound ID>  (1719) 
314413

>  <ref_mols>  (1719) 
A4706a,A0875a

>  <distance_score>  (1719) 
1.289664

>  <inspiration_score>  (1719) 
None

$$$$
BVYYBSJFBUBOGX-UHFFFAOYSA-N-P439-P87-P439-601505
     RDKit          3D

 25 27  0  0  0  0  0  0  0  0999 V2000
   11.1314   14.6201   18.6761 C   0  0  0  0  0  0  0  0  0  0  0  0
   10.4903   15.4634   19.7468 C   0  0  0  0  0  0  0  0  0  0  0  0
    9.7446   14.7215   20.8654 C   0  0  1  0  0  0  0  0  0  0  0  0
   10.6989   13.8675   21.6881 C   0  0  0  0  0  0  0  0  0  0  0  0
   11.2281   14.6563   22.7454 O   0  0  0  0  0  0  0  0  0  0  0  0
   10.5329   15.9038   22.7058 C   0  0  0  0  0  0  0  0  0  0  0  0
    9.2452   15.7411   21.8770 C   0  0  2  0  0  0  0  0  0  0  0  0
    8.1306   15.4152   22.7680 O   0  0  0  0  0  0  0  0  0  0  0  0
    7.2691   14.3862   22.6908 C   0  0  0  0  0  0  0  0  0  0  0  0
    7.1717   13.6091   21.7450 O   0  0  0  0  0  0  0  0  0  0  0  0
    6.4185   14.1543   23.9689 C   0  0  0  0  0  0  0  0  0  0  0  0
    6.7413   12.7190   24.4559 C   0  0  0  0  0  0  0  0  0  0  0  0
    6.9437   12.5024   25.9409 C   0  0  0  0  0  0  0  0  0  0  0  0
    7.6308   13.6337   26.5612 N   0  0  0  0  0  0  0  0  0  0  0  0
    9.1891   14.1152   26.1641 S   0  0  0  0  0  0  0  0  0  0  0  0
    9.1757   14.5796   24.8104 O   0  0  0  0  0  0  0  0  0  0  0  0
    9.6164   15.0101   27.2122 O   0  0  0  0  0  0  0  0  0  0  0  0
   10.2702   12.8241   26.1430 N   0  0  0  0  0  0  0  0  0  0  0  0
   11.6625   13.4375   26.0352 C   0  0  0  0  0  0  0  0  0  0  0  0
   12.6010   12.6691   25.1195 C   0  0  0  0  0  0  0  0  0  0  0  0
   12.4613   11.2107   25.4579 C   0  0  0  0  0  0  0  0  0  0  0  0
   11.0337   10.6993   25.1629 C   0  0  0  0  0  0  0  0  0  0  0  0
   10.0358   11.8277   25.0748 C   0  0  0  0  0  0  0  0  0  0  0  0
    6.6806   14.7918   26.5042 C   0  0  0  0  0  0  0  0  0  0  0  0
    6.4385   15.2520   25.0572 C   0  0  0  0  0  0  0  0  0  0  0  0
  1  2  1  0
  3  2  1  6
  3  4  1  0
  4  5  1  0
  5  6  1  0
  6  7  1  0
  7  8  1  1
  8  9  1  0
  9 10  2  0
  9 11  1  0
 11 12  1  0
 12 13  1  0
 13 14  1  0
 14 15  1  0
 15 16  2  0
 15 17  2  0
 15 18  1  0
 18 19  1  0
 19 20  1  0
 20 21  1  0
 21 22  1  0
 22 23  1  0
 14 24  1  0
 24 25  1  0
  7  3  1  0
 25 11  1  0
 23 18  1  0
M  END
>  <energy_score>  (1720) 
-5.560777

>  <inchikey>  (1720) 
BVYYBSJFBUBOGX-UHFFFAOYSA-N

>  <smiles>  (1720) 
CCC1COCC1OC(=O)C1CCN(S(=O)(=O)N2CCCCC2)CC1

>  <ref_pdb>  (1720) 
A0875a

>  <alias>  (1720) 
BVYYBSJFBUBOGX-UHFFFAOYSA-N-P439-P87-P439-601505

>  <HIPPO Pose ID>  (1720) 
507763

>  <name>  (1720) 
BVYYBSJFBUBOGX-UHFFFAOYSA-N-P439-P87-P439-601505

>  <HIPPO Compound ID>  (1720) 
314417

>  <ref_mols>  (1720) 
A4706a,A0875a

>  <distance_score>  (1720) 
1.284216

>  <inspiration_score>  (1720) 
None

$$$$
HLZQRTYSAHGKSR-UHFFFAOYSA-N-P87-P87-P439-601505
     RDKit          3D

 25 27  0  0  0  0  0  0  0  0999 V2000
   17.0122   11.4580   31.0515 C   0  0  0  0  0  0  0  0  0  0  0  0
   16.2306   11.3109   30.1519 C   0  0  0  0  0  0  0  0  0  0  0  0
   15.2705   11.1222   29.0505 C   0  0  0  0  0  0  0  0  0  0  0  0
   15.2402   12.2572   28.0122 C   0  0  0  0  0  0  0  0  0  0  0  0
   14.1854   12.0419   27.0101 O   0  0  0  0  0  0  0  0  0  0  0  0
   14.4223   11.1064   26.0624 C   0  0  0  0  0  0  0  0  0  0  0  0
   15.3139   10.2710   26.1345 O   0  0  0  0  0  0  0  0  0  0  0  0
   13.4314   11.0937   24.8996 C   0  0  0  0  0  0  0  0  0  0  0  0
   13.0419   12.4972   24.5186 C   0  0  0  0  0  0  0  0  0  0  0  0
   11.8848   12.9091   25.3822 C   0  0  0  0  0  0  0  0  0  0  0  0
   10.6431   12.1184   25.1069 N   0  0  0  0  0  0  0  0  0  0  0  0
    9.4399   13.2450   24.7617 S   0  0  0  0  0  0  0  0  0  0  0  0
    9.8274   13.9443   23.5613 O   0  0  0  0  0  0  0  0  0  0  0  0
    9.3715   13.9109   26.0372 O   0  0  0  0  0  0  0  0  0  0  0  0
    7.9560   12.5143   24.5084 N   0  0  0  0  0  0  0  0  0  0  0  0
    7.4515   11.5987   25.5262 C   0  0  0  0  0  0  0  0  0  0  0  0
    6.7379   12.2892   26.6677 C   0  0  0  0  0  0  0  0  0  0  0  0
    5.6124   13.2047   26.2684 C   0  0  0  0  0  0  0  0  0  0  0  0
    5.6804   13.7503   24.8565 C   0  0  0  0  0  0  0  0  0  0  0  0
    6.9153   13.4824   23.9846 C   0  0  0  0  0  0  0  0  0  0  0  0
   10.8494   10.9096   24.3113 C   0  0  0  0  0  0  0  0  0  0  0  0
   12.1447   10.1630   24.8013 C   0  0  0  0  0  0  0  0  0  0  0  0
   15.1813   13.6703   28.6491 C   0  0  0  0  0  0  0  0  0  0  0  0
   16.5096   13.9922   28.1899 O   0  0  0  0  0  0  0  0  0  0  0  0
   16.6042   12.7469   27.4648 C   0  0  0  0  0  0  0  0  0  0  0  0
  1  2  3  0
  2  3  1  0
  3  4  1  0
  4  5  1  0
  5  6  1  0
  6  7  2  0
  6  8  1  0
  8  9  1  0
  9 10  1  0
 10 11  1  0
 11 12  1  0
 12 13  2  0
 12 14  2  0
 12 15  1  0
 15 16  1  0
 16 17  1  0
 17 18  1  0
 18 19  1  0
 19 20  1  0
 11 21  1  0
 21 22  1  0
  4 23  1  0
 23 24  1  0
 24 25  1  0
 25  4  1  0
 22  8  1  0
 20 15  1  0
M  END
>  <energy_score>  (1721) 
-35.511754

>  <inchikey>  (1721) 
HLZQRTYSAHGKSR-UHFFFAOYSA-N

>  <smiles>  (1721) 
C#CCC1(OC(=O)C2CCN(S(=O)(=O)N3CCCCC3)CC2)COC1

>  <ref_pdb>  (1721) 
A0875a

>  <alias>  (1721) 
HLZQRTYSAHGKSR-UHFFFAOYSA-N-P87-P87-P439-601505

>  <HIPPO Pose ID>  (1721) 
507764

>  <name>  (1721) 
HLZQRTYSAHGKSR-UHFFFAOYSA-N-P87-P87-P439-601505

>  <HIPPO Compound ID>  (1721) 
314418

>  <ref_mols>  (1721) 
A4706a,A0875a

>  <distance_score>  (1721) 
1.345475

>  <inspiration_score>  (1721) 
None

$$$$
BRCJQMFQGRSILI-UHFFFAOYSA-N-P439-P87-P439-601505
     RDKit          3D

 25 26  0  0  0  0  0  0  0  0999 V2000
   17.5149    8.2726   22.8097 C   0  0  0  0  0  0  0  0  0  0  0  0
   17.2130    8.4936   24.3293 O   0  0  0  0  0  0  0  0  0  0  0  0
   16.1155    9.0830   25.0679 C   0  0  0  0  0  0  0  0  0  0  0  0
   16.4676    9.9409   26.3615 C   0  0  2  0  0  0  0  0  0  0  0  0
   17.5750    9.4512   27.3163 C   0  0  0  0  0  0  0  0  0  0  0  0
   17.2749    8.3873   28.3584 C   0  0  0  0  0  0  0  0  0  0  0  0
   18.5078    7.9774   29.0294 N   0  0  0  0  0  0  0  0  0  0  0  0
   15.2580   10.5238   26.9477 O   0  0  0  0  0  0  0  0  0  0  0  0
   14.6563   11.4920   26.1911 C   0  0  0  0  0  0  0  0  0  0  0  0
   15.1500   12.0468   25.2175 O   0  0  0  0  0  0  0  0  0  0  0  0
   13.2192   11.7726   26.5937 C   0  0  0  0  0  0  0  0  0  0  0  0
   13.0012   13.2371   26.6951 C   0  0  0  0  0  0  0  0  0  0  0  0
   11.5502   13.6675   26.7735 C   0  0  0  0  0  0  0  0  0  0  0  0
   10.7524   13.0865   25.6776 N   0  0  0  0  0  0  0  0  0  0  0  0
    9.5119   14.0719   25.0810 S   0  0  0  0  0  0  0  0  0  0  0  0
    9.4158   13.9430   23.6500 O   0  0  0  0  0  0  0  0  0  0  0  0
    9.6280   15.3530   25.7316 O   0  0  0  0  0  0  0  0  0  0  0  0
    8.1771   13.3042   25.7704 N   0  0  0  0  0  0  0  0  0  0  0  0
    7.7772   12.0135   25.1652 C   0  0  0  0  0  0  0  0  0  0  0  0
    6.8277   11.3091   26.1264 C   0  0  0  0  0  0  0  0  0  0  0  0
    5.6227   12.1758   26.4803 C   0  0  0  0  0  0  0  0  0  0  0  0
    6.0545   13.5579   26.9546 C   0  0  0  0  0  0  0  0  0  0  0  0
    6.9990   14.2013   25.9467 C   0  0  0  0  0  0  0  0  0  0  0  0
   11.4940   12.2802   24.7072 C   0  0  0  0  0  0  0  0  0  0  0  0
   12.3372   11.2289   25.4617 C   0  0  0  0  0  0  0  0  0  0  0  0
  1  2  1  0
  2  3  1  0
  4  3  1  1
  4  5  1  0
  5  6  1  0
  6  7  1  0
  4  8  1  0
  8  9  1  0
  9 10  2  0
  9 11  1  0
 11 12  1  0
 12 13  1  0
 13 14  1  0
 14 15  1  0
 15 16  2  0
 15 17  2  0
 15 18  1  0
 18 19  1  0
 19 20  1  0
 20 21  1  0
 21 22  1  0
 22 23  1  0
 14 24  1  0
 24 25  1  0
 25 11  1  0
 23 18  1  0
M  END
>  <energy_score>  (1722) 
-18.230724

>  <inchikey>  (1722) 
BRCJQMFQGRSILI-UHFFFAOYSA-N

>  <smiles>  (1722) 
COCC(CCN)OC(=O)C1CCN(S(=O)(=O)N2CCCCC2)CC1

>  <ref_pdb>  (1722) 
A0875a

>  <alias>  (1722) 
BRCJQMFQGRSILI-UHFFFAOYSA-N-P439-P87-P439-601505

>  <HIPPO Pose ID>  (1722) 
507779

>  <name>  (1722) 
BRCJQMFQGRSILI-UHFFFAOYSA-N-P439-P87-P439-601505

>  <HIPPO Compound ID>  (1722) 
314425

>  <ref_mols>  (1722) 
A4706a,A0875a

>  <distance_score>  (1722) 
1.31663

>  <inspiration_score>  (1722) 
None

$$$$
CWGJBMFGISOZDI-UHFFFAOYSA-N-P87-P87-P439-601505
     RDKit          3D

 25 26  0  0  0  0  0  0  0  0999 V2000
   18.9951   14.7534   28.6898 C   0  0  0  0  0  0  0  0  0  0  0  0
   17.9855   13.7192   28.2317 C   0  0  0  0  0  0  0  0  0  0  0  0
   16.6755   14.1812   28.6062 O   0  0  0  0  0  0  0  0  0  0  0  0
   15.5748   13.4893   28.2904 C   0  0  0  0  0  0  0  0  0  0  0  0
   14.4436   14.0613   28.5383 N   0  0  0  0  0  0  0  0  0  0  0  0
   15.6471   12.0762   27.7431 C   0  0  1  0  0  0  0  0  0  0  0  0
   15.5330   11.1079   28.9123 C   0  0  0  0  0  0  0  0  0  0  0  0
   14.5282   11.9407   26.8366 O   0  0  0  0  0  0  0  0  0  0  0  0
   14.5882   10.9455   25.9372 C   0  0  0  0  0  0  0  0  0  0  0  0
   15.3811   10.0148   25.9812 O   0  0  0  0  0  0  0  0  0  0  0  0
   13.5348   11.0330   24.8470 C   0  0  0  0  0  0  0  0  0  0  0  0
   13.1398   12.4572   24.5483 C   0  0  0  0  0  0  0  0  0  0  0  0
   12.0143   12.8129   25.4728 C   0  0  0  0  0  0  0  0  0  0  0  0
   10.7503   12.1015   25.1088 N   0  0  0  0  0  0  0  0  0  0  0  0
    9.6189   13.2576   24.6149 S   0  0  0  0  0  0  0  0  0  0  0  0
    9.9519   13.7178   23.2938 O   0  0  0  0  0  0  0  0  0  0  0  0
    9.6531   14.1273   25.7617 O   0  0  0  0  0  0  0  0  0  0  0  0
    8.0789   12.5241   24.6193 N   0  0  0  0  0  0  0  0  0  0  0  0
    7.8140   11.9190   25.9228 C   0  0  0  0  0  0  0  0  0  0  0  0
    6.3781   11.6887   26.2815 C   0  0  0  0  0  0  0  0  0  0  0  0
    5.6388   12.9972   26.2861 C   0  0  0  0  0  0  0  0  0  0  0  0
    5.7313   13.6716   24.9346 C   0  0  0  0  0  0  0  0  0  0  0  0
    7.0035   13.4549   24.0899 C   0  0  0  0  0  0  0  0  0  0  0  0
   10.9304   10.8599   24.3540 C   0  0  0  0  0  0  0  0  0  0  0  0
   12.2374   10.1174   24.8046 C   0  0  0  0  0  0  0  0  0  0  0  0
  1  2  1  0
  2  3  1  0
  3  4  1  0
  4  5  2  3
  4  6  1  0
  6  7  1  1
  6  8  1  0
  8  9  1  0
  9 10  2  0
  9 11  1  0
 11 12  1  0
 12 13  1  0
 13 14  1  0
 14 15  1  0
 15 16  2  0
 15 17  2  0
 15 18  1  0
 18 19  1  0
 19 20  1  0
 20 21  1  0
 21 22  1  0
 22 23  1  0
 14 24  1  0
 24 25  1  0
 25 11  1  0
 23 18  1  0
M  END
>  <energy_score>  (1723) 
-35.477653

>  <inchikey>  (1723) 
CWGJBMFGISOZDI-UHFFFAOYSA-N

>  <smiles>  (1723) 
CCOC(=N)C(C)OC(=O)C1CCN(S(=O)(=O)N2CCCCC2)CC1

>  <ref_pdb>  (1723) 
A0875a

>  <alias>  (1723) 
CWGJBMFGISOZDI-UHFFFAOYSA-N-P87-P87-P439-601505

>  <HIPPO Pose ID>  (1723) 
507782

>  <name>  (1723) 
CWGJBMFGISOZDI-UHFFFAOYSA-N-P87-P87-P439-601505

>  <HIPPO Compound ID>  (1723) 
314427

>  <ref_mols>  (1723) 
A4706a,A0875a

>  <distance_score>  (1723) 
1.301422

>  <inspiration_score>  (1723) 
None

$$$$
DEGJEROPLQHNSB-UHFFFAOYSA-N-P439-P87-P439-601505
     RDKit          3D

 25 26  0  0  0  0  0  0  0  0999 V2000
   11.0721   14.6263   18.8568 C   0  0  0  0  0  0  0  0  0  0  0  0
   10.0851   14.6069   19.8804 O   0  0  0  0  0  0  0  0  0  0  0  0
   10.0414   15.8452   20.5623 C   0  0  0  0  0  0  0  0  0  0  0  0
   11.1846   16.0754   21.3705 O   0  0  0  0  0  0  0  0  0  0  0  0
   11.3424   15.1705   22.4356 C   0  0  0  0  0  0  0  0  0  0  0  0
    8.6456   16.1191   21.1686 C   0  0  2  0  0  0  0  0  0  0  0  0
    8.4450   17.6269   21.1613 C   0  0  0  0  0  0  0  0  0  0  0  0
    8.3489   15.5699   22.4513 O   0  0  0  0  0  0  0  0  0  0  0  0
    7.0170   15.3521   22.7733 C   0  0  0  0  0  0  0  0  0  0  0  0
    6.0255   15.6102   22.1147 O   0  0  0  0  0  0  0  0  0  0  0  0
    7.0147   14.6206   24.0833 C   0  0  0  0  0  0  0  0  0  0  0  0
    6.9901   13.1021   23.8366 C   0  0  0  0  0  0  0  0  0  0  0  0
    7.3377   12.2858   25.0869 C   0  0  0  0  0  0  0  0  0  0  0  0
    7.9671   13.1780   26.0839 N   0  0  0  0  0  0  0  0  0  0  0  0
    9.5263   13.7420   25.6241 S   0  0  0  0  0  0  0  0  0  0  0  0
    9.7804   14.9376   26.3907 O   0  0  0  0  0  0  0  0  0  0  0  0
    9.6645   13.7176   24.1927 O   0  0  0  0  0  0  0  0  0  0  0  0
   10.5138   12.5115   26.1699 N   0  0  0  0  0  0  0  0  0  0  0  0
   11.3964   12.9481   27.2357 C   0  0  0  0  0  0  0  0  0  0  0  0
   12.5673   13.6786   26.7432 C   0  0  0  0  0  0  0  0  0  0  0  0
   13.4149   12.7439   25.9194 C   0  0  0  0  0  0  0  0  0  0  0  0
   12.5699   12.2663   24.7721 C   0  0  0  0  0  0  0  0  0  0  0  0
   11.2009   11.6883   25.1453 C   0  0  0  0  0  0  0  0  0  0  0  0
    6.9629   14.2501   26.5171 C   0  0  0  0  0  0  0  0  0  0  0  0
    6.2079   14.9073   25.3221 C   0  0  0  0  0  0  0  0  0  0  0  0
  1  2  1  0
  2  3  1  0
  3  4  1  0
  4  5  1  0
  3  6  1  0
  6  7  1  1
  6  8  1  0
  8  9  1  0
  9 10  2  0
  9 11  1  0
 11 12  1  0
 12 13  1  0
 13 14  1  0
 14 15  1  0
 15 16  2  0
 15 17  2  0
 15 18  1  0
 18 19  1  0
 19 20  1  0
 20 21  1  0
 21 22  1  0
 22 23  1  0
 14 24  1  0
 24 25  1  0
 25 11  1  0
 23 18  1  0
M  END
>  <energy_score>  (1724) 
-0.185391

>  <inchikey>  (1724) 
DEGJEROPLQHNSB-UHFFFAOYSA-N

>  <smiles>  (1724) 
COC(OC)C(C)OC(=O)C1CCN(S(=O)(=O)N2CCCCC2)CC1

>  <ref_pdb>  (1724) 
A0875a

>  <alias>  (1724) 
DEGJEROPLQHNSB-UHFFFAOYSA-N-P439-P87-P439-601505

>  <HIPPO Pose ID>  (1724) 
507787

>  <name>  (1724) 
DEGJEROPLQHNSB-UHFFFAOYSA-N-P439-P87-P439-601505

>  <HIPPO Compound ID>  (1724) 
314429

>  <ref_mols>  (1724) 
A4706a,A0875a

>  <distance_score>  (1724) 
1.622297

>  <inspiration_score>  (1724) 
None

$$$$
YUTUPMZPVKQRSH-UHFFFAOYSA-N-P87-P87-P439-601505
     RDKit          3D

 25 26  0  0  0  0  0  0  0  0999 V2000
   15.9913    8.7086   25.3245 C   0  0  0  0  0  0  0  0  0  0  0  0
   16.4623    9.6395   25.9094 C   0  0  0  0  0  0  0  0  0  0  0  0
   17.0360   10.7657   26.6223 C   0  0  0  0  0  0  0  0  0  0  0  0
   16.3700   10.8761   27.8682 O   0  0  0  0  0  0  0  0  0  0  0  0
   16.1363   12.2337   28.2058 C   0  0  0  0  0  0  0  0  0  0  0  0
   14.6598   12.5935   27.9765 C   0  0  1  0  0  0  0  0  0  0  0  0
   14.5134   14.0348   28.4377 C   0  0  0  0  0  0  0  0  0  0  0  0
   14.2407   12.3144   26.5929 O   0  0  0  0  0  0  0  0  0  0  0  0
   12.9810   12.6485   26.1533 C   0  0  0  0  0  0  0  0  0  0  0  0
   12.2030   13.3687   26.7555 O   0  0  0  0  0  0  0  0  0  0  0  0
   12.6493   11.9984   24.8121 C   0  0  0  0  0  0  0  0  0  0  0  0
   12.7419   12.9848   23.6619 C   0  0  0  0  0  0  0  0  0  0  0  0
   11.5022   13.7521   23.2741 C   0  0  0  0  0  0  0  0  0  0  0  0
   10.2459   12.9891   23.4391 N   0  0  0  0  0  0  0  0  0  0  0  0
    9.1653   13.8568   24.3644 S   0  0  0  0  0  0  0  0  0  0  0  0
    9.0757   15.1238   23.6805 O   0  0  0  0  0  0  0  0  0  0  0  0
    9.6073   13.7405   25.7338 O   0  0  0  0  0  0  0  0  0  0  0  0
    7.7100   13.0358   24.2367 N   0  0  0  0  0  0  0  0  0  0  0  0
    7.4358   11.9586   25.1908 C   0  0  0  0  0  0  0  0  0  0  0  0
    6.7123   12.4253   26.4281 C   0  0  0  0  0  0  0  0  0  0  0  0
    5.5064   13.3014   26.1840 C   0  0  0  0  0  0  0  0  0  0  0  0
    5.4090   13.9886   24.8260 C   0  0  0  0  0  0  0  0  0  0  0  0
    6.5287   13.8228   23.7918 C   0  0  0  0  0  0  0  0  0  0  0  0
   10.4210   11.5580   23.5789 C   0  0  0  0  0  0  0  0  0  0  0  0
   11.2957   11.2600   24.7809 C   0  0  0  0  0  0  0  0  0  0  0  0
  1  2  3  0
  2  3  1  0
  3  4  1  0
  4  5  1  0
  5  6  1  0
  6  7  1  6
  6  8  1  0
  8  9  1  0
  9 10  2  0
  9 11  1  0
 11 12  1  0
 12 13  1  0
 13 14  1  0
 14 15  1  0
 15 16  2  0
 15 17  2  0
 15 18  1  0
 18 19  1  0
 19 20  1  0
 20 21  1  0
 21 22  1  0
 22 23  1  0
 14 24  1  0
 24 25  1  0
 25 11  1  0
 23 18  1  0
M  END
>  <energy_score>  (1725) 
-41.325199

>  <inchikey>  (1725) 
YUTUPMZPVKQRSH-UHFFFAOYSA-N

>  <smiles>  (1725) 
C#CCOCC(C)OC(=O)C1CCN(S(=O)(=O)N2CCCCC2)CC1

>  <ref_pdb>  (1725) 
A0875a

>  <alias>  (1725) 
YUTUPMZPVKQRSH-UHFFFAOYSA-N-P87-P87-P439-601505

>  <HIPPO Pose ID>  (1725) 
507788

>  <name>  (1725) 
YUTUPMZPVKQRSH-UHFFFAOYSA-N-P87-P87-P439-601505

>  <HIPPO Compound ID>  (1725) 
314430

>  <ref_mols>  (1725) 
A4706a,A0875a

>  <distance_score>  (1725) 
1.915266

>  <inspiration_score>  (1725) 
None

$$$$
FDKHDFLRRSSYOE-UHFFFAOYSA-N-P439-P87-P439-601505
     RDKit          3D

 25 28  0  0  0  0  0  0  0  0999 V2000
    6.4353   13.2066   21.9398 O   0  0  0  0  0  0  0  0  0  0  0  0
    6.8994   14.0041   22.7363 C   0  0  0  0  0  0  0  0  0  0  0  0
    7.6070   15.1346   22.4565 O   0  0  0  0  0  0  0  0  0  0  0  0
    8.4282   15.1200   21.2856 C   0  0  1  0  0  0  0  0  0  0  0  0
    9.1333   16.4826   21.1283 C   0  0  0  0  0  0  0  0  0  0  0  0
   10.6296   16.1271   21.2866 C   0  0  2  0  0  0  0  0  0  0  0  0
   11.0412   15.3706   20.0228 C   0  0  0  0  0  0  0  0  0  0  0  0
   10.2677   14.1740   20.1276 O   0  0  0  0  0  0  0  0  0  0  0  0
    9.6512   14.2064   21.4295 C   0  0  1  0  0  0  0  0  0  0  0  0
   10.6258   14.9977   22.2707 C   0  0  0  0  0  0  0  0  0  0  0  0
    6.8716   13.8391   24.2238 C   0  0  0  0  0  0  0  0  0  0  0  0
    6.5378   12.4930   24.8534 C   0  0  0  0  0  0  0  0  0  0  0  0
    7.1791   12.4095   26.2533 C   0  0  0  0  0  0  0  0  0  0  0  0
    7.6650   13.7343   26.7054 N   0  0  0  0  0  0  0  0  0  0  0  0
    9.2147   14.3609   26.4652 S   0  0  0  0  0  0  0  0  0  0  0  0
    9.2172   15.2688   25.3426 O   0  0  0  0  0  0  0  0  0  0  0  0
    9.6417   14.8522   27.7506 O   0  0  0  0  0  0  0  0  0  0  0  0
   10.2789   13.1360   26.0531 N   0  0  0  0  0  0  0  0  0  0  0  0
   10.0776   12.3565   24.8248 C   0  0  0  0  0  0  0  0  0  0  0  0
   10.8511   11.0746   25.0439 C   0  0  0  0  0  0  0  0  0  0  0  0
   12.3198   11.3936   25.4411 C   0  0  0  0  0  0  0  0  0  0  0  0
   12.6525   12.8539   25.2416 C   0  0  0  0  0  0  0  0  0  0  0  0
   11.6894   13.6723   26.1008 C   0  0  0  0  0  0  0  0  0  0  0  0
    6.5871   14.7620   26.5492 C   0  0  0  0  0  0  0  0  0  0  0  0
    6.2832   14.9750   25.0552 C   0  0  0  0  0  0  0  0  0  0  0  0
  1  2  2  0
  2  3  1  0
  4  3  1  1
  4  5  1  0
  6  5  1  6
  6  7  1  0
  7  8  1  0
  9  8  1  6
  9 10  1  0
  2 11  1  0
 11 12  1  0
 12 13  1  0
 13 14  1  0
 14 15  1  0
 15 16  2  0
 15 17  2  0
 15 18  1  0
 18 19  1  0
 19 20  1  0
 20 21  1  0
 21 22  1  0
 22 23  1  0
 14 24  1  0
 24 25  1  0
  9  4  1  0
 25 11  1  0
 10  6  1  0
 23 18  1  0
M  END
>  <energy_score>  (1726) 
-30.262081

>  <inchikey>  (1726) 
FDKHDFLRRSSYOE-UHFFFAOYSA-N

>  <smiles>  (1726) 
O=C(OC1CC2COC1C2)C1CCN(S(=O)(=O)N2CCCCC2)CC1

>  <ref_pdb>  (1726) 
A0875a

>  <alias>  (1726) 
FDKHDFLRRSSYOE-UHFFFAOYSA-N-P439-P87-P439-601505

>  <HIPPO Pose ID>  (1726) 
507791

>  <name>  (1726) 
FDKHDFLRRSSYOE-UHFFFAOYSA-N-P439-P87-P439-601505

>  <HIPPO Compound ID>  (1726) 
314431

>  <ref_mols>  (1726) 
A4706a,A0875a

>  <distance_score>  (1726) 
1.530805

>  <inspiration_score>  (1726) 
None

$$$$
ZMLUHQOFAASPHV-UHFFFAOYSA-N-P439-P87-P439-601505
     RDKit          3D

 25 27  0  0  0  0  0  0  0  0999 V2000
   10.9588   14.8948   18.7381 C   0  0  0  0  0  0  0  0  0  0  0  0
   10.1771   15.4810   19.7611 O   0  0  0  0  0  0  0  0  0  0  0  0
    9.8141   14.6218   20.8621 C   0  0  1  0  0  0  0  0  0  0  0  0
   11.0224   13.9539   21.5216 C   0  0  0  0  0  0  0  0  0  0  0  0
   11.6435   14.9175   22.4280 N   0  0  0  0  0  0  0  0  0  0  0  0
   10.6638   16.0171   22.4928 C   0  0  0  0  0  0  0  0  0  0  0  0
    9.2936   15.5561   21.9489 C   0  0  2  0  0  0  0  0  0  0  0  0
    8.4916   15.0568   23.0610 O   0  0  0  0  0  0  0  0  0  0  0  0
    7.4451   14.2037   22.9579 C   0  0  0  0  0  0  0  0  0  0  0  0
    7.1004   13.6308   21.9290 O   0  0  0  0  0  0  0  0  0  0  0  0
    6.6897   13.9856   24.3117 C   0  0  0  0  0  0  0  0  0  0  0  0
    6.7266   12.5143   24.8015 C   0  0  0  0  0  0  0  0  0  0  0  0
    7.6292   12.1571   25.9957 C   0  0  0  0  0  0  0  0  0  0  0  0
    8.5415   13.2718   26.3528 N   0  0  0  0  0  0  0  0  0  0  0  0
    9.7985   13.5256   25.2606 S   0  0  0  0  0  0  0  0  0  0  0  0
    9.4437   12.7595   24.0909 O   0  0  0  0  0  0  0  0  0  0  0  0
   10.0889   14.9372   25.2521 O   0  0  0  0  0  0  0  0  0  0  0  0
   11.1649   12.7595   25.9061 N   0  0  0  0  0  0  0  0  0  0  0  0
   11.7972   13.4917   27.0297 C   0  0  0  0  0  0  0  0  0  0  0  0
   13.0935   12.7935   27.4904 C   0  0  0  0  0  0  0  0  0  0  0  0
   14.0196   12.2809   26.3948 C   0  0  0  0  0  0  0  0  0  0  0  0
   13.2296   11.6430   25.2794 C   0  0  0  0  0  0  0  0  0  0  0  0
   12.1724   12.6213   24.8123 C   0  0  0  0  0  0  0  0  0  0  0  0
    7.7181   14.4715   26.6568 C   0  0  0  0  0  0  0  0  0  0  0  0
    6.9736   15.0035   25.4295 C   0  0  0  0  0  0  0  0  0  0  0  0
  1  2  1  0
  3  2  1  6
  3  4  1  0
  4  5  1  0
  5  6  1  0
  6  7  1  0
  7  8  1  1
  8  9  1  0
  9 10  2  0
  9 11  1  0
 11 12  1  0
 12 13  1  0
 13 14  1  0
 14 15  1  0
 15 16  2  0
 15 17  2  0
 15 18  1  0
 18 19  1  0
 19 20  1  0
 20 21  1  0
 21 22  1  0
 22 23  1  0
 14 24  1  0
 24 25  1  0
  7  3  1  0
 25 11  1  0
 23 18  1  0
M  END
>  <energy_score>  (1727) 
-27.810234

>  <inchikey>  (1727) 
ZMLUHQOFAASPHV-UHFFFAOYSA-N

>  <smiles>  (1727) 
COC1CNCC1OC(=O)C1CCN(S(=O)(=O)N2CCCCC2)CC1

>  <ref_pdb>  (1727) 
A0875a

>  <alias>  (1727) 
ZMLUHQOFAASPHV-UHFFFAOYSA-N-P439-P87-P439-601505

>  <HIPPO Pose ID>  (1727) 
507797

>  <name>  (1727) 
ZMLUHQOFAASPHV-UHFFFAOYSA-N-P439-P87-P439-601505

>  <HIPPO Compound ID>  (1727) 
314434

>  <ref_mols>  (1727) 
A4706a,A0875a

>  <distance_score>  (1727) 
1.459445

>  <inspiration_score>  (1727) 
None

$$$$
PWPWQNLRJLLXME-UHFFFAOYSA-N-P439-P87-P439-601505
     RDKit          3D

 25 28  0  0  0  0  0  0  0  0999 V2000
    6.6272   13.0855   22.1649 O   0  0  0  0  0  0  0  0  0  0  0  0
    7.1454   13.8216   23.0021 C   0  0  0  0  0  0  0  0  0  0  0  0
    8.2767   14.5443   22.7785 O   0  0  0  0  0  0  0  0  0  0  0  0
    8.9364   14.3790   21.4856 C   0  0  1  0  0  0  0  0  0  0  0  0
    8.8976   15.7022   20.7233 C   0  0  0  0  0  0  0  0  0  0  0  0
    9.9881   16.5993   20.8732 O   0  0  0  0  0  0  0  0  0  0  0  0
   10.8269   16.3001   21.9737 C   0  0  0  0  0  0  0  0  0  0  0  0
   11.3935   14.9491   21.8760 C   0  0  2  0  0  0  0  0  0  0  0  0
   11.4181   14.2295   20.5726 C   0  0  0  0  0  0  0  0  0  0  0  0
   10.3632   13.9049   21.6332 C   0  0  2  0  0  0  0  0  0  0  0  0
    6.5462   13.9316   24.4204 C   0  0  0  0  0  0  0  0  0  0  0  0
    6.5307   12.5534   25.1289 C   0  0  0  0  0  0  0  0  0  0  0  0
    7.5880   12.2825   26.2093 C   0  0  0  0  0  0  0  0  0  0  0  0
    8.5636   13.3981   26.3390 N   0  0  0  0  0  0  0  0  0  0  0  0
    9.7485   13.4334   25.1494 S   0  0  0  0  0  0  0  0  0  0  0  0
    9.3308   12.4791   24.1503 O   0  0  0  0  0  0  0  0  0  0  0  0
   10.0866   14.8048   24.8509 O   0  0  0  0  0  0  0  0  0  0  0  0
   11.1387   12.7660   25.8397 N   0  0  0  0  0  0  0  0  0  0  0  0
   12.1579   12.6174   24.7638 C   0  0  0  0  0  0  0  0  0  0  0  0
   13.2095   11.6496   25.2622 C   0  0  0  0  0  0  0  0  0  0  0  0
   13.9816   12.3139   26.3754 C   0  0  0  0  0  0  0  0  0  0  0  0
   13.0384   12.8564   27.4429 C   0  0  0  0  0  0  0  0  0  0  0  0
   11.7393   13.5349   26.9519 C   0  0  0  0  0  0  0  0  0  0  0  0
    7.8227   14.6646   26.5474 C   0  0  0  0  0  0  0  0  0  0  0  0
    7.0444   15.0822   25.3011 C   0  0  0  0  0  0  0  0  0  0  0  0
  1  2  2  0
  2  3  1  0
  4  3  1  1
  4  5  1  0
  5  6  1  0
  6  7  1  0
  8  7  1  6
  8  9  1  0
 10  9  1  6
  2 11  1  0
 11 12  1  0
 12 13  1  0
 13 14  1  0
 14 15  1  0
 15 16  2  0
 15 17  2  0
 15 18  1  0
 18 19  1  0
 19 20  1  0
 20 21  1  0
 21 22  1  0
 22 23  1  0
 14 24  1  0
 24 25  1  0
 10  4  1  0
 25 11  1  0
 10  8  1  0
 23 18  1  0
M  END
>  <energy_score>  (1728) 
-61.270128

>  <inchikey>  (1728) 
PWPWQNLRJLLXME-UHFFFAOYSA-N

>  <smiles>  (1728) 
O=C(OC1COCC2CC21)C1CCN(S(=O)(=O)N2CCCCC2)CC1

>  <ref_pdb>  (1728) 
A0875a

>  <alias>  (1728) 
PWPWQNLRJLLXME-UHFFFAOYSA-N-P439-P87-P439-601505

>  <HIPPO Pose ID>  (1728) 
507799

>  <name>  (1728) 
PWPWQNLRJLLXME-UHFFFAOYSA-N-P439-P87-P439-601505

>  <HIPPO Compound ID>  (1728) 
314435

>  <ref_mols>  (1728) 
A4706a,A0875a

>  <distance_score>  (1728) 
1.783371

>  <inspiration_score>  (1728) 
None

$$$$
NMTWUOQNIJMWRS-UHFFFAOYSA-N-P439-P87-P439-601505
     RDKit          3D

 25 27  0  0  0  0  0  0  0  0999 V2000
   11.6497   14.1891   20.1103 C   0  0  0  0  0  0  0  0  0  0  0  0
   10.4186   14.7096   20.1170 C   0  0  0  0  0  0  0  0  0  0  0  0
   10.0329   15.8498   19.2294 C   0  0  0  0  0  0  0  0  0  0  0  0
    9.5398   16.9839   20.1615 C   0  0  0  0  0  0  0  0  0  0  0  0
   10.2357   16.9107   21.4069 O   0  0  0  0  0  0  0  0  0  0  0  0
    9.8203   15.7540   22.1511 C   0  0  0  0  0  0  0  0  0  0  0  0
    9.4020   14.6056   21.2218 C   0  0  2  0  0  0  0  0  0  0  0  0
    9.3346   13.4062   21.9503 O   0  0  0  0  0  0  0  0  0  0  0  0
    8.1116   13.2886   22.5583 C   0  0  0  0  0  0  0  0  0  0  0  0
    7.0196   13.3268   22.0138 O   0  0  0  0  0  0  0  0  0  0  0  0
    8.3295   13.0715   24.0006 C   0  0  0  0  0  0  0  0  0  0  0  0
    8.1995   11.6460   24.4713 C   0  0  0  0  0  0  0  0  0  0  0  0
    8.9539   11.5488   25.7895 C   0  0  0  0  0  0  0  0  0  0  0  0
    9.0700   12.8644   26.4643 N   0  0  0  0  0  0  0  0  0  0  0  0
   10.4593   13.8384   26.4750 S   0  0  0  0  0  0  0  0  0  0  0  0
   10.5086   14.6577   25.2860 O   0  0  0  0  0  0  0  0  0  0  0  0
   10.4276   14.4536   27.7757 O   0  0  0  0  0  0  0  0  0  0  0  0
   11.7677   12.7407   26.4156 N   0  0  0  0  0  0  0  0  0  0  0  0
   12.8804   13.0053   27.3856 C   0  0  0  0  0  0  0  0  0  0  0  0
   14.2888   12.7576   26.8415 C   0  0  0  0  0  0  0  0  0  0  0  0
   14.4154   11.4566   26.1206 C   0  0  0  0  0  0  0  0  0  0  0  0
   13.2721   11.2978   25.1535 C   0  0  0  0  0  0  0  0  0  0  0  0
   12.2683   12.4514   25.0640 C   0  0  0  0  0  0  0  0  0  0  0  0
    7.7964   13.6497   26.3737 C   0  0  0  0  0  0  0  0  0  0  0  0
    7.5399   14.0164   24.9094 C   0  0  0  0  0  0  0  0  0  0  0  0
  1  2  2  0
  2  3  1  0
  3  4  1  0
  4  5  1  0
  5  6  1  0
  6  7  1  0
  7  8  1  1
  8  9  1  0
  9 10  2  0
  9 11  1  0
 11 12  1  0
 12 13  1  0
 13 14  1  0
 14 15  1  0
 15 16  2  0
 15 17  2  0
 15 18  1  0
 18 19  1  0
 19 20  1  0
 20 21  1  0
 21 22  1  0
 22 23  1  0
 14 24  1  0
 24 25  1  0
  7  2  1  0
 25 11  1  0
 23 18  1  0
M  END
>  <energy_score>  (1729) 
-6.892187

>  <inchikey>  (1729) 
NMTWUOQNIJMWRS-UHFFFAOYSA-N

>  <smiles>  (1729) 
C=C1CCOCC1OC(=O)C1CCN(S(=O)(=O)N2CCCCC2)CC1

>  <ref_pdb>  (1729) 
A0875a

>  <alias>  (1729) 
NMTWUOQNIJMWRS-UHFFFAOYSA-N-P439-P87-P439-601505

>  <HIPPO Pose ID>  (1729) 
507813

>  <name>  (1729) 
NMTWUOQNIJMWRS-UHFFFAOYSA-N-P439-P87-P439-601505

>  <HIPPO Compound ID>  (1729) 
314442

>  <ref_mols>  (1729) 
A4706a,A0875a

>  <distance_score>  (1729) 
1.784171

>  <inspiration_score>  (1729) 
None

$$$$
XRGSAEFDILRMMJ-UHFFFAOYSA-N-P439-P87-P439-601505
     RDKit          3D

 25 27  0  0  0  0  0  0  0  0999 V2000
    6.6923   14.8140   22.1183 O   0  0  0  0  0  0  0  0  0  0  0  0
    6.9977   14.1049   23.0673 C   0  0  0  0  0  0  0  0  0  0  0  0
    8.1499   13.3943   23.1467 O   0  0  0  0  0  0  0  0  0  0  0  0
    9.1726   13.6934   22.1803 C   0  0  0  0  0  0  0  0  0  0  0  0
   10.0105   14.9240   22.5353 C   0  0  0  0  0  0  0  0  0  0  0  0
   10.7187   15.4020   21.4078 O   0  0  0  0  0  0  0  0  0  0  0  0
    9.8212   16.0427   20.5040 C   0  0  0  0  0  0  0  0  0  0  0  0
    9.9895   15.4756   19.1446 C   0  0  2  0  0  0  0  0  0  0  0  0
   11.2396   14.7703   18.6981 C   0  0  0  0  0  0  0  0  0  0  0  0
   10.9846   16.1277   18.3620 O   0  0  0  0  0  0  0  0  0  0  0  0
    6.1102   13.9285   24.3025 C   0  0  0  0  0  0  0  0  0  0  0  0
    6.3098   12.5850   25.0281 C   0  0  0  0  0  0  0  0  0  0  0  0
    6.8775   12.6229   26.4366 C   0  0  0  0  0  0  0  0  0  0  0  0
    7.5196   13.8869   26.7826 N   0  0  0  0  0  0  0  0  0  0  0  0
    9.1037   14.3331   26.4591 S   0  0  0  0  0  0  0  0  0  0  0  0
    9.1892   14.8095   25.1071 O   0  0  0  0  0  0  0  0  0  0  0  0
    9.4965   15.2131   27.5292 O   0  0  0  0  0  0  0  0  0  0  0  0
   10.0473   12.9438   26.5765 N   0  0  0  0  0  0  0  0  0  0  0  0
   11.4884   13.2201   26.8127 C   0  0  0  0  0  0  0  0  0  0  0  0
   12.2313   13.4584   25.5296 C   0  0  0  0  0  0  0  0  0  0  0  0
   12.0409   12.3524   24.5376 C   0  0  0  0  0  0  0  0  0  0  0  0
   10.9677   11.3378   24.9034 C   0  0  0  0  0  0  0  0  0  0  0  0
    9.7691   11.9018   25.5844 C   0  0  0  0  0  0  0  0  0  0  0  0
    6.5414   14.9877   26.6386 C   0  0  0  0  0  0  0  0  0  0  0  0
    6.1814   15.1964   25.1718 C   0  0  0  0  0  0  0  0  0  0  0  0
  1  2  2  0
  2  3  1  0
  3  4  1  0
  4  5  1  0
  5  6  1  0
  6  7  1  0
  8  7  1  1
  8  9  1  0
  9 10  1  0
  2 11  1  0
 11 12  1  0
 12 13  1  0
 13 14  1  0
 14 15  1  0
 15 16  2  0
 15 17  2  0
 15 18  1  0
 18 19  1  0
 19 20  1  0
 20 21  1  0
 21 22  1  0
 22 23  1  0
 14 24  1  0
 24 25  1  0
 10  8  1  0
 25 11  1  0
 23 18  1  0
M  END
>  <energy_score>  (1730) 
-45.184311

>  <inchikey>  (1730) 
XRGSAEFDILRMMJ-UHFFFAOYSA-N

>  <smiles>  (1730) 
O=C(OCCOCC1CO1)C1CCN(S(=O)(=O)N2CCCCC2)CC1

>  <ref_pdb>  (1730) 
A0875a

>  <alias>  (1730) 
XRGSAEFDILRMMJ-UHFFFAOYSA-N-P439-P87-P439-601505

>  <HIPPO Pose ID>  (1730) 
507817

>  <name>  (1730) 
XRGSAEFDILRMMJ-UHFFFAOYSA-N-P439-P87-P439-601505

>  <HIPPO Compound ID>  (1730) 
314444

>  <ref_mols>  (1730) 
A4706a,A0875a

>  <distance_score>  (1730) 
1.552851

>  <inspiration_score>  (1730) 
None

$$$$
OJUCMMCTZOCDLI-UHFFFAOYSA-N-P439-P87-P439-601505
     RDKit          3D

 25 27  0  0  0  0  0  0  0  0999 V2000
   11.2722   14.4146   19.3881 C   0  0  0  0  0  0  0  0  0  0  0  0
   10.5643   15.1838   20.5082 C   0  0  0  0  0  0  0  0  0  0  0  0
    9.6162   16.1339   19.8107 C   0  0  0  0  0  0  0  0  0  0  0  0
   11.6492   15.9052   21.3111 C   0  0  0  0  0  0  0  0  0  0  0  0
   11.8609   15.1458   22.4874 O   0  0  0  0  0  0  0  0  0  0  0  0
   10.5476   14.7882   22.8480 C   0  0  0  0  0  0  0  0  0  0  0  0
    9.8498   14.3182   21.5872 C   0  0  1  0  0  0  0  0  0  0  0  0
    8.3969   14.4987   21.6071 O   0  0  0  0  0  0  0  0  0  0  0  0
    7.5139   13.7608   22.3254 C   0  0  0  0  0  0  0  0  0  0  0  0
    6.5096   13.2748   21.8110 O   0  0  0  0  0  0  0  0  0  0  0  0
    7.7290   13.6000   23.8013 C   0  0  0  0  0  0  0  0  0  0  0  0
    7.4606   12.1883   24.3283 C   0  0  0  0  0  0  0  0  0  0  0  0
    7.7560   12.0445   25.8165 C   0  0  0  0  0  0  0  0  0  0  0  0
    7.9685   13.3446   26.4498 N   0  0  0  0  0  0  0  0  0  0  0  0
    9.4415   14.1193   26.6382 S   0  0  0  0  0  0  0  0  0  0  0  0
    9.3602   14.7406   27.9361 O   0  0  0  0  0  0  0  0  0  0  0  0
    9.7081   14.9554   25.4964 O   0  0  0  0  0  0  0  0  0  0  0  0
   10.6958   12.9585   26.7079 N   0  0  0  0  0  0  0  0  0  0  0  0
   11.8931   13.6618   27.2591 C   0  0  0  0  0  0  0  0  0  0  0  0
   13.1329   12.7930   27.3055 C   0  0  0  0  0  0  0  0  0  0  0  0
   13.5583   12.4509   25.9122 C   0  0  0  0  0  0  0  0  0  0  0  0
   12.4112   11.8694   25.1377 C   0  0  0  0  0  0  0  0  0  0  0  0
   10.9599   12.1466   25.5017 C   0  0  0  0  0  0  0  0  0  0  0  0
    6.8602   14.2831   26.1042 C   0  0  0  0  0  0  0  0  0  0  0  0
    6.9110   14.6211   24.6067 C   0  0  0  0  0  0  0  0  0  0  0  0
  1  2  1  0
  2  3  1  0
  2  4  1  0
  4  5  1  0
  5  6  1  0
  6  7  1  0
  7  8  1  1
  8  9  1  0
  9 10  2  0
  9 11  1  0
 11 12  1  0
 12 13  1  0
 13 14  1  0
 14 15  1  0
 15 16  2  0
 15 17  2  0
 15 18  1  0
 18 19  1  0
 19 20  1  0
 20 21  1  0
 21 22  1  0
 22 23  1  0
 14 24  1  0
 24 25  1  0
  7  2  1  0
 25 11  1  0
 23 18  1  0
M  END
>  <energy_score>  (1731) 
-16.526726

>  <inchikey>  (1731) 
OJUCMMCTZOCDLI-UHFFFAOYSA-N

>  <smiles>  (1731) 
CC1(C)COCC1OC(=O)C1CCN(S(=O)(=O)N2CCCCC2)CC1

>  <ref_pdb>  (1731) 
A0875a

>  <alias>  (1731) 
OJUCMMCTZOCDLI-UHFFFAOYSA-N-P439-P87-P439-601505

>  <HIPPO Pose ID>  (1731) 
507823

>  <name>  (1731) 
OJUCMMCTZOCDLI-UHFFFAOYSA-N-P439-P87-P439-601505

>  <HIPPO Compound ID>  (1731) 
314447

>  <ref_mols>  (1731) 
A4706a,A0875a

>  <distance_score>  (1731) 
1.715717

>  <inspiration_score>  (1731) 
None

$$$$
ZNTNBSMFHSDHAD-UHFFFAOYSA-N-P439-P87-P439-601505
     RDKit          3D

 25 28  0  0  0  0  0  0  0  0999 V2000
    7.0271   16.2781   22.2518 O   0  0  0  0  0  0  0  0  0  0  0  0
    7.4027   15.2345   22.7696 C   0  0  0  0  0  0  0  0  0  0  0  0
    8.6227   14.6729   22.5238 O   0  0  0  0  0  0  0  0  0  0  0  0
    9.6830   15.6142   22.1518 C   0  0  1  0  0  0  0  0  0  0  0  0
   10.8553   15.4339   23.1127 C   0  0  0  0  0  0  0  0  0  0  0  0
   12.0778   15.4358   22.3821 O   0  0  0  0  0  0  0  0  0  0  0  0
   11.7498   14.8607   21.1238 C   0  0  0  0  0  0  0  0  0  0  0  0
   10.3605   15.3068   20.8585 C   0  0  0  0  0  0  0  0  0  0  0  0
    9.5984   14.7979   19.7068 C   0  0  0  0  0  0  0  0  0  0  0  0
   10.0910   16.1827   19.6459 C   0  0  0  0  0  0  0  0  0  0  0  0
    6.4884   14.4951   23.7784 C   0  0  0  0  0  0  0  0  0  0  0  0
    6.8033   13.0156   24.0204 C   0  0  0  0  0  0  0  0  0  0  0  0
    6.9229   12.5509   25.4613 C   0  0  0  0  0  0  0  0  0  0  0  0
    7.4973   13.5764   26.3222 N   0  0  0  0  0  0  0  0  0  0  0  0
    9.0509   14.1825   26.1883 S   0  0  0  0  0  0  0  0  0  0  0  0
    9.3825   14.7210   27.4849 O   0  0  0  0  0  0  0  0  0  0  0  0
    9.0854   15.0658   25.0568 O   0  0  0  0  0  0  0  0  0  0  0  0
   10.1612   12.9698   25.8988 N   0  0  0  0  0  0  0  0  0  0  0  0
   10.0488   12.0662   24.7444 C   0  0  0  0  0  0  0  0  0  0  0  0
   10.9057   10.8624   25.0773 C   0  0  0  0  0  0  0  0  0  0  0  0
   12.3501   11.2955   25.4565 C   0  0  0  0  0  0  0  0  0  0  0  0
   12.5827   12.7673   25.2093 C   0  0  0  0  0  0  0  0  0  0  0  0
   11.5611   13.5274   26.0493 C   0  0  0  0  0  0  0  0  0  0  0  0
    6.4922   14.6788   26.4178 C   0  0  0  0  0  0  0  0  0  0  0  0
    6.2625   15.3490   25.0538 C   0  0  0  0  0  0  0  0  0  0  0  0
  1  2  2  0
  2  3  1  0
  4  3  1  1
  4  5  1  0
  5  6  1  0
  6  7  1  0
  7  8  1  0
  8  9  1  0
  9 10  1  0
  2 11  1  0
 11 12  1  0
 12 13  1  0
 13 14  1  0
 14 15  1  0
 15 16  2  0
 15 17  2  0
 15 18  1  0
 18 19  1  0
 19 20  1  0
 20 21  1  0
 21 22  1  0
 22 23  1  0
 14 24  1  0
 24 25  1  0
  8  4  1  0
 25 11  1  0
 10  8  1  0
 23 18  1  0
M  END
>  <energy_score>  (1732) 
-8.04964

>  <inchikey>  (1732) 
ZNTNBSMFHSDHAD-UHFFFAOYSA-N

>  <smiles>  (1732) 
O=C(OC1COCC12CC2)C1CCN(S(=O)(=O)N2CCCCC2)CC1

>  <ref_pdb>  (1732) 
A0875a

>  <alias>  (1732) 
ZNTNBSMFHSDHAD-UHFFFAOYSA-N-P439-P87-P439-601505

>  <HIPPO Pose ID>  (1732) 
507825

>  <name>  (1732) 
ZNTNBSMFHSDHAD-UHFFFAOYSA-N-P439-P87-P439-601505

>  <HIPPO Compound ID>  (1732) 
314448

>  <ref_mols>  (1732) 
A4706a,A0875a

>  <distance_score>  (1732) 
1.600715

>  <inspiration_score>  (1732) 
None

$$$$
HFEXFXBGFYYULV-UHFFFAOYSA-N-P439-P87-P439-601505
     RDKit          3D

 25 28  0  0  0  0  0  0  0  0999 V2000
    6.8244   13.5263   21.9272 O   0  0  0  0  0  0  0  0  0  0  0  0
    7.9497   13.4913   22.3967 C   0  0  0  0  0  0  0  0  0  0  0  0
    9.1111   13.6364   21.6930 O   0  0  0  0  0  0  0  0  0  0  0  0
    9.2210   14.8889   21.0167 C   0  0  1  0  0  0  0  0  0  0  0  0
    9.5023   15.9515   22.0630 C   0  0  0  0  0  0  0  0  0  0  0  0
   10.9769   15.7149   22.3572 C   0  0  0  0  0  0  0  0  0  0  0  0
   11.5575   15.4993   21.0754 O   0  0  0  0  0  0  0  0  0  0  0  0
   10.4989   15.0031   20.2297 C   0  0  0  0  0  0  0  0  0  0  0  0
   10.9545   14.3236   18.9761 C   0  0  0  0  0  0  0  0  0  0  0  0
   10.3565   15.6682   18.8931 C   0  0  0  0  0  0  0  0  0  0  0  0
    8.2800   13.2102   23.8267 C   0  0  0  0  0  0  0  0  0  0  0  0
    8.2319   11.7506   24.2296 C   0  0  0  0  0  0  0  0  0  0  0  0
    8.9658   11.5754   25.5541 C   0  0  0  0  0  0  0  0  0  0  0  0
    9.0361   12.8395   26.3111 N   0  0  0  0  0  0  0  0  0  0  0  0
   10.4046   13.8279   26.4164 S   0  0  0  0  0  0  0  0  0  0  0  0
   10.4778   14.7041   25.2711 O   0  0  0  0  0  0  0  0  0  0  0  0
   10.3228   14.3951   27.7378 O   0  0  0  0  0  0  0  0  0  0  0  0
   11.7374   12.7639   26.3642 N   0  0  0  0  0  0  0  0  0  0  0  0
   12.8285   13.0332   27.3583 C   0  0  0  0  0  0  0  0  0  0  0  0
   14.2512   12.7711   26.8568 C   0  0  0  0  0  0  0  0  0  0  0  0
   14.3893   11.4712   26.1360 C   0  0  0  0  0  0  0  0  0  0  0  0
   13.2624   11.3190   25.1464 C   0  0  0  0  0  0  0  0  0  0  0  0
   12.2789   12.4905   25.0261 C   0  0  0  0  0  0  0  0  0  0  0  0
    7.7447   13.5926   26.2609 C   0  0  0  0  0  0  0  0  0  0  0  0
    7.4778   14.0557   24.8254 C   0  0  0  0  0  0  0  0  0  0  0  0
  1  2  2  0
  2  3  1  0
  4  3  1  1
  4  5  1  0
  5  6  1  0
  6  7  1  0
  7  8  1  0
  8  9  1  0
  9 10  1  0
  2 11  1  0
 11 12  1  0
 12 13  1  0
 13 14  1  0
 14 15  1  0
 15 16  2  0
 15 17  2  0
 15 18  1  0
 18 19  1  0
 19 20  1  0
 20 21  1  0
 21 22  1  0
 22 23  1  0
 14 24  1  0
 24 25  1  0
  8  4  1  0
 25 11  1  0
 10  8  1  0
 23 18  1  0
M  END
>  <energy_score>  (1733) 
-46.953728

>  <inchikey>  (1733) 
HFEXFXBGFYYULV-UHFFFAOYSA-N

>  <smiles>  (1733) 
O=C(OC1CCOC12CC2)C1CCN(S(=O)(=O)N2CCCCC2)CC1

>  <ref_pdb>  (1733) 
A0875a

>  <alias>  (1733) 
HFEXFXBGFYYULV-UHFFFAOYSA-N-P439-P87-P439-601505

>  <HIPPO Pose ID>  (1733) 
507827

>  <name>  (1733) 
HFEXFXBGFYYULV-UHFFFAOYSA-N-P439-P87-P439-601505

>  <HIPPO Compound ID>  (1733) 
314449

>  <ref_mols>  (1733) 
A4706a,A0875a

>  <distance_score>  (1733) 
1.526204

>  <inspiration_score>  (1733) 
None

$$$$
VQUDZAIWFMJRHZ-UHFFFAOYSA-N-P87-P87-P439-601505
     RDKit          3D

 25 27  0  0  0  0  0  0  0  0999 V2000
   17.0696   12.3332   26.9781 C   0  0  0  0  0  0  0  0  0  0  0  0
   15.7247   12.3896   27.7214 C   0  0  0  0  0  0  0  0  0  0  0  0
   15.5885   13.8358   28.2462 C   0  0  0  0  0  0  0  0  0  0  0  0
   14.6183   12.2169   26.7566 O   0  0  0  0  0  0  0  0  0  0  0  0
   14.5113   11.0970   26.0068 C   0  0  0  0  0  0  0  0  0  0  0  0
   15.1842   10.0846   26.1520 O   0  0  0  0  0  0  0  0  0  0  0  0
   13.4789   11.1459   24.8758 C   0  0  0  0  0  0  0  0  0  0  0  0
   13.0203   12.5440   24.5553 C   0  0  0  0  0  0  0  0  0  0  0  0
   11.9056   12.8551   25.5135 C   0  0  0  0  0  0  0  0  0  0  0  0
   10.6546   12.1026   25.1663 N   0  0  0  0  0  0  0  0  0  0  0  0
    9.4778   13.2454   24.7862 S   0  0  0  0  0  0  0  0  0  0  0  0
    9.9037   13.9368   23.5945 O   0  0  0  0  0  0  0  0  0  0  0  0
    9.3791   13.9201   26.0548 O   0  0  0  0  0  0  0  0  0  0  0  0
    7.9855   12.5313   24.5007 N   0  0  0  0  0  0  0  0  0  0  0  0
    7.4553   11.6095   25.5015 C   0  0  0  0  0  0  0  0  0  0  0  0
    6.7391   12.2941   26.6439 C   0  0  0  0  0  0  0  0  0  0  0  0
    5.6252   13.2216   26.2386 C   0  0  0  0  0  0  0  0  0  0  0  0
    5.7061   13.7633   24.8245 C   0  0  0  0  0  0  0  0  0  0  0  0
    6.9566   13.5048   23.9681 C   0  0  0  0  0  0  0  0  0  0  0  0
   10.8815   10.8997   24.3589 C   0  0  0  0  0  0  0  0  0  0  0  0
   12.2085   10.1831   24.8100 C   0  0  0  0  0  0  0  0  0  0  0  0
   15.6388   11.4074   28.9030 C   0  0  1  0  0  0  0  0  0  0  0  0
   16.6467   10.2963   29.0075 C   0  0  0  0  0  0  0  0  0  0  0  0
   14.9299   11.7833   30.2132 C   0  0  0  0  0  0  0  0  0  0  0  0
   14.3004   10.9972   29.2099 O   0  0  0  0  0  0  0  0  0  0  0  0
  1  2  1  0
  2  3  1  0
  2  4  1  0
  4  5  1  0
  5  6  2  0
  5  7  1  0
  7  8  1  0
  8  9  1  0
  9 10  1  0
 10 11  1  0
 11 12  2  0
 11 13  2  0
 11 14  1  0
 14 15  1  0
 15 16  1  0
 16 17  1  0
 17 18  1  0
 18 19  1  0
 10 20  1  0
 20 21  1  0
  2 22  1  0
 22 23  1  1
 22 24  1  0
 24 25  1  0
 21  7  1  0
 25 22  1  0
 19 14  1  0
M  END
>  <energy_score>  (1734) 
-42.687042

>  <inchikey>  (1734) 
VQUDZAIWFMJRHZ-UHFFFAOYSA-N

>  <smiles>  (1734) 
CC(C)(OC(=O)C1CCN(S(=O)(=O)N2CCCCC2)CC1)C1(C)CO1

>  <ref_pdb>  (1734) 
A0875a

>  <alias>  (1734) 
VQUDZAIWFMJRHZ-UHFFFAOYSA-N-P87-P87-P439-601505

>  <HIPPO Pose ID>  (1734) 
507830

>  <name>  (1734) 
VQUDZAIWFMJRHZ-UHFFFAOYSA-N-P87-P87-P439-601505

>  <HIPPO Compound ID>  (1734) 
314451

>  <ref_mols>  (1734) 
A4706a,A0875a

>  <distance_score>  (1734) 
1.374875

>  <inspiration_score>  (1734) 
None

$$$$
KZCDQXZJFBONMV-UHFFFAOYSA-N-P87-P87-P439-601505
     RDKit          3D

 26 27  0  0  0  0  0  0  0  0999 V2000
   15.7450   12.8473   30.6646 C   0  0  0  0  0  0  0  0  0  0  0  0
   14.6691   11.9148   30.1411 C   0  0  0  0  0  0  0  0  0  0  0  0
   14.6658   11.9258   28.7023 O   0  0  0  0  0  0  0  0  0  0  0  0
   15.5446   11.0653   28.1092 C   0  0  0  0  0  0  0  0  0  0  0  0
   16.2183   10.2416   28.7140 O   0  0  0  0  0  0  0  0  0  0  0  0
   15.6171   11.3091   26.5852 C   0  0  0  0  0  0  0  0  0  0  0  0
   16.2576   10.0878   25.9302 C   0  0  0  0  0  0  0  0  0  0  0  0
   16.4773   12.5642   26.4329 C   0  0  0  0  0  0  0  0  0  0  0  0
   14.2809   11.5552   26.0504 O   0  0  0  0  0  0  0  0  0  0  0  0
   14.1020   11.8266   24.7224 C   0  0  0  0  0  0  0  0  0  0  0  0
   14.8726   11.4760   23.8468 O   0  0  0  0  0  0  0  0  0  0  0  0
   12.8899   12.7146   24.4466 C   0  0  0  0  0  0  0  0  0  0  0  0
   11.8942   12.6536   25.5653 C   0  0  0  0  0  0  0  0  0  0  0  0
   10.8039   11.6821   25.1619 C   0  0  0  0  0  0  0  0  0  0  0  0
   10.0438   12.2501   24.0677 N   0  0  0  0  0  0  0  0  0  0  0  0
    9.1173   13.5904   24.4688 S   0  0  0  0  0  0  0  0  0  0  0  0
    9.3380   14.6136   23.4828 O   0  0  0  0  0  0  0  0  0  0  0  0
    9.3180   13.7966   25.8850 O   0  0  0  0  0  0  0  0  0  0  0  0
    7.5863   12.9188   24.3166 N   0  0  0  0  0  0  0  0  0  0  0  0
    7.2184   11.8897   25.2939 C   0  0  0  0  0  0  0  0  0  0  0  0
    6.5611   12.4388   26.5328 C   0  0  0  0  0  0  0  0  0  0  0  0
    5.4106   13.3814   26.2626 C   0  0  0  0  0  0  0  0  0  0  0  0
    5.3496   14.0201   24.8759 C   0  0  0  0  0  0  0  0  0  0  0  0
    6.4960   13.8230   23.8767 C   0  0  0  0  0  0  0  0  0  0  0  0
   10.8236   12.2800   22.8368 C   0  0  0  0  0  0  0  0  0  0  0  0
   12.2011   12.8965   23.0730 C   0  0  0  0  0  0  0  0  0  0  0  0
  1  2  1  0
  2  3  1  0
  3  4  1  0
  4  5  2  0
  4  6  1  0
  6  7  1  0
  6  8  1  0
  6  9  1  0
  9 10  1  0
 10 11  2  0
 10 12  1  0
 12 13  1  0
 13 14  1  0
 14 15  1  0
 15 16  1  0
 16 17  2  0
 16 18  2  0
 16 19  1  0
 19 20  1  0
 20 21  1  0
 21 22  1  0
 22 23  1  0
 23 24  1  0
 15 25  1  0
 25 26  1  0
 26 12  1  0
 24 19  1  0
M  END
>  <energy_score>  (1735) 
-30.64081

>  <inchikey>  (1735) 
KZCDQXZJFBONMV-UHFFFAOYSA-N

>  <smiles>  (1735) 
CCOC(=O)C(C)(C)OC(=O)C1CCN(S(=O)(=O)N2CCCCC2)CC1

>  <ref_pdb>  (1735) 
A0875a

>  <alias>  (1735) 
KZCDQXZJFBONMV-UHFFFAOYSA-N-P87-P87-P439-601505

>  <HIPPO Pose ID>  (1735) 
507838

>  <name>  (1735) 
KZCDQXZJFBONMV-UHFFFAOYSA-N-P87-P87-P439-601505

>  <HIPPO Compound ID>  (1735) 
314455

>  <ref_mols>  (1735) 
A4706a,A0875a

>  <distance_score>  (1735) 
1.445333

>  <inspiration_score>  (1735) 
None

$$$$
SRYGEIKFCQBGBC-UHFFFAOYSA-N-P439-P87-P439-601505
     RDKit          3D

 26 27  0  0  0  0  0  0  0  0999 V2000
   15.6354    9.7971   25.6220 C   0  0  0  0  0  0  0  0  0  0  0  0
   16.6410    9.8041   26.6278 O   0  0  0  0  0  0  0  0  0  0  0  0
   16.7838   10.8285   27.4967 C   0  0  0  0  0  0  0  0  0  0  0  0
   17.8782   11.0368   28.0120 O   0  0  0  0  0  0  0  0  0  0  0  0
   15.5211   11.6178   27.8791 C   0  0  1  0  0  0  0  0  0  0  0  0
   15.9527   12.5676   29.0075 C   0  0  0  0  0  0  0  0  0  0  0  0
   14.8565   13.3277   29.6049 C   0  0  0  0  0  0  0  0  0  0  0  0
   14.0296   13.9921   30.0713 N   0  0  0  0  0  0  0  0  0  0  0  0
   14.8988   12.2413   26.7169 O   0  0  0  0  0  0  0  0  0  0  0  0
   13.5349   12.1686   26.7166 C   0  0  0  0  0  0  0  0  0  0  0  0
   12.9078   12.0565   27.7544 O   0  0  0  0  0  0  0  0  0  0  0  0
   12.8761   12.1259   25.3295 C   0  0  0  0  0  0  0  0  0  0  0  0
   12.6649   13.4754   24.6917 C   0  0  0  0  0  0  0  0  0  0  0  0
   11.4357   14.1965   25.2172 C   0  0  0  0  0  0  0  0  0  0  0  0
   10.2186   13.3685   25.0511 N   0  0  0  0  0  0  0  0  0  0  0  0
    8.8221   14.2262   24.7776 S   0  0  0  0  0  0  0  0  0  0  0  0
    8.5194   14.1550   23.3727 O   0  0  0  0  0  0  0  0  0  0  0  0
    9.0183   15.4761   25.4704 O   0  0  0  0  0  0  0  0  0  0  0  0
    7.6804   13.3764   25.6585 N   0  0  0  0  0  0  0  0  0  0  0  0
    7.0033   12.2205   25.0462 C   0  0  0  0  0  0  0  0  0  0  0  0
    6.5605   11.3284   26.2004 C   0  0  0  0  0  0  0  0  0  0  0  0
    5.5642   12.0686   27.0924 C   0  0  0  0  0  0  0  0  0  0  0  0
    6.1075   13.4233   27.5392 C   0  0  0  0  0  0  0  0  0  0  0  0
    6.6855   14.2259   26.3768 C   0  0  0  0  0  0  0  0  0  0  0  0
   10.4387   12.0519   24.4620 C   0  0  0  0  0  0  0  0  0  0  0  0
   11.5012   11.4446   25.3702 C   0  0  0  0  0  0  0  0  0  0  0  0
  1  2  1  0
  2  3  1  0
  3  4  2  0
  3  5  1  0
  5  6  1  1
  6  7  1  0
  7  8  3  0
  5  9  1  0
  9 10  1  0
 10 11  2  0
 10 12  1  0
 12 13  1  0
 13 14  1  0
 14 15  1  0
 15 16  1  0
 16 17  2  0
 16 18  2  0
 16 19  1  0
 19 20  1  0
 20 21  1  0
 21 22  1  0
 22 23  1  0
 23 24  1  0
 15 25  1  0
 25 26  1  0
 26 12  1  0
 24 19  1  0
M  END
>  <energy_score>  (1736) 
-26.896415

>  <inchikey>  (1736) 
SRYGEIKFCQBGBC-UHFFFAOYSA-N

>  <smiles>  (1736) 
COC(=O)C(CC#N)OC(=O)C1CCN(S(=O)(=O)N2CCCCC2)CC1

>  <ref_pdb>  (1736) 
A0875a

>  <alias>  (1736) 
SRYGEIKFCQBGBC-UHFFFAOYSA-N-P439-P87-P439-601505

>  <HIPPO Pose ID>  (1736) 
507857

>  <name>  (1736) 
SRYGEIKFCQBGBC-UHFFFAOYSA-N-P439-P87-P439-601505

>  <HIPPO Compound ID>  (1736) 
314464

>  <ref_mols>  (1736) 
A4706a,A0875a

>  <distance_score>  (1736) 
1.800954

>  <inspiration_score>  (1736) 
None

$$$$
VTPXYHJESWGONK-UHFFFAOYSA-N-P439-P87-P439-601505
     RDKit          3D

 26 28  0  0  0  0  0  0  0  0999 V2000
    5.3019   15.7690   21.9757 N   0  0  0  0  0  0  0  0  0  0  0  0
    6.6869   16.2959   22.0765 C   0  0  0  0  0  0  0  0  0  0  0  0
    7.7417   15.2030   22.2708 C   0  0  2  0  0  0  0  0  0  0  0  0
    7.4704   14.8548   23.6421 O   0  0  0  0  0  0  0  0  0  0  0  0
    6.6066   13.8152   23.8048 C   0  0  0  0  0  0  0  0  0  0  0  0
    6.3054   13.0076   22.9273 O   0  0  0  0  0  0  0  0  0  0  0  0
    5.9661   13.7885   25.1882 C   0  0  0  0  0  0  0  0  0  0  0  0
    6.0047   12.3565   25.7265 C   0  0  0  0  0  0  0  0  0  0  0  0
    7.4321   11.8847   25.9732 C   0  0  0  0  0  0  0  0  0  0  0  0
    8.2730   12.9815   26.5088 N   0  0  0  0  0  0  0  0  0  0  0  0
    9.5513   13.5504   25.5614 S   0  0  0  0  0  0  0  0  0  0  0  0
    9.9485   14.8316   26.0903 O   0  0  0  0  0  0  0  0  0  0  0  0
    9.2395   13.3039   24.1822 O   0  0  0  0  0  0  0  0  0  0  0  0
   10.7693   12.4161   25.9334 N   0  0  0  0  0  0  0  0  0  0  0  0
   12.0970   13.0842   25.9285 C   0  0  0  0  0  0  0  0  0  0  0  0
   13.1855   12.1095   26.3291 C   0  0  0  0  0  0  0  0  0  0  0  0
   13.1909   10.9237   25.3851 C   0  0  0  0  0  0  0  0  0  0  0  0
   11.7976   10.2530   25.2593 C   0  0  0  0  0  0  0  0  0  0  0  0
   10.6969   11.2584   24.9917 C   0  0  0  0  0  0  0  0  0  0  0  0
    7.4885   14.0354   27.2016 C   0  0  0  0  0  0  0  0  0  0  0  0
    6.5643   14.7510   26.2238 C   0  0  0  0  0  0  0  0  0  0  0  0
    9.1783   15.7479   21.9321 C   0  0  2  0  0  0  0  0  0  0  0  0
    9.5746   15.5421   20.4613 C   0  0  0  0  0  0  0  0  0  0  0  0
   10.9692   14.9679   20.5100 C   0  0  0  0  0  0  0  0  0  0  0  0
   10.9952   14.3082   21.8635 C   0  0  0  0  0  0  0  0  0  0  0  0
   10.2385   15.1714   22.7100 O   0  0  0  0  0  0  0  0  0  0  0  0
  1  2  1  0
  3  2  1  1
  3  4  1  0
  4  5  1  0
  5  6  2  0
  5  7  1  0
  7  8  1  0
  8  9  1  0
  9 10  1  0
 10 11  1  0
 11 12  2  0
 11 13  2  0
 11 14  1  0
 14 15  1  0
 15 16  1  0
 16 17  1  0
 17 18  1  0
 18 19  1  0
 10 20  1  0
 20 21  1  0
  3 22  1  0
 22 23  1  6
 23 24  1  0
 24 25  1  0
 25 26  1  0
 21  7  1  0
 26 22  1  0
 19 14  1  0
M  END
>  <energy_score>  (1737) 
-45.413768

>  <inchikey>  (1737) 
VTPXYHJESWGONK-UHFFFAOYSA-N

>  <smiles>  (1737) 
NCC(OC(=O)C1CCN(S(=O)(=O)N2CCCCC2)CC1)C1CCCO1

>  <ref_pdb>  (1737) 
A0875a

>  <alias>  (1737) 
VTPXYHJESWGONK-UHFFFAOYSA-N-P439-P87-P439-601505

>  <HIPPO Pose ID>  (1737) 
507869

>  <name>  (1737) 
VTPXYHJESWGONK-UHFFFAOYSA-N-P439-P87-P439-601505

>  <HIPPO Compound ID>  (1737) 
314470

>  <ref_mols>  (1737) 
A4706a,A0875a

>  <distance_score>  (1737) 
1.382052

>  <inspiration_score>  (1737) 
None

$$$$
MOLJTLPXQKBXOS-UHFFFAOYSA-N-P439-P87-P439-601505
     RDKit          3D

 26 28  0  0  0  0  0  0  0  0999 V2000
    7.5946   15.7891   21.8529 C   0  0  0  0  0  0  0  0  0  0  0  0
    8.7083   15.2314   22.7284 C   0  0  1  0  0  0  0  0  0  0  0  0
    8.5380   13.8448   23.1165 O   0  0  0  0  0  0  0  0  0  0  0  0
    7.2911   13.3320   23.0407 C   0  0  0  0  0  0  0  0  0  0  0  0
    6.7390   13.0972   21.9707 O   0  0  0  0  0  0  0  0  0  0  0  0
    6.6181   12.9416   24.3439 C   0  0  0  0  0  0  0  0  0  0  0  0
    7.3461   11.7700   25.0225 C   0  0  0  0  0  0  0  0  0  0  0  0
    8.2112   12.2381   26.1844 C   0  0  0  0  0  0  0  0  0  0  0  0
    8.6812   13.5737   25.8201 N   0  0  0  0  0  0  0  0  0  0  0  0
   10.1721   14.1640   26.2239 S   0  0  0  0  0  0  0  0  0  0  0  0
   10.0733   14.5361   27.6127 O   0  0  0  0  0  0  0  0  0  0  0  0
   10.5538   15.1351   25.2282 O   0  0  0  0  0  0  0  0  0  0  0  0
   11.2527   12.9041   26.1405 N   0  0  0  0  0  0  0  0  0  0  0  0
   11.4318   12.1280   24.8974 C   0  0  0  0  0  0  0  0  0  0  0  0
   12.3946   11.0063   25.3137 C   0  0  0  0  0  0  0  0  0  0  0  0
   13.8220   11.4488   25.5100 C   0  0  0  0  0  0  0  0  0  0  0  0
   13.7806   12.8703   26.0257 C   0  0  0  0  0  0  0  0  0  0  0  0
   12.5353   13.1350   26.8914 C   0  0  0  0  0  0  0  0  0  0  0  0
    7.5907   14.5685   26.0348 C   0  0  0  0  0  0  0  0  0  0  0  0
    6.3591   14.1392   25.2541 C   0  0  0  0  0  0  0  0  0  0  0  0
   10.1442   15.5703   22.2147 C   0  0  1  0  0  0  0  0  0  0  0  0
   11.0033   14.4509   21.6971 C   0  0  0  0  0  0  0  0  0  0  0  0
   10.6060   14.3986   20.2503 C   0  0  0  0  0  0  0  0  0  0  0  0
   10.1843   15.7809   19.9438 C   0  0  0  0  0  0  0  0  0  0  0  0
    9.9080   16.2199   18.8444 O   0  0  0  0  0  0  0  0  0  0  0  0
   10.0924   16.4801   21.1024 O   0  0  0  0  0  0  0  0  0  0  0  0
  2  1  1  6
  2  3  1  0
  3  4  1  0
  4  5  2  0
  4  6  1  0
  6  7  1  0
  7  8  1  0
  8  9  1  0
  9 10  1  0
 10 11  2  0
 10 12  2  0
 10 13  1  0
 13 14  1  0
 14 15  1  0
 15 16  1  0
 16 17  1  0
 17 18  1  0
  9 19  1  0
 19 20  1  0
  2 21  1  0
 21 22  1  6
 22 23  1  0
 23 24  1  0
 24 25  2  0
 24 26  1  0
 20  6  1  0
 26 21  1  0
 18 13  1  0
M  END
>  <energy_score>  (1738) 
-25.803166

>  <inchikey>  (1738) 
MOLJTLPXQKBXOS-UHFFFAOYSA-N

>  <smiles>  (1738) 
CC(OC(=O)C1CCN(S(=O)(=O)N2CCCCC2)CC1)C1CCC(=O)O1

>  <ref_pdb>  (1738) 
A0875a

>  <alias>  (1738) 
MOLJTLPXQKBXOS-UHFFFAOYSA-N-P439-P87-P439-601505

>  <HIPPO Pose ID>  (1738) 
507871

>  <name>  (1738) 
MOLJTLPXQKBXOS-UHFFFAOYSA-N-P439-P87-P439-601505

>  <HIPPO Compound ID>  (1738) 
314471

>  <ref_mols>  (1738) 
A4706a,A0875a

>  <distance_score>  (1738) 
1.473502

>  <inspiration_score>  (1738) 
None

$$$$
PYPYOHDFUOUTME-UHFFFAOYSA-N-P439-P87-P439-601505
     RDKit          3D

 26 28  0  0  0  0  0  0  0  0999 V2000
   11.6509   15.0621   18.2743 C   0  0  0  0  0  0  0  0  0  0  0  0
   10.2917   14.8163   18.8233 C   0  0  0  0  0  0  0  0  0  0  0  0
   10.0640   15.6206   20.0010 N   0  0  0  0  0  0  0  0  0  0  0  0
    9.5709   14.7960   21.1287 C   0  0  1  0  0  0  0  0  0  0  0  0
   10.7174   13.9407   21.7026 C   0  0  0  0  0  0  0  0  0  0  0  0
   11.2542   14.5887   22.8541 O   0  0  0  0  0  0  0  0  0  0  0  0
   10.6434   15.8810   22.8698 C   0  0  0  0  0  0  0  0  0  0  0  0
    9.2389   15.7557   22.2571 C   0  0  2  0  0  0  0  0  0  0  0  0
    8.2829   15.3693   23.2885 O   0  0  0  0  0  0  0  0  0  0  0  0
    7.1115   14.7243   23.0727 C   0  0  0  0  0  0  0  0  0  0  0  0
    6.7216   14.3172   21.9835 O   0  0  0  0  0  0  0  0  0  0  0  0
    6.2892   14.5095   24.3802 C   0  0  0  0  0  0  0  0  0  0  0  0
    6.0002   13.0192   24.6742 C   0  0  0  0  0  0  0  0  0  0  0  0
    6.9477   12.2566   25.6199 C   0  0  0  0  0  0  0  0  0  0  0  0
    7.9653   13.1465   26.2301 N   0  0  0  0  0  0  0  0  0  0  0  0
    9.3122   13.4536   25.2581 S   0  0  0  0  0  0  0  0  0  0  0  0
    8.9321   12.9949   23.9445 O   0  0  0  0  0  0  0  0  0  0  0  0
    9.7549   14.7941   25.5542 O   0  0  0  0  0  0  0  0  0  0  0  0
   10.5024   12.3704   25.8268 N   0  0  0  0  0  0  0  0  0  0  0  0
   11.8178   13.0835   25.9169 C   0  0  0  0  0  0  0  0  0  0  0  0
   12.9433   12.1666   26.3481 C   0  0  0  0  0  0  0  0  0  0  0  0
   13.0409   10.9980   25.3927 C   0  0  0  0  0  0  0  0  0  0  0  0
   11.6935   10.2415   25.2514 C   0  0  0  0  0  0  0  0  0  0  0  0
   10.5314   11.1635   24.9458 C   0  0  0  0  0  0  0  0  0  0  0  0
    7.2970   14.3630   26.7633 C   0  0  0  0  0  0  0  0  0  0  0  0
    6.7495   15.2559   25.6438 C   0  0  0  0  0  0  0  0  0  0  0  0
  1  2  1  0
  2  3  1  0
  4  3  1  6
  4  5  1  0
  5  6  1  0
  6  7  1  0
  7  8  1  0
  8  9  1  1
  9 10  1  0
 10 11  2  0
 10 12  1  0
 12 13  1  0
 13 14  1  0
 14 15  1  0
 15 16  1  0
 16 17  2  0
 16 18  2  0
 16 19  1  0
 19 20  1  0
 20 21  1  0
 21 22  1  0
 22 23  1  0
 23 24  1  0
 15 25  1  0
 25 26  1  0
  8  4  1  0
 26 12  1  0
 24 19  1  0
M  END
>  <energy_score>  (1739) 
-50.710752

>  <inchikey>  (1739) 
PYPYOHDFUOUTME-UHFFFAOYSA-N

>  <smiles>  (1739) 
CCNC1COCC1OC(=O)C1CCN(S(=O)(=O)N2CCCCC2)CC1

>  <ref_pdb>  (1739) 
A0875a

>  <alias>  (1739) 
PYPYOHDFUOUTME-UHFFFAOYSA-N-P439-P87-P439-601505

>  <HIPPO Pose ID>  (1739) 
507891

>  <name>  (1739) 
PYPYOHDFUOUTME-UHFFFAOYSA-N-P439-P87-P439-601505

>  <HIPPO Compound ID>  (1739) 
314481

>  <ref_mols>  (1739) 
A4706a,A0875a

>  <distance_score>  (1739) 
1.316786

>  <inspiration_score>  (1739) 
None

$$$$
COHVHEOCGNCZNE-UHFFFAOYSA-N-P439-P87-P439-601505
     RDKit          3D

 26 27  0  0  0  0  0  0  0  0999 V2000
   10.1976   15.4105   19.0499 C   0  0  0  0  0  0  0  0  0  0  0  0
    9.6539   15.8145   20.4048 C   0  0  0  0  0  0  0  0  0  0  0  0
    9.1384   17.2384   20.4808 C   0  0  0  0  0  0  0  0  0  0  0  0
   10.7141   15.6706   21.3363 O   0  0  0  0  0  0  0  0  0  0  0  0
   10.2643   15.6613   22.6834 C   0  0  0  0  0  0  0  0  0  0  0  0
    9.5514   14.3826   23.1026 C   0  0  2  0  0  0  0  0  0  0  0  0
    9.9507   13.2103   22.2527 C   0  0  0  0  0  0  0  0  0  0  0  0
   11.7035   13.1705   22.1785 Cl  0  0  0  0  0  0  0  0  0  0  0  0
    8.1414   14.6438   23.2836 O   0  0  0  0  0  0  0  0  0  0  0  0
    7.3170   13.5837   23.3445 C   0  0  0  0  0  0  0  0  0  0  0  0
    7.1412   12.8320   22.3939 O   0  0  0  0  0  0  0  0  0  0  0  0
    6.6282   13.3615   24.6782 C   0  0  0  0  0  0  0  0  0  0  0  0
    7.1290   12.0675   25.3454 C   0  0  0  0  0  0  0  0  0  0  0  0
    8.5780   12.1434   25.8560 C   0  0  0  0  0  0  0  0  0  0  0  0
    8.9749   13.5371   26.0777 N   0  0  0  0  0  0  0  0  0  0  0  0
   10.4713   14.0227   26.6778 S   0  0  0  0  0  0  0  0  0  0  0  0
   10.2542   14.2033   28.0908 O   0  0  0  0  0  0  0  0  0  0  0  0
   10.8931   15.1327   25.8550 O   0  0  0  0  0  0  0  0  0  0  0  0
   11.6379   12.7756   26.5372 N   0  0  0  0  0  0  0  0  0  0  0  0
   12.8409   13.0317   27.4340 C   0  0  0  0  0  0  0  0  0  0  0  0
   14.2141   12.7931   26.8019 C   0  0  0  0  0  0  0  0  0  0  0  0
   14.3053   11.4657   26.1352 C   0  0  0  0  0  0  0  0  0  0  0  0
   13.1236   11.3125   25.2159 C   0  0  0  0  0  0  0  0  0  0  0  0
   12.0817   12.4399   25.1874 C   0  0  0  0  0  0  0  0  0  0  0  0
    7.8650   14.3785   26.6387 C   0  0  0  0  0  0  0  0  0  0  0  0
    6.7350   14.5421   25.6356 C   0  0  0  0  0  0  0  0  0  0  0  0
  1  2  1  0
  2  3  1  0
  2  4  1  0
  4  5  1  0
  6  5  1  6
  6  7  1  0
  7  8  1  0
  6  9  1  0
  9 10  1  0
 10 11  2  0
 10 12  1  0
 12 13  1  0
 13 14  1  0
 14 15  1  0
 15 16  1  0
 16 17  2  0
 16 18  2  0
 16 19  1  0
 19 20  1  0
 20 21  1  0
 21 22  1  0
 22 23  1  0
 23 24  1  0
 15 25  1  0
 25 26  1  0
 26 12  1  0
 24 19  1  0
M  END
>  <energy_score>  (1740) 
-24.928914

>  <inchikey>  (1740) 
COHVHEOCGNCZNE-UHFFFAOYSA-N

>  <smiles>  (1740) 
CC(C)OCC(CCl)OC(=O)C1CCN(S(=O)(=O)N2CCCCC2)CC1

>  <ref_pdb>  (1740) 
A0875a

>  <alias>  (1740) 
COHVHEOCGNCZNE-UHFFFAOYSA-N-P439-P87-P439-601505

>  <HIPPO Pose ID>  (1740) 
507897

>  <name>  (1740) 
COHVHEOCGNCZNE-UHFFFAOYSA-N-P439-P87-P439-601505

>  <HIPPO Compound ID>  (1740) 
314484

>  <ref_mols>  (1740) 
A4706a,A0875a

>  <distance_score>  (1740) 
1.672353

>  <inspiration_score>  (1740) 
None

$$$$
DYQFGICUYIWWNQ-UHFFFAOYSA-N-P439-P87-P439-601505
     RDKit          3D

 26 28  0  0  0  0  0  0  0  0999 V2000
    8.4803   17.3978   21.2502 C   0  0  0  0  0  0  0  0  0  0  0  0
    8.3046   15.9332   21.6769 C   0  0  1  0  0  0  0  0  0  0  0  0
    9.5980   15.4174   22.3573 C   0  0  0  0  0  0  0  0  0  0  0  0
   10.7494   15.4694   21.5460 O   0  0  0  0  0  0  0  0  0  0  0  0
   10.6317   14.7271   20.3226 C   0  0  0  0  0  0  0  0  0  0  0  0
   11.9409   14.4795   19.6017 C   0  0  0  0  0  0  0  0  0  0  0  0
   11.3949   15.0371   18.3717 N   0  0  0  0  0  0  0  0  0  0  0  0
   10.2108   15.5118   19.0807 C   0  0  0  0  0  0  0  0  0  0  0  0
    7.1527   15.7879   22.5493 O   0  0  0  0  0  0  0  0  0  0  0  0
    6.7902   14.4928   22.7875 C   0  0  0  0  0  0  0  0  0  0  0  0
    6.2959   13.7336   21.9650 O   0  0  0  0  0  0  0  0  0  0  0  0
    7.1835   14.0875   24.1860 C   0  0  0  0  0  0  0  0  0  0  0  0
    7.5142   12.5950   24.3038 C   0  0  0  0  0  0  0  0  0  0  0  0
    7.8878   12.2048   25.7241 C   0  0  0  0  0  0  0  0  0  0  0  0
    8.3709   13.3688   26.4668 N   0  0  0  0  0  0  0  0  0  0  0  0
    9.9109   14.0398   26.2927 S   0  0  0  0  0  0  0  0  0  0  0  0
   10.1133   14.7704   27.5185 O   0  0  0  0  0  0  0  0  0  0  0  0
   10.0530   14.7253   25.0391 O   0  0  0  0  0  0  0  0  0  0  0  0
   11.0327   12.7953   26.2462 N   0  0  0  0  0  0  0  0  0  0  0  0
   12.3800   13.1726   26.8286 C   0  0  0  0  0  0  0  0  0  0  0  0
   13.5576   12.9346   25.8582 C   0  0  0  0  0  0  0  0  0  0  0  0
   13.6554   11.4973   25.3967 C   0  0  0  0  0  0  0  0  0  0  0  0
   12.2515   10.9708   25.3230 C   0  0  0  0  0  0  0  0  0  0  0  0
   11.1844   12.0107   24.9875 C   0  0  0  0  0  0  0  0  0  0  0  0
    7.2575   14.3862   26.6525 C   0  0  0  0  0  0  0  0  0  0  0  0
    6.3772   14.5327   25.3863 C   0  0  0  0  0  0  0  0  0  0  0  0
  2  1  1  1
  2  3  1  0
  3  4  1  0
  4  5  1  0
  5  6  1  0
  6  7  1  0
  7  8  1  0
  2  9  1  0
  9 10  1  0
 10 11  2  0
 10 12  1  0
 12 13  1  0
 13 14  1  0
 14 15  1  0
 15 16  1  0
 16 17  2  0
 16 18  2  0
 16 19  1  0
 19 20  1  0
 20 21  1  0
 21 22  1  0
 22 23  1  0
 23 24  1  0
 15 25  1  0
 25 26  1  0
  8  5  1  0
 26 12  1  0
 24 19  1  0
M  END
>  <energy_score>  (1741) 
-13.791741

>  <inchikey>  (1741) 
DYQFGICUYIWWNQ-UHFFFAOYSA-N

>  <smiles>  (1741) 
CC(COC1CNC1)OC(=O)C1CCN(S(=O)(=O)N2CCCCC2)CC1

>  <ref_pdb>  (1741) 
A0875a

>  <alias>  (1741) 
DYQFGICUYIWWNQ-UHFFFAOYSA-N-P439-P87-P439-601505

>  <HIPPO Pose ID>  (1741) 
507917

>  <name>  (1741) 
DYQFGICUYIWWNQ-UHFFFAOYSA-N-P439-P87-P439-601505

>  <HIPPO Compound ID>  (1741) 
314494

>  <ref_mols>  (1741) 
A4706a,A0875a

>  <distance_score>  (1741) 
1.637371

>  <inspiration_score>  (1741) 
None

$$$$
ISZNWYURAVGPGY-UHFFFAOYSA-N-P439-P87-P439-601505
     RDKit          3D

 26 27  0  0  0  0  0  0  0  0999 V2000
   10.8869   15.2419   19.0714 C   0  0  0  0  0  0  0  0  0  0  0  0
    9.8814   15.6825   20.1369 C   0  0  0  0  0  0  0  0  0  0  0  0
    9.5595   17.1732   20.2073 C   0  0  0  0  0  0  0  0  0  0  0  0
   10.3576   15.2270   21.5086 C   0  0  0  0  0  0  0  0  0  0  0  0
    9.9283   13.8976   21.7156 O   0  0  0  0  0  0  0  0  0  0  0  0
    8.7879   13.7956   22.5519 C   0  0  0  0  0  0  0  0  0  0  0  0
    7.4118   14.2830   22.0117 C   0  0  2  0  0  0  0  0  0  0  0  0
    7.0501   15.7163   22.4077 C   0  0  0  0  0  0  0  0  0  0  0  0
    6.3116   13.3805   22.3856 O   0  0  0  0  0  0  0  0  0  0  0  0
    5.6025   13.6248   23.5327 C   0  0  0  0  0  0  0  0  0  0  0  0
    4.4047   13.8605   23.5466 O   0  0  0  0  0  0  0  0  0  0  0  0
    6.4513   13.4835   24.7612 C   0  0  0  0  0  0  0  0  0  0  0  0
    6.7653   12.0380   25.0979 C   0  0  0  0  0  0  0  0  0  0  0  0
    7.9607   11.9790   26.0306 C   0  0  0  0  0  0  0  0  0  0  0  0
    8.0943   13.2188   26.8105 N   0  0  0  0  0  0  0  0  0  0  0  0
    9.3678   14.2958   26.6147 S   0  0  0  0  0  0  0  0  0  0  0  0
    9.2177   15.0514   25.3983 O   0  0  0  0  0  0  0  0  0  0  0  0
    9.4604   14.9973   27.8690 O   0  0  0  0  0  0  0  0  0  0  0  0
   10.7369   13.2779   26.4693 N   0  0  0  0  0  0  0  0  0  0  0  0
   11.1965   13.1224   25.0656 C   0  0  0  0  0  0  0  0  0  0  0  0
   12.3356   12.1319   25.0148 C   0  0  0  0  0  0  0  0  0  0  0  0
   13.5190   12.4800   25.8818 C   0  0  0  0  0  0  0  0  0  0  0  0
   13.0695   12.8508   27.2763 C   0  0  0  0  0  0  0  0  0  0  0  0
   11.8572   13.7840   27.3135 C   0  0  0  0  0  0  0  0  0  0  0  0
    6.7877   13.8134   27.2177 C   0  0  0  0  0  0  0  0  0  0  0  0
    5.9693   14.2316   25.9952 C   0  0  0  0  0  0  0  0  0  0  0  0
  1  2  1  0
  2  3  1  0
  2  4  1  0
  4  5  1  0
  5  6  1  0
  6  7  1  0
  7  8  1  1
  7  9  1  0
  9 10  1  0
 10 11  2  0
 10 12  1  0
 12 13  1  0
 13 14  1  0
 14 15  1  0
 15 16  1  0
 16 17  2  0
 16 18  2  0
 16 19  1  0
 19 20  1  0
 20 21  1  0
 21 22  1  0
 22 23  1  0
 23 24  1  0
 15 25  1  0
 25 26  1  0
 26 12  1  0
 24 19  1  0
M  END
>  <energy_score>  (1742) 
-37.553444

>  <inchikey>  (1742) 
ISZNWYURAVGPGY-UHFFFAOYSA-N

>  <smiles>  (1742) 
CC(C)COCC(C)OC(=O)C1CCN(S(=O)(=O)N2CCCCC2)CC1

>  <ref_pdb>  (1742) 
A0875a

>  <alias>  (1742) 
ISZNWYURAVGPGY-UHFFFAOYSA-N-P439-P87-P439-601505

>  <HIPPO Pose ID>  (1742) 
507923

>  <name>  (1742) 
ISZNWYURAVGPGY-UHFFFAOYSA-N-P439-P87-P439-601505

>  <HIPPO Compound ID>  (1742) 
314497

>  <ref_mols>  (1742) 
A4706a,A0875a

>  <distance_score>  (1742) 
1.894037

>  <inspiration_score>  (1742) 
None

$$$$
LNTDHWHTTIHEPR-UHFFFAOYSA-N-P439-P87-P439-601505
     RDKit          3D

 26 28  0  0  0  0  0  0  0  0999 V2000
    8.3767   18.2448   21.3770 N   0  0  0  0  0  0  0  0  0  0  0  0
    9.2427   17.2372   20.8335 C   0  0  0  0  0  0  0  0  0  0  0  0
    9.0932   15.7900   21.3999 C   0  0  1  0  0  0  0  0  0  0  0  0
    7.7501   15.6460   21.9987 O   0  0  0  0  0  0  0  0  0  0  0  0
    7.2078   14.4515   22.3431 C   0  0  0  0  0  0  0  0  0  0  0  0
    6.8271   13.5989   21.5540 O   0  0  0  0  0  0  0  0  0  0  0  0
    7.2136   14.2139   23.8305 C   0  0  0  0  0  0  0  0  0  0  0  0
    6.7645   12.8324   24.3248 C   0  0  0  0  0  0  0  0  0  0  0  0
    7.1162   12.6141   25.8059 C   0  0  0  0  0  0  0  0  0  0  0  0
    7.6482   13.8443   26.4090 N   0  0  0  0  0  0  0  0  0  0  0  0
    9.2487   14.3516   26.3963 S   0  0  0  0  0  0  0  0  0  0  0  0
    9.4293   15.3308   25.3540 O   0  0  0  0  0  0  0  0  0  0  0  0
    9.5574   14.7234   27.7538 O   0  0  0  0  0  0  0  0  0  0  0  0
   10.2928   13.1085   26.0064 N   0  0  0  0  0  0  0  0  0  0  0  0
   10.1476   12.3258   24.7755 C   0  0  0  0  0  0  0  0  0  0  0  0
   10.8907   11.0386   25.0568 C   0  0  0  0  0  0  0  0  0  0  0  0
   12.3601   11.3559   25.4564 C   0  0  0  0  0  0  0  0  0  0  0  0
   12.6947   12.8198   25.2814 C   0  0  0  0  0  0  0  0  0  0  0  0
   11.7122   13.6166   26.1371 C   0  0  0  0  0  0  0  0  0  0  0  0
    6.6816   14.9680   26.2007 C   0  0  0  0  0  0  0  0  0  0  0  0
    6.5502   15.2827   24.6975 C   0  0  0  0  0  0  0  0  0  0  0  0
    9.3422   14.8170   20.2503 C   0  0  0  0  0  0  0  0  0  0  0  0
   10.7419   14.9035   19.6769 C   0  0  0  0  0  0  0  0  0  0  0  0
   11.7480   14.7224   20.7914 C   0  0  0  0  0  0  0  0  0  0  0  0
   11.5254   15.6108   21.8787 O   0  0  0  0  0  0  0  0  0  0  0  0
   10.2098   15.4921   22.4209 C   0  0  0  0  0  0  0  0  0  0  0  0
  1  2  1  0
  3  2  1  6
  3  4  1  0
  4  5  1  0
  5  6  2  0
  5  7  1  0
  7  8  1  0
  8  9  1  0
  9 10  1  0
 10 11  1  0
 11 12  2  0
 11 13  2  0
 11 14  1  0
 14 15  1  0
 15 16  1  0
 16 17  1  0
 17 18  1  0
 18 19  1  0
 10 20  1  0
 20 21  1  0
  3 22  1  0
 22 23  1  0
 23 24  1  0
 24 25  1  0
 25 26  1  0
 26  3  1  0
 21  7  1  0
 19 14  1  0
M  END
>  <energy_score>  (1743) 
-17.94826

>  <inchikey>  (1743) 
LNTDHWHTTIHEPR-UHFFFAOYSA-N

>  <smiles>  (1743) 
NCC1(OC(=O)C2CCN(S(=O)(=O)N3CCCCC3)CC2)CCCOC1

>  <ref_pdb>  (1743) 
A0875a

>  <alias>  (1743) 
LNTDHWHTTIHEPR-UHFFFAOYSA-N-P439-P87-P439-601505

>  <HIPPO Pose ID>  (1743) 
507927

>  <name>  (1743) 
LNTDHWHTTIHEPR-UHFFFAOYSA-N-P439-P87-P439-601505

>  <HIPPO Compound ID>  (1743) 
314499

>  <ref_mols>  (1743) 
A4706a,A0875a

>  <distance_score>  (1743) 
1.697773

>  <inspiration_score>  (1743) 
None

$$$$
BNNDXNVOYQFXIK-UHFFFAOYSA-N-P439-P87-P439-601505
     RDKit          3D

 26 28  0  0  0  0  0  0  0  0999 V2000
    6.7326   13.8214   22.0239 O   0  0  0  0  0  0  0  0  0  0  0  0
    7.0032   14.5120   23.0019 C   0  0  0  0  0  0  0  0  0  0  0  0
    8.0685   15.3518   23.0943 O   0  0  0  0  0  0  0  0  0  0  0  0
    9.1123   15.5413   22.0735 C   0  0  2  0  0  0  0  0  0  0  0  0
    9.0202   14.7272   20.7943 C   0  0  0  0  0  0  0  0  0  0  0  0
    9.9833   15.1841   19.8452 O   0  0  0  0  0  0  0  0  0  0  0  0
   11.3115   14.9243   20.2810 C   0  0  0  0  0  0  0  0  0  0  0  0
   11.5983   15.6516   21.5714 C   0  0  0  0  0  0  0  0  0  0  0  0
   10.5523   15.3008   22.5945 C   0  0  0  0  0  0  0  0  0  0  0  0
   10.8262   16.0253   23.7049 F   0  0  0  0  0  0  0  0  0  0  0  0
   10.7626   14.0026   22.9352 F   0  0  0  0  0  0  0  0  0  0  0  0
    6.1400   14.4665   24.2963 C   0  0  0  0  0  0  0  0  0  0  0  0
    5.7844   13.0157   24.7002 C   0  0  0  0  0  0  0  0  0  0  0  0
    6.7552   12.2557   25.6222 C   0  0  0  0  0  0  0  0  0  0  0  0
    7.7916   13.1523   26.1871 N   0  0  0  0  0  0  0  0  0  0  0  0
    9.1295   13.3972   25.1882 S   0  0  0  0  0  0  0  0  0  0  0  0
    9.5551   14.7568   25.3981 O   0  0  0  0  0  0  0  0  0  0  0  0
    8.7495   12.8725   23.9005 O   0  0  0  0  0  0  0  0  0  0  0  0
   10.2985   12.3522   25.8063 N   0  0  0  0  0  0  0  0  0  0  0  0
   11.5868   13.0281   26.1263 C   0  0  0  0  0  0  0  0  0  0  0  0
   12.6834   12.5967   25.1801 C   0  0  0  0  0  0  0  0  0  0  0  0
   12.9285   11.1237   25.4192 C   0  0  0  0  0  0  0  0  0  0  0  0
   11.6297   10.2820   25.2753 C   0  0  0  0  0  0  0  0  0  0  0  0
   10.3898   11.1041   24.9829 C   0  0  0  0  0  0  0  0  0  0  0  0
    7.1520   14.4032   26.6776 C   0  0  0  0  0  0  0  0  0  0  0  0
    6.6176   15.2621   25.5224 C   0  0  0  0  0  0  0  0  0  0  0  0
  1  2  2  0
  2  3  1  0
  4  3  1  1
  4  5  1  0
  5  6  1  0
  6  7  1  0
  7  8  1  0
  8  9  1  0
  9 10  1  0
  9 11  1  0
  2 12  1  0
 12 13  1  0
 13 14  1  0
 14 15  1  0
 15 16  1  0
 16 17  2  0
 16 18  2  0
 16 19  1  0
 19 20  1  0
 20 21  1  0
 21 22  1  0
 22 23  1  0
 23 24  1  0
 15 25  1  0
 25 26  1  0
  9  4  1  0
 26 12  1  0
 24 19  1  0
M  END
>  <energy_score>  (1744) 
-10.01512

>  <inchikey>  (1744) 
BNNDXNVOYQFXIK-UHFFFAOYSA-N

>  <smiles>  (1744) 
O=C(OC1COCCC1(F)F)C1CCN(S(=O)(=O)N2CCCCC2)CC1

>  <ref_pdb>  (1744) 
A0875a

>  <alias>  (1744) 
BNNDXNVOYQFXIK-UHFFFAOYSA-N-P439-P87-P439-601505

>  <HIPPO Pose ID>  (1744) 
507929

>  <name>  (1744) 
BNNDXNVOYQFXIK-UHFFFAOYSA-N-P439-P87-P439-601505

>  <HIPPO Compound ID>  (1744) 
314500

>  <ref_mols>  (1744) 
A4706a,A0875a

>  <distance_score>  (1744) 
1.575084

>  <inspiration_score>  (1744) 
None

$$$$
KWEJVZWSGIRBBJ-UHFFFAOYSA-N-P439-P87-P439-601505
     RDKit          3D

 26 27  0  0  0  0  0  0  0  0999 V2000
   19.2992   10.1090   29.0693 C   0  0  0  0  0  0  0  0  0  0  0  0
   18.4626   10.7540   27.9744 C   0  0  0  0  0  0  0  0  0  0  0  0
   17.0990   10.2256   28.0277 N   0  0  0  0  0  0  0  0  0  0  0  0
   16.2077   10.8317   27.0402 C   0  0  0  0  0  0  0  0  0  0  0  0
   15.7907   12.2887   27.2613 C   0  0  2  0  0  0  0  0  0  0  0  0
   15.3967   12.5543   28.7277 C   0  0  0  0  0  0  0  0  0  0  0  0
   14.8856   13.8872   28.8459 O   0  0  0  0  0  0  0  0  0  0  0  0
   14.2969   14.0849   30.1286 C   0  0  0  0  0  0  0  0  0  0  0  0
   14.7746   12.6427   26.2559 O   0  0  0  0  0  0  0  0  0  0  0  0
   13.5090   12.1993   26.4399 C   0  0  0  0  0  0  0  0  0  0  0  0
   13.1087   11.6774   27.4689 O   0  0  0  0  0  0  0  0  0  0  0  0
   12.6397   12.3078   25.1972 C   0  0  0  0  0  0  0  0  0  0  0  0
   12.3786   13.7118   24.7184 C   0  0  0  0  0  0  0  0  0  0  0  0
   11.3260   13.7683   23.6143 C   0  0  0  0  0  0  0  0  0  0  0  0
   10.0433   13.1941   24.0936 N   0  0  0  0  0  0  0  0  0  0  0  0
    9.0945   14.2882   24.9197 S   0  0  0  0  0  0  0  0  0  0  0  0
    8.5498   15.1796   23.9281 O   0  0  0  0  0  0  0  0  0  0  0  0
    9.8740   14.8089   26.0199 O   0  0  0  0  0  0  0  0  0  0  0  0
    7.8362   13.4635   25.6288 N   0  0  0  0  0  0  0  0  0  0  0  0
    6.9896   12.5341   24.8725 C   0  0  0  0  0  0  0  0  0  0  0  0
    6.4732   11.5603   25.9354 C   0  0  0  0  0  0  0  0  0  0  0  0
    5.5504   12.2950   26.9077 C   0  0  0  0  0  0  0  0  0  0  0  0
    6.2383   13.5195   27.5074 C   0  0  0  0  0  0  0  0  0  0  0  0
    6.9644   14.3570   26.4581 C   0  0  0  0  0  0  0  0  0  0  0  0
   10.1868   11.8033   24.4795 C   0  0  0  0  0  0  0  0  0  0  0  0
   11.3055   11.6210   25.4669 C   0  0  0  0  0  0  0  0  0  0  0  0
  1  2  1  0
  2  3  1  0
  3  4  1  0
  5  4  1  1
  5  6  1  0
  6  7  1  0
  7  8  1  0
  5  9  1  0
  9 10  1  0
 10 11  2  0
 10 12  1  0
 12 13  1  0
 13 14  1  0
 14 15  1  0
 15 16  1  0
 16 17  2  0
 16 18  2  0
 16 19  1  0
 19 20  1  0
 20 21  1  0
 21 22  1  0
 22 23  1  0
 23 24  1  0
 15 25  1  0
 25 26  1  0
 26 12  1  0
 24 19  1  0
M  END
>  <energy_score>  (1745) 
-64.323595

>  <inchikey>  (1745) 
KWEJVZWSGIRBBJ-UHFFFAOYSA-N

>  <smiles>  (1745) 
CCNCC(COC)OC(=O)C1CCN(S(=O)(=O)N2CCCCC2)CC1

>  <ref_pdb>  (1745) 
A0875a

>  <alias>  (1745) 
KWEJVZWSGIRBBJ-UHFFFAOYSA-N-P439-P87-P439-601505

>  <HIPPO Pose ID>  (1745) 
507931

>  <name>  (1745) 
KWEJVZWSGIRBBJ-UHFFFAOYSA-N-P439-P87-P439-601505

>  <HIPPO Compound ID>  (1745) 
314501

>  <ref_mols>  (1745) 
A4706a,A0875a

>  <distance_score>  (1745) 
1.770775

>  <inspiration_score>  (1745) 
None

$$$$
XSAQLKKKEAYCQI-UHFFFAOYSA-N-P439-P87-P439-601505
     RDKit          3D

 26 29  0  0  0  0  0  0  0  0999 V2000
    6.9869   12.9691   22.0993 O   0  0  0  0  0  0  0  0  0  0  0  0
    7.2572   13.5364   23.1520 C   0  0  0  0  0  0  0  0  0  0  0  0
    8.3534   14.3036   23.3490 O   0  0  0  0  0  0  0  0  0  0  0  0
    9.3878   14.2678   22.3535 C   0  0  2  0  0  0  0  0  0  0  0  0
   10.5621   15.1881   22.7084 C   0  0  0  0  0  0  0  0  0  0  0  0
   11.0620   15.7150   21.4792 O   0  0  0  0  0  0  0  0  0  0  0  0
   10.2412   15.2358   20.3884 C   0  0  0  0  0  0  0  0  0  0  0  0
   11.0197   14.3914   19.3497 C   0  0  0  0  0  0  0  0  0  0  0  0
   11.1430   15.5811   18.5082 N   0  0  0  0  0  0  0  0  0  0  0  0
    9.9549   16.1176   19.1832 C   0  0  0  0  0  0  0  0  0  0  0  0
    8.9369   14.8421   21.0393 C   0  0  0  0  0  0  0  0  0  0  0  0
    6.3909   13.3094   24.3816 C   0  0  0  0  0  0  0  0  0  0  0  0
    6.9092   12.0813   25.1625 C   0  0  0  0  0  0  0  0  0  0  0  0
    7.8569   12.4624   26.3024 C   0  0  0  0  0  0  0  0  0  0  0  0
    8.4966   13.7139   25.9043 N   0  0  0  0  0  0  0  0  0  0  0  0
   10.0090   14.1673   26.4006 S   0  0  0  0  0  0  0  0  0  0  0  0
    9.9040   14.4172   27.8154 O   0  0  0  0  0  0  0  0  0  0  0  0
   10.4824   15.1922   25.5067 O   0  0  0  0  0  0  0  0  0  0  0  0
   11.0375   12.8688   26.2269 N   0  0  0  0  0  0  0  0  0  0  0  0
   11.0925   12.0740   24.9853 C   0  0  0  0  0  0  0  0  0  0  0  0
   12.1260   10.9863   25.2877 C   0  0  0  0  0  0  0  0  0  0  0  0
   13.5569   11.4644   25.3321 C   0  0  0  0  0  0  0  0  0  0  0  0
   13.5387   12.8977   25.8242 C   0  0  0  0  0  0  0  0  0  0  0  0
   12.3975   13.1389   26.8258 C   0  0  0  0  0  0  0  0  0  0  0  0
    7.5281   14.8535   26.0261 C   0  0  0  0  0  0  0  0  0  0  0  0
    6.2501   14.5407   25.2629 C   0  0  0  0  0  0  0  0  0  0  0  0
  1  2  2  0
  2  3  1  0
  4  3  1  1
  4  5  1  0
  5  6  1  0
  6  7  1  0
  7  8  1  0
  8  9  1  0
  9 10  1  0
  7 11  1  0
  2 12  1  0
 12 13  1  0
 13 14  1  0
 14 15  1  0
 15 16  1  0
 16 17  2  0
 16 18  2  0
 16 19  1  0
 19 20  1  0
 20 21  1  0
 21 22  1  0
 22 23  1  0
 23 24  1  0
 15 25  1  0
 25 26  1  0
 11  4  1  0
 26 12  1  0
 10  7  1  0
 24 19  1  0
M  END
>  <energy_score>  (1746) 
-35.782255

>  <inchikey>  (1746) 
XSAQLKKKEAYCQI-UHFFFAOYSA-N

>  <smiles>  (1746) 
O=C(OC1COC2(CNC2)C1)C1CCN(S(=O)(=O)N2CCCCC2)CC1

>  <ref_pdb>  (1746) 
A0875a

>  <alias>  (1746) 
XSAQLKKKEAYCQI-UHFFFAOYSA-N-P439-P87-P439-601505

>  <HIPPO Pose ID>  (1746) 
507937

>  <name>  (1746) 
XSAQLKKKEAYCQI-UHFFFAOYSA-N-P439-P87-P439-601505

>  <HIPPO Compound ID>  (1746) 
314504

>  <ref_mols>  (1746) 
A4706a,A0875a

>  <distance_score>  (1746) 
1.207372

>  <inspiration_score>  (1746) 
None

$$$$
NOCRQZYFRGWJJD-UHFFFAOYSA-N-P439-P87-P439-601505
     RDKit          3D

 26 29  0  0  0  0  0  0  0  0999 V2000
    6.8131   13.2635   21.9715 O   0  0  0  0  0  0  0  0  0  0  0  0
    7.2472   13.9475   22.8963 C   0  0  0  0  0  0  0  0  0  0  0  0
    8.0898   14.9983   22.7507 O   0  0  0  0  0  0  0  0  0  0  0  0
    8.6893   15.1531   21.4483 C   0  0  1  0  0  0  0  0  0  0  0  0
    9.3496   16.5219   21.3062 C   0  0  0  0  0  0  0  0  0  0  0  0
   10.7851   16.4685   21.8481 C   0  0  0  0  0  0  0  0  0  0  0  0
   11.5985   15.2932   21.3288 C   0  0  2  0  0  0  0  0  0  0  0  0
   11.4491   14.9411   19.8577 C   0  0  0  0  0  0  0  0  0  0  0  0
   10.1603   14.3422   19.7640 O   0  0  0  0  0  0  0  0  0  0  0  0
    9.7717   14.1017   21.1236 C   0  0  1  0  0  0  0  0  0  0  0  0
   10.9599   14.1760   21.9248 O   0  0  0  0  0  0  0  0  0  0  0  0
    6.9347   13.5694   24.3409 C   0  0  0  0  0  0  0  0  0  0  0  0
    7.7147   12.2557   24.5937 C   0  0  0  0  0  0  0  0  0  0  0  0
    8.3672   12.0814   25.9474 C   0  0  0  0  0  0  0  0  0  0  0  0
    8.8553   13.3582   26.4924 N   0  0  0  0  0  0  0  0  0  0  0  0
   10.2006   14.1058   25.7837 S   0  0  0  0  0  0  0  0  0  0  0  0
   10.4920   15.2672   26.5853 O   0  0  0  0  0  0  0  0  0  0  0  0
    9.9390   14.2328   24.3810 O   0  0  0  0  0  0  0  0  0  0  0  0
   11.4176   12.9755   25.9793 N   0  0  0  0  0  0  0  0  0  0  0  0
   11.8265   12.1864   24.8016 C   0  0  0  0  0  0  0  0  0  0  0  0
   12.7133   11.0504   25.3354 C   0  0  0  0  0  0  0  0  0  0  0  0
   14.0120   11.5070   25.9493 C   0  0  0  0  0  0  0  0  0  0  0  0
   13.8634   12.9175   26.4196 C   0  0  0  0  0  0  0  0  0  0  0  0
   12.4694   13.1913   26.9880 C   0  0  0  0  0  0  0  0  0  0  0  0
    7.6906   14.2661   26.6959 C   0  0  0  0  0  0  0  0  0  0  0  0
    7.1119   14.7071   25.3596 C   0  0  0  0  0  0  0  0  0  0  0  0
  1  2  2  0
  2  3  1  0
  4  3  1  1
  4  5  1  0
  5  6  1  0
  7  6  1  6
  7  8  1  0
  8  9  1  0
 10  9  1  6
 10 11  1  0
  2 12  1  0
 12 13  1  0
 13 14  1  0
 14 15  1  0
 15 16  1  0
 16 17  2  0
 16 18  2  0
 16 19  1  0
 19 20  1  0
 20 21  1  0
 21 22  1  0
 22 23  1  0
 23 24  1  0
 15 25  1  0
 25 26  1  0
 10  4  1  0
 26 12  1  0
 11  7  1  0
 24 19  1  0
M  END
>  <energy_score>  (1747) 
-61.092588

>  <inchikey>  (1747) 
NOCRQZYFRGWJJD-UHFFFAOYSA-N

>  <smiles>  (1747) 
O=C(OC1CCC2COC1O2)C1CCN(S(=O)(=O)N2CCCCC2)CC1

>  <ref_pdb>  (1747) 
A0875a

>  <alias>  (1747) 
NOCRQZYFRGWJJD-UHFFFAOYSA-N-P439-P87-P439-601505

>  <HIPPO Pose ID>  (1747) 
507947

>  <name>  (1747) 
NOCRQZYFRGWJJD-UHFFFAOYSA-N-P439-P87-P439-601505

>  <HIPPO Compound ID>  (1747) 
314509

>  <ref_mols>  (1747) 
A4706a,A0875a

>  <distance_score>  (1747) 
1.446918

>  <inspiration_score>  (1747) 
None

$$$$
BJEPSUXOJQRQJB-UHFFFAOYSA-N-P439-P87-P439-601505
     RDKit          3D

 26 28  0  0  0  0  0  0  0  0999 V2000
   10.7827   14.9635   19.0434 C   0  0  0  0  0  0  0  0  0  0  0  0
    9.5720   15.3894   19.7533 N   0  0  0  0  0  0  0  0  0  0  0  0
    9.6374   16.8054   20.0859 C   0  0  0  0  0  0  0  0  0  0  0  0
    9.2635   14.5135   20.9188 C   0  0  1  0  0  0  0  0  0  0  0  0
   10.2577   14.7076   22.0576 C   0  0  0  0  0  0  0  0  0  0  0  0
    9.6289   15.5505   23.0210 O   0  0  0  0  0  0  0  0  0  0  0  0
    8.2628   15.7842   22.6152 C   0  0  0  0  0  0  0  0  0  0  0  0
    7.8806   14.7474   21.5927 C   0  0  2  0  0  0  0  0  0  0  0  0
    7.2693   13.5756   22.2125 O   0  0  0  0  0  0  0  0  0  0  0  0
    6.1200   13.8499   22.9533 C   0  0  0  0  0  0  0  0  0  0  0  0
    5.0990   14.3316   22.4992 O   0  0  0  0  0  0  0  0  0  0  0  0
    6.3964   13.5493   24.4148 C   0  0  0  0  0  0  0  0  0  0  0  0
    6.6419   12.0910   24.8006 C   0  0  0  0  0  0  0  0  0  0  0  0
    7.3701   11.9316   26.1370 C   0  0  0  0  0  0  0  0  0  0  0  0
    8.0244   13.2045   26.5176 N   0  0  0  0  0  0  0  0  0  0  0  0
    9.3305   13.6939   25.5179 S   0  0  0  0  0  0  0  0  0  0  0  0
    9.1235   13.1142   24.2151 O   0  0  0  0  0  0  0  0  0  0  0  0
    9.5038   15.1086   25.7331 O   0  0  0  0  0  0  0  0  0  0  0  0
   10.6824   12.8759   26.0895 N   0  0  0  0  0  0  0  0  0  0  0  0
   11.9035   13.7336   26.0503 C   0  0  0  0  0  0  0  0  0  0  0  0
   12.8002   13.3423   24.8772 C   0  0  0  0  0  0  0  0  0  0  0  0
   13.4114   11.9903   25.1545 C   0  0  0  0  0  0  0  0  0  0  0  0
   12.3270   11.1157   25.6824 C   0  0  0  0  0  0  0  0  0  0  0  0
   10.9123   11.5794   25.3668 C   0  0  0  0  0  0  0  0  0  0  0  0
    6.9345   14.2651   26.7390 C   0  0  0  0  0  0  0  0  0  0  0  0
    5.8507   14.2938   25.6130 C   0  0  0  0  0  0  0  0  0  0  0  0
  1  2  1  0
  2  3  1  0
  4  2  1  6
  4  5  1  0
  5  6  1  0
  6  7  1  0
  7  8  1  0
  8  9  1  1
  9 10  1  0
 10 11  2  0
 10 12  1  0
 12 13  1  0
 13 14  1  0
 14 15  1  0
 15 16  1  0
 16 17  2  0
 16 18  2  0
 16 19  1  0
 19 20  1  0
 20 21  1  0
 21 22  1  0
 22 23  1  0
 23 24  1  0
 15 25  1  0
 25 26  1  0
  8  4  1  0
 26 12  1  0
 24 19  1  0
M  END
>  <energy_score>  (1748) 
-10.963534

>  <inchikey>  (1748) 
BJEPSUXOJQRQJB-UHFFFAOYSA-N

>  <smiles>  (1748) 
CN(C)C1COCC1OC(=O)C1CCN(S(=O)(=O)N2CCCCC2)CC1

>  <ref_pdb>  (1748) 
A0875a

>  <alias>  (1748) 
BJEPSUXOJQRQJB-UHFFFAOYSA-N-P439-P87-P439-601505

>  <HIPPO Pose ID>  (1748) 
507953

>  <name>  (1748) 
BJEPSUXOJQRQJB-UHFFFAOYSA-N-P439-P87-P439-601505

>  <HIPPO Compound ID>  (1748) 
314512

>  <ref_mols>  (1748) 
A4706a,A0875a

>  <distance_score>  (1748) 
1.390029

>  <inspiration_score>  (1748) 
None

$$$$
RKUXKVVIOLKVTN-UHFFFAOYSA-N-P87-P87-P439-601505
     RDKit          3D

 26 27  0  0  0  0  0  0  0  0999 V2000
   17.4134    7.5854   22.5611 C   0  0  0  0  0  0  0  0  0  0  0  0
   17.3761    7.9224   24.0254 O   0  0  0  0  0  0  0  0  0  0  0  0
   16.3574    8.6466   24.6648 C   0  0  0  0  0  0  0  0  0  0  0  0
   16.4929    9.6200   25.8496 C   0  0  2  0  0  0  0  0  0  0  0  0
   17.1795    9.0596   27.1076 C   0  0  0  0  0  0  0  0  0  0  0  0
   18.6059    9.4262   27.2530 N   0  0  0  0  0  0  0  0  0  0  0  0
   19.2562    8.5410   28.2264 C   0  0  0  0  0  0  0  0  0  0  0  0
   18.7642   10.8166   27.6971 C   0  0  0  0  0  0  0  0  0  0  0  0
   15.0983   10.1071   26.0718 O   0  0  0  0  0  0  0  0  0  0  0  0
   14.5829   10.8769   25.0545 C   0  0  0  0  0  0  0  0  0  0  0  0
   15.2320   11.3079   24.1086 O   0  0  0  0  0  0  0  0  0  0  0  0
   13.1085   11.2233   25.2225 C   0  0  0  0  0  0  0  0  0  0  0  0
   12.9419   12.5204   24.4602 C   0  0  0  0  0  0  0  0  0  0  0  0
   11.6802   13.1638   24.9008 C   0  0  0  0  0  0  0  0  0  0  0  0
   10.4823   12.2895   24.7144 N   0  0  0  0  0  0  0  0  0  0  0  0
    9.2933   13.2775   24.0099 S   0  0  0  0  0  0  0  0  0  0  0  0
    9.4347   13.2794   22.5830 O   0  0  0  0  0  0  0  0  0  0  0  0
    9.4316   14.4934   24.7555 O   0  0  0  0  0  0  0  0  0  0  0  0
    7.7895   12.6254   24.4450 N   0  0  0  0  0  0  0  0  0  0  0  0
    7.7469   12.2201   25.8521 C   0  0  0  0  0  0  0  0  0  0  0  0
    6.3580   11.9197   26.3544 C   0  0  0  0  0  0  0  0  0  0  0  0
    5.5003   13.1550   26.2995 C   0  0  0  0  0  0  0  0  0  0  0  0
    5.4956   13.7996   24.9265 C   0  0  0  0  0  0  0  0  0  0  0  0
    6.6890   13.5692   23.9898 C   0  0  0  0  0  0  0  0  0  0  0  0
   10.7433   10.9830   24.0709 C   0  0  0  0  0  0  0  0  0  0  0  0
   11.9432   10.2551   24.7634 C   0  0  0  0  0  0  0  0  0  0  0  0
  1  2  1  0
  2  3  1  0
  4  3  1  6
  4  5  1  0
  5  6  1  0
  6  7  1  0
  6  8  1  0
  4  9  1  0
  9 10  1  0
 10 11  2  0
 10 12  1  0
 12 13  1  0
 13 14  1  0
 14 15  1  0
 15 16  1  0
 16 17  2  0
 16 18  2  0
 16 19  1  0
 19 20  1  0
 20 21  1  0
 21 22  1  0
 22 23  1  0
 23 24  1  0
 15 25  1  0
 25 26  1  0
 26 12  1  0
 24 19  1  0
M  END
>  <energy_score>  (1749) 
-0.221383

>  <inchikey>  (1749) 
RKUXKVVIOLKVTN-UHFFFAOYSA-N

>  <smiles>  (1749) 
COCC(CN(C)C)OC(=O)C1CCN(S(=O)(=O)N2CCCCC2)CC1

>  <ref_pdb>  (1749) 
A0875a

>  <alias>  (1749) 
RKUXKVVIOLKVTN-UHFFFAOYSA-N-P87-P87-P439-601505

>  <HIPPO Pose ID>  (1749) 
507956

>  <name>  (1749) 
RKUXKVVIOLKVTN-UHFFFAOYSA-N-P87-P87-P439-601505

>  <HIPPO Compound ID>  (1749) 
314514

>  <ref_mols>  (1749) 
A4706a,A0875a

>  <distance_score>  (1749) 
1.187086

>  <inspiration_score>  (1749) 
None

$$$$
XRZDFAPXFVNCRK-UHFFFAOYSA-N-P87-P87-P439-601505
     RDKit          3D

 26 27  0  0  0  0  0  0  0  0999 V2000
   18.1101   15.1117   27.7771 C   0  0  0  0  0  0  0  0  0  0  0  0
   17.0649   14.1411   27.7041 O   0  0  0  0  0  0  0  0  0  0  0  0
   17.4536   12.9263   27.2167 C   0  0  0  0  0  0  0  0  0  0  0  0
   18.5802   12.6676   26.8139 O   0  0  0  0  0  0  0  0  0  0  0  0
   16.2990   11.9280   27.3238 C   0  0  1  0  0  0  0  0  0  0  0  0
   15.6136   11.7063   26.0620 O   0  0  0  0  0  0  0  0  0  0  0  0
   14.2959   11.4036   26.2035 C   0  0  0  0  0  0  0  0  0  0  0  0
   13.7378   11.3785   27.2835 O   0  0  0  0  0  0  0  0  0  0  0  0
   13.5663   11.0998   24.8967 C   0  0  0  0  0  0  0  0  0  0  0  0
   13.2037   12.4565   24.3470 C   0  0  0  0  0  0  0  0  0  0  0  0
   12.0416   13.0034   25.1247 C   0  0  0  0  0  0  0  0  0  0  0  0
   10.7915   12.1942   24.9926 N   0  0  0  0  0  0  0  0  0  0  0  0
    9.5733   13.2832   24.5770 S   0  0  0  0  0  0  0  0  0  0  0  0
    9.8213   13.7744   23.2467 O   0  0  0  0  0  0  0  0  0  0  0  0
    9.6499   14.1360   25.7354 O   0  0  0  0  0  0  0  0  0  0  0  0
    8.0569   12.5248   24.6286 N   0  0  0  0  0  0  0  0  0  0  0  0
    7.8208   11.9185   25.9334 C   0  0  0  0  0  0  0  0  0  0  0  0
    6.3884   11.6634   26.2985 C   0  0  0  0  0  0  0  0  0  0  0  0
    5.6344   12.9638   26.3263 C   0  0  0  0  0  0  0  0  0  0  0  0
    5.7047   13.6545   24.9826 C   0  0  0  0  0  0  0  0  0  0  0  0
    6.9576   13.4380   24.1131 C   0  0  0  0  0  0  0  0  0  0  0  0
   10.9465   10.9089   24.3280 C   0  0  0  0  0  0  0  0  0  0  0  0
   12.2524   10.1910   24.8279 C   0  0  0  0  0  0  0  0  0  0  0  0
   16.7742   10.5797   27.9436 C   0  0  1  0  0  0  0  0  0  0  0  0
   17.5261    9.6770   26.9617 C   0  0  0  0  0  0  0  0  0  0  0  0
   17.5507   10.7285   29.1828 N   0  0  0  0  0  0  0  0  0  0  0  0
  1  2  1  0
  2  3  1  0
  3  4  2  0
  3  5  1  0
  5  6  1  6
  6  7  1  0
  7  8  2  0
  7  9  1  0
  9 10  1  0
 10 11  1  0
 11 12  1  0
 12 13  1  0
 13 14  2  0
 13 15  2  0
 13 16  1  0
 16 17  1  0
 17 18  1  0
 18 19  1  0
 19 20  1  0
 20 21  1  0
 12 22  1  0
 22 23  1  0
  5 24  1  0
 24 25  1  6
 24 26  1  0
 23  9  1  0
 21 16  1  0
M  END
>  <energy_score>  (1750) 
-17.37653

>  <inchikey>  (1750) 
XRZDFAPXFVNCRK-UHFFFAOYSA-N

>  <smiles>  (1750) 
COC(=O)C(OC(=O)C1CCN(S(=O)(=O)N2CCCCC2)CC1)C(C)N

>  <ref_pdb>  (1750) 
A0875a

>  <alias>  (1750) 
XRZDFAPXFVNCRK-UHFFFAOYSA-N-P87-P87-P439-601505

>  <HIPPO Pose ID>  (1750) 
507970

>  <name>  (1750) 
XRZDFAPXFVNCRK-UHFFFAOYSA-N-P87-P87-P439-601505

>  <HIPPO Compound ID>  (1750) 
314521

>  <ref_mols>  (1750) 
A4706a,A0875a

>  <distance_score>  (1750) 
1.458259

>  <inspiration_score>  (1750) 
None

$$$$
NAAPUSVQHDNDDM-UHFFFAOYSA-N-P439-P87-P439-601505
     RDKit          3D

 26 27  0  0  0  0  0  0  0  0999 V2000
   10.0664   15.3664   18.7036 C   0  0  0  0  0  0  0  0  0  0  0  0
    9.6064   15.3626   20.1316 C   0  0  0  0  0  0  0  0  0  0  0  0
    9.3264   16.7391   20.6964 C   0  0  0  0  0  0  0  0  0  0  0  0
   10.6688   14.7303   20.8104 O   0  0  0  0  0  0  0  0  0  0  0  0
   10.1957   13.7301   21.6962 C   0  0  0  0  0  0  0  0  0  0  0  0
    9.9105   14.2952   23.0564 C   0  0  1  0  0  0  0  0  0  0  0  0
   10.9189   15.4115   23.3322 C   0  0  0  0  0  0  0  0  0  0  0  0
   12.2702   15.0935   22.8381 N   0  0  0  0  0  0  0  0  0  0  0  0
    8.5304   14.6918   23.2411 O   0  0  0  0  0  0  0  0  0  0  0  0
    7.6546   13.6498   23.3168 C   0  0  0  0  0  0  0  0  0  0  0  0
    7.9255   12.4974   22.9843 O   0  0  0  0  0  0  0  0  0  0  0  0
    6.2855   13.9566   23.9129 C   0  0  0  0  0  0  0  0  0  0  0  0
    6.0150   12.9081   25.0304 C   0  0  0  0  0  0  0  0  0  0  0  0
    6.8753   13.1452   26.2849 C   0  0  0  0  0  0  0  0  0  0  0  0
    7.7183   14.3175   26.0057 N   0  0  0  0  0  0  0  0  0  0  0  0
    9.2012   14.5633   26.6881 S   0  0  0  0  0  0  0  0  0  0  0  0
    9.6587   15.8661   26.2795 O   0  0  0  0  0  0  0  0  0  0  0  0
    9.1138   14.2502   28.0853 O   0  0  0  0  0  0  0  0  0  0  0  0
   10.2666   13.4875   25.9652 N   0  0  0  0  0  0  0  0  0  0  0  0
   11.6562   13.7263   26.4315 C   0  0  0  0  0  0  0  0  0  0  0  0
   12.6650   13.0512   25.5206 C   0  0  0  0  0  0  0  0  0  0  0  0
   12.4117   11.5793   25.5507 C   0  0  0  0  0  0  0  0  0  0  0  0
   10.9804   11.2796   25.1065 C   0  0  0  0  0  0  0  0  0  0  0  0
    9.9023   12.0788   25.8200 C   0  0  0  0  0  0  0  0  0  0  0  0
    6.8659   15.5154   25.8227 C   0  0  0  0  0  0  0  0  0  0  0  0
    6.1484   15.3683   24.4835 C   0  0  0  0  0  0  0  0  0  0  0  0
  1  2  1  0
  2  3  1  0
  2  4  1  0
  4  5  1  0
  6  5  1  6
  6  7  1  0
  7  8  1  0
  6  9  1  0
  9 10  1  0
 10 11  2  0
 10 12  1  0
 12 13  1  0
 13 14  1  0
 14 15  1  0
 15 16  1  0
 16 17  2  0
 16 18  2  0
 16 19  1  0
 19 20  1  0
 20 21  1  0
 21 22  1  0
 22 23  1  0
 23 24  1  0
 15 25  1  0
 25 26  1  0
 26 12  1  0
 24 19  1  0
M  END
>  <energy_score>  (1751) 
-30.356859

>  <inchikey>  (1751) 
NAAPUSVQHDNDDM-UHFFFAOYSA-N

>  <smiles>  (1751) 
CC(C)OCC(CN)OC(=O)C1CCN(S(=O)(=O)N2CCCCC2)CC1

>  <ref_pdb>  (1751) 
A0875a

>  <alias>  (1751) 
NAAPUSVQHDNDDM-UHFFFAOYSA-N-P439-P87-P439-601505

>  <HIPPO Pose ID>  (1751) 
507973

>  <name>  (1751) 
NAAPUSVQHDNDDM-UHFFFAOYSA-N-P439-P87-P439-601505

>  <HIPPO Compound ID>  (1751) 
314522

>  <ref_mols>  (1751) 
A4706a,A0875a

>  <distance_score>  (1751) 
1.736996

>  <inspiration_score>  (1751) 
None

$$$$
MWVHJUCPNJLLSN-UHFFFAOYSA-N-P439-P87-P439-601505
     RDKit          3D

 26 28  0  0  0  0  0  0  0  0999 V2000
   11.2682   15.4795   21.9653 C   0  0  0  0  0  0  0  0  0  0  0  0
    9.8390   15.7292   21.5116 C   0  0  0  0  0  0  0  0  0  0  0  0
    9.5504   17.1932   21.1174 C   0  0  0  0  0  0  0  0  0  0  0  0
    9.5591   15.0126   20.2383 C   0  0  0  0  0  0  0  0  0  0  0  0
   10.2839   14.9626   19.2609 O   0  0  0  0  0  0  0  0  0  0  0  0
    8.2725   14.5586   20.2832 O   0  0  0  0  0  0  0  0  0  0  0  0
    7.6229   14.9932   21.4730 C   0  0  0  0  0  0  0  0  0  0  0  0
    8.7588   15.1225   22.4325 C   0  0  1  0  0  0  0  0  0  0  0  0
    9.1228   13.8118   22.9150 O   0  0  0  0  0  0  0  0  0  0  0  0
    8.2927   12.8484   23.3532 C   0  0  0  0  0  0  0  0  0  0  0  0
    8.6566   11.6786   23.2095 O   0  0  0  0  0  0  0  0  0  0  0  0
    6.9441   13.1108   24.0640 C   0  0  0  0  0  0  0  0  0  0  0  0
    6.8971   12.0993   25.2482 C   0  0  0  0  0  0  0  0  0  0  0  0
    7.9716   12.4561   26.2943 C   0  0  0  0  0  0  0  0  0  0  0  0
    8.5783   13.7248   25.8627 N   0  0  0  0  0  0  0  0  0  0  0  0
   10.0987   14.2402   26.2319 S   0  0  0  0  0  0  0  0  0  0  0  0
   10.0222   14.6754   27.6036 O   0  0  0  0  0  0  0  0  0  0  0  0
   10.4995   15.1632   25.1955 O   0  0  0  0  0  0  0  0  0  0  0  0
   11.1310   12.9337   26.1901 N   0  0  0  0  0  0  0  0  0  0  0  0
   12.4571   13.1869   26.8524 C   0  0  0  0  0  0  0  0  0  0  0  0
   13.6467   12.9298   25.9056 C   0  0  0  0  0  0  0  0  0  0  0  0
   13.6988   11.4944   25.4301 C   0  0  0  0  0  0  0  0  0  0  0  0
   12.2773   11.0180   25.3372 C   0  0  0  0  0  0  0  0  0  0  0  0
   11.2414   12.0863   24.9793 C   0  0  0  0  0  0  0  0  0  0  0  0
    7.5607   14.7999   25.8313 C   0  0  0  0  0  0  0  0  0  0  0  0
    6.6297   14.4829   24.6725 C   0  0  0  0  0  0  0  0  0  0  0  0
  1  2  1  0
  2  3  1  0
  2  4  1  0
  4  5  2  0
  4  6  1  0
  6  7  1  0
  7  8  1  0
  8  9  1  6
  9 10  1  0
 10 11  2  0
 10 12  1  0
 12 13  1  0
 13 14  1  0
 14 15  1  0
 15 16  1  0
 16 17  2  0
 16 18  2  0
 16 19  1  0
 19 20  1  0
 20 21  1  0
 21 22  1  0
 22 23  1  0
 23 24  1  0
 15 25  1  0
 25 26  1  0
  8  2  1  0
 26 12  1  0
 24 19  1  0
M  END
>  <energy_score>  (1752) 
-23.01329

>  <inchikey>  (1752) 
MWVHJUCPNJLLSN-UHFFFAOYSA-N

>  <smiles>  (1752) 
CC1(C)C(=O)OCC1OC(=O)C1CCN(S(=O)(=O)N2CCCCC2)CC1

>  <ref_pdb>  (1752) 
A0875a

>  <alias>  (1752) 
MWVHJUCPNJLLSN-UHFFFAOYSA-N-P439-P87-P439-601505

>  <HIPPO Pose ID>  (1752) 
507977

>  <name>  (1752) 
MWVHJUCPNJLLSN-UHFFFAOYSA-N-P439-P87-P439-601505

>  <HIPPO Compound ID>  (1752) 
314524

>  <ref_mols>  (1752) 
A4706a,A0875a

>  <distance_score>  (1752) 
1.482202

>  <inspiration_score>  (1752) 
None

$$$$
ZQBLLMBVGNIGMX-UHFFFAOYSA-N-P439-P87-P439-601505
     RDKit          3D

 26 29  0  0  0  0  0  0  0  0999 V2000
   10.3194   14.5582   18.6574 N   0  0  0  0  0  0  0  0  0  0  0  0
   10.6337   15.3893   19.7988 C   0  0  2  0  0  0  0  0  0  0  0  0
   11.7373   14.7613   20.6546 C   0  0  0  0  0  0  0  0  0  0  0  0
   11.1176   14.7924   22.0391 C   0  0  2  0  0  0  0  0  0  0  0  0
    9.9190   13.8560   22.1191 C   0  0  0  0  0  0  0  0  0  0  0  0
    8.7975   14.6396   21.4360 C   0  0  1  0  0  0  0  0  0  0  0  0
    7.7971   15.0733   22.4113 O   0  0  0  0  0  0  0  0  0  0  0  0
    6.9953   14.0825   22.8730 C   0  0  0  0  0  0  0  0  0  0  0  0
    7.0074   12.9443   22.4018 O   0  0  0  0  0  0  0  0  0  0  0  0
    6.0161   14.4487   23.9997 C   0  0  0  0  0  0  0  0  0  0  0  0
    5.7396   13.1820   24.8339 C   0  0  0  0  0  0  0  0  0  0  0  0
    6.9810   12.7736   25.6234 C   0  0  0  0  0  0  0  0  0  0  0  0
    7.5733   13.8901   26.4013 N   0  0  0  0  0  0  0  0  0  0  0  0
    9.1823   14.3751   26.2235 S   0  0  0  0  0  0  0  0  0  0  0  0
    9.3618   14.8653   24.8832 O   0  0  0  0  0  0  0  0  0  0  0  0
    9.4708   15.2514   27.3318 O   0  0  0  0  0  0  0  0  0  0  0  0
   10.2175   13.0281   26.4152 N   0  0  0  0  0  0  0  0  0  0  0  0
    9.9515   11.9308   25.4790 C   0  0  0  0  0  0  0  0  0  0  0  0
   11.0776   10.9995   25.1540 C   0  0  0  0  0  0  0  0  0  0  0  0
   12.4606   11.6479   25.1648 C   0  0  0  0  0  0  0  0  0  0  0  0
   12.6787   12.4949   26.3869 C   0  0  0  0  0  0  0  0  0  0  0  0
   11.6180   13.5663   26.4237 C   0  0  0  0  0  0  0  0  0  0  0  0
    6.6707   15.0867   26.4022 C   0  0  0  0  0  0  0  0  0  0  0  0
    6.4096   15.5722   24.9649 C   0  0  0  0  0  0  0  0  0  0  0  0
    9.5969   15.8122   20.8748 C   0  0  1  0  0  0  0  0  0  0  0  0
   10.4918   16.0809   21.9969 O   0  0  0  0  0  0  0  0  0  0  0  0
  2  1  1  6
  2  3  1  0
  4  3  1  6
  4  5  1  0
  5  6  1  0
  6  7  1  1
  7  8  1  0
  8  9  2  0
  8 10  1  0
 10 11  1  0
 11 12  1  0
 12 13  1  0
 13 14  1  0
 14 15  2  0
 14 16  2  0
 14 17  1  0
 17 18  1  0
 18 19  1  0
 19 20  1  0
 20 21  1  0
 21 22  1  0
 13 23  1  0
 23 24  1  0
  6 25  1  0
 25 26  1  1
 25  2  1  0
 26  4  1  0
 24 10  1  0
 22 17  1  0
M  END
>  <energy_score>  (1753) 
-26.336628

>  <inchikey>  (1753) 
ZQBLLMBVGNIGMX-UHFFFAOYSA-N

>  <smiles>  (1753) 
NC1CC2CC(OC(=O)C3CCN(S(=O)(=O)N4CCCCC4)CC3)C1O2

>  <ref_pdb>  (1753) 
A0875a

>  <alias>  (1753) 
ZQBLLMBVGNIGMX-UHFFFAOYSA-N-P439-P87-P439-601505

>  <HIPPO Pose ID>  (1753) 
507983

>  <name>  (1753) 
ZQBLLMBVGNIGMX-UHFFFAOYSA-N-P439-P87-P439-601505

>  <HIPPO Compound ID>  (1753) 
314527

>  <ref_mols>  (1753) 
A4706a,A0875a

>  <distance_score>  (1753) 
1.568869

>  <inspiration_score>  (1753) 
None

$$$$
VETCPAIOKUQKNK-UHFFFAOYSA-N-P439-P87-P439-601505
     RDKit          3D

 26 28  0  0  0  0  0  0  0  0999 V2000
    9.7438   11.4628   22.7150 C   0  0  0  0  0  0  0  0  0  0  0  0
    9.7606   12.6408   22.4696 C   0  0  0  0  0  0  0  0  0  0  0  0
    9.6107   14.0879   22.1769 C   0  0  2  0  0  0  0  0  0  0  0  0
    8.5367   14.5821   23.0470 O   0  0  0  0  0  0  0  0  0  0  0  0
    7.3488   13.9221   23.0509 C   0  0  0  0  0  0  0  0  0  0  0  0
    6.9517   13.1916   22.1424 O   0  0  0  0  0  0  0  0  0  0  0  0
    6.5262   14.0350   24.3352 C   0  0  0  0  0  0  0  0  0  0  0  0
    6.5389   12.6518   25.0139 C   0  0  0  0  0  0  0  0  0  0  0  0
    7.9049   12.3703   25.6320 C   0  0  0  0  0  0  0  0  0  0  0  0
    8.3835   13.4612   26.4892 N   0  0  0  0  0  0  0  0  0  0  0  0
    9.9334   14.1152   26.3654 S   0  0  0  0  0  0  0  0  0  0  0  0
   10.1108   14.8434   27.5972 O   0  0  0  0  0  0  0  0  0  0  0  0
   10.0393   14.8101   25.1161 O   0  0  0  0  0  0  0  0  0  0  0  0
   11.0741   12.8730   26.3813 N   0  0  0  0  0  0  0  0  0  0  0  0
   12.4338   13.2845   26.8929 C   0  0  0  0  0  0  0  0  0  0  0  0
   13.5794   13.0311   25.8664 C   0  0  0  0  0  0  0  0  0  0  0  0
   13.7140   11.5899   25.4340 C   0  0  0  0  0  0  0  0  0  0  0  0
   12.3390   11.0229   25.4933 C   0  0  0  0  0  0  0  0  0  0  0  0
   11.1944   11.9754   25.2232 C   0  0  0  0  0  0  0  0  0  0  0  0
    7.3519   14.5287   26.6929 C   0  0  0  0  0  0  0  0  0  0  0  0
    6.9086   15.1156   25.3482 C   0  0  0  0  0  0  0  0  0  0  0  0
    9.2987   14.3915   20.6940 C   0  0  0  0  0  0  0  0  0  0  0  0
    9.9067   15.6861   20.1683 C   0  0  0  0  0  0  0  0  0  0  0  0
    9.9728   16.6325   21.3303 C   0  0  0  0  0  0  0  0  0  0  0  0
   10.9857   16.1848   22.2302 O   0  0  0  0  0  0  0  0  0  0  0  0
   10.9816   14.7744   22.4408 C   0  0  0  0  0  0  0  0  0  0  0  0
  1  2  3  0
  3  2  1  6
  3  4  1  0
  4  5  1  0
  5  6  2  0
  5  7  1  0
  7  8  1  0
  8  9  1  0
  9 10  1  0
 10 11  1  0
 11 12  2  0
 11 13  2  0
 11 14  1  0
 14 15  1  0
 15 16  1  0
 16 17  1  0
 17 18  1  0
 18 19  1  0
 10 20  1  0
 20 21  1  0
  3 22  1  0
 22 23  1  0
 23 24  1  0
 24 25  1  0
 25 26  1  0
 26  3  1  0
 21  7  1  0
 19 14  1  0
M  END
>  <energy_score>  (1754) 
-18.378414

>  <inchikey>  (1754) 
VETCPAIOKUQKNK-UHFFFAOYSA-N

>  <smiles>  (1754) 
C#CC1(OC(=O)C2CCN(S(=O)(=O)N3CCCCC3)CC2)CCCOC1

>  <ref_pdb>  (1754) 
A0875a

>  <alias>  (1754) 
VETCPAIOKUQKNK-UHFFFAOYSA-N-P439-P87-P439-601505

>  <HIPPO Pose ID>  (1754) 
507985

>  <name>  (1754) 
VETCPAIOKUQKNK-UHFFFAOYSA-N-P439-P87-P439-601505

>  <HIPPO Compound ID>  (1754) 
314528

>  <ref_mols>  (1754) 
A4706a,A0875a

>  <distance_score>  (1754) 
1.4752

>  <inspiration_score>  (1754) 
None

$$$$
IOUUCSULFNHZSK-UHFFFAOYSA-N-P439-P87-P439-601505
     RDKit          3D

 26 29  0  0  0  0  0  0  0  0999 V2000
    6.5109   13.2669   22.3634 O   0  0  0  0  0  0  0  0  0  0  0  0
    6.6853   14.0943   23.2539 C   0  0  0  0  0  0  0  0  0  0  0  0
    7.5300   15.1570   23.1900 O   0  0  0  0  0  0  0  0  0  0  0  0
    8.4285   15.4574   22.0800 C   0  0  2  0  0  0  0  0  0  0  0  0
    8.3691   14.5863   20.8401 C   0  0  0  0  0  0  0  0  0  0  0  0
    9.1001   15.1210   19.7346 O   0  0  0  0  0  0  0  0  0  0  0  0
   10.2068   15.9306   20.0795 C   0  0  0  0  0  0  0  0  0  0  0  0
   10.8367   15.4089   21.3251 C   0  0  0  0  0  0  0  0  0  0  0  0
   12.3029   15.5020   21.6338 C   0  0  0  0  0  0  0  0  0  0  0  0
   11.7451   14.2289   21.0910 C   0  0  0  0  0  0  0  0  0  0  0  0
    9.9079   15.3748   22.5042 C   0  0  0  0  0  0  0  0  0  0  0  0
    5.9540   13.9883   24.6160 C   0  0  0  0  0  0  0  0  0  0  0  0
    5.9722   12.5375   25.1524 C   0  0  0  0  0  0  0  0  0  0  0  0
    7.1119   12.1153   26.0869 C   0  0  0  0  0  0  0  0  0  0  0  0
    7.9854   13.2557   26.4289 N   0  0  0  0  0  0  0  0  0  0  0  0
    9.1785   13.6084   25.3036 S   0  0  0  0  0  0  0  0  0  0  0  0
    9.3870   15.0363   25.3309 O   0  0  0  0  0  0  0  0  0  0  0  0
    8.8392   12.8815   24.1062 O   0  0  0  0  0  0  0  0  0  0  0  0
   10.5543   12.8737   25.9203 N   0  0  0  0  0  0  0  0  0  0  0  0
   11.7556   13.7535   25.9406 C   0  0  0  0  0  0  0  0  0  0  0  0
   12.6968   13.3636   24.8072 C   0  0  0  0  0  0  0  0  0  0  0  0
   13.3277   12.0304   25.1252 C   0  0  0  0  0  0  0  0  0  0  0  0
   12.2548   11.1352   25.6523 C   0  0  0  0  0  0  0  0  0  0  0  0
   10.8296   11.5475   25.2964 C   0  0  0  0  0  0  0  0  0  0  0  0
    7.1588   14.4085   26.8650 C   0  0  0  0  0  0  0  0  0  0  0  0
    6.3441   14.9966   25.7094 C   0  0  0  0  0  0  0  0  0  0  0  0
  1  2  2  0
  2  3  1  0
  4  3  1  1
  4  5  1  0
  5  6  1  0
  6  7  1  0
  7  8  1  0
  8  9  1  0
  9 10  1  0
  8 11  1  0
  2 12  1  0
 12 13  1  0
 13 14  1  0
 14 15  1  0
 15 16  1  0
 16 17  2  0
 16 18  2  0
 16 19  1  0
 19 20  1  0
 20 21  1  0
 21 22  1  0
 22 23  1  0
 23 24  1  0
 15 25  1  0
 25 26  1  0
 11  4  1  0
 26 12  1  0
 10  8  1  0
 24 19  1  0
M  END
>  <energy_score>  (1755) 
-25.05307

>  <inchikey>  (1755) 
IOUUCSULFNHZSK-UHFFFAOYSA-N

>  <smiles>  (1755) 
O=C(OC1COCC2(CC2)C1)C1CCN(S(=O)(=O)N2CCCCC2)CC1

>  <ref_pdb>  (1755) 
A0875a

>  <alias>  (1755) 
IOUUCSULFNHZSK-UHFFFAOYSA-N-P439-P87-P439-601505

>  <HIPPO Pose ID>  (1755) 
507989

>  <name>  (1755) 
IOUUCSULFNHZSK-UHFFFAOYSA-N-P439-P87-P439-601505

>  <HIPPO Compound ID>  (1755) 
314530

>  <ref_mols>  (1755) 
A4706a,A0875a

>  <distance_score>  (1755) 
1.573358

>  <inspiration_score>  (1755) 
None

$$$$
FVXORDUWFDIMJQ-UHFFFAOYSA-N-P439-P87-P439-601505
     RDKit          3D

 26 28  0  0  0  0  0  0  0  0999 V2000
   12.0460   14.5130   19.2998 C   0  0  0  0  0  0  0  0  0  0  0  0
   10.6590   14.4316   18.9172 N   0  0  0  0  0  0  0  0  0  0  0  0
    9.9335   15.6467   19.2609 C   0  0  0  0  0  0  0  0  0  0  0  0
    9.5423   15.8652   20.7365 C   0  0  2  0  0  0  0  0  0  0  0  0
   10.7359   16.1839   21.4824 O   0  0  0  0  0  0  0  0  0  0  0  0
   10.8583   15.2582   22.5528 C   0  0  0  0  0  0  0  0  0  0  0  0
   10.0156   14.0608   22.1897 C   0  0  0  0  0  0  0  0  0  0  0  0
    8.8763   14.6515   21.3832 C   0  0  1  0  0  0  0  0  0  0  0  0
    7.8069   15.0484   22.2720 O   0  0  0  0  0  0  0  0  0  0  0  0
    6.9805   14.0303   22.6568 C   0  0  0  0  0  0  0  0  0  0  0  0
    6.4241   13.2329   21.9177 O   0  0  0  0  0  0  0  0  0  0  0  0
    6.9341   13.9614   24.1515 C   0  0  0  0  0  0  0  0  0  0  0  0
    6.4962   12.6639   24.8123 C   0  0  0  0  0  0  0  0  0  0  0  0
    6.9551   12.6426   26.2778 C   0  0  0  0  0  0  0  0  0  0  0  0
    7.5618   13.9250   26.7109 N   0  0  0  0  0  0  0  0  0  0  0  0
    9.1723   14.4310   26.5595 S   0  0  0  0  0  0  0  0  0  0  0  0
    9.3825   15.0774   25.2883 O   0  0  0  0  0  0  0  0  0  0  0  0
    9.4528   15.1676   27.7654 O   0  0  0  0  0  0  0  0  0  0  0  0
   10.2154   13.1175   26.5537 N   0  0  0  0  0  0  0  0  0  0  0  0
   11.6342   13.5685   26.7261 C   0  0  0  0  0  0  0  0  0  0  0  0
   12.5640   13.1702   25.6012 C   0  0  0  0  0  0  0  0  0  0  0  0
   12.4610   11.6969   25.4159 C   0  0  0  0  0  0  0  0  0  0  0  0
   11.0710   11.3964   24.9078 C   0  0  0  0  0  0  0  0  0  0  0  0
    9.9258   12.0017   25.6560 C   0  0  0  0  0  0  0  0  0  0  0  0
    6.5998   15.0398   26.4156 C   0  0  0  0  0  0  0  0  0  0  0  0
    6.3892   15.1729   24.8962 C   0  0  0  0  0  0  0  0  0  0  0  0
  1  2  1  0
  2  3  1  0
  4  3  1  6
  4  5  1  0
  5  6  1  0
  6  7  1  0
  7  8  1  0
  8  9  1  1
  9 10  1  0
 10 11  2  0
 10 12  1  0
 12 13  1  0
 13 14  1  0
 14 15  1  0
 15 16  1  0
 16 17  2  0
 16 18  2  0
 16 19  1  0
 19 20  1  0
 20 21  1  0
 21 22  1  0
 22 23  1  0
 23 24  1  0
 15 25  1  0
 25 26  1  0
  8  4  1  0
 26 12  1  0
 24 19  1  0
M  END
>  <energy_score>  (1756) 
-24.975859

>  <inchikey>  (1756) 
FVXORDUWFDIMJQ-UHFFFAOYSA-N

>  <smiles>  (1756) 
CNCC1OCCC1OC(=O)C1CCN(S(=O)(=O)N2CCCCC2)CC1

>  <ref_pdb>  (1756) 
A0875a

>  <alias>  (1756) 
FVXORDUWFDIMJQ-UHFFFAOYSA-N-P439-P87-P439-601505

>  <HIPPO Pose ID>  (1756) 
507995

>  <name>  (1756) 
FVXORDUWFDIMJQ-UHFFFAOYSA-N-P439-P87-P439-601505

>  <HIPPO Compound ID>  (1756) 
314533

>  <ref_mols>  (1756) 
A4706a,A0875a

>  <distance_score>  (1756) 
1.354799

>  <inspiration_score>  (1756) 
None

$$$$
WMSQCHGVFDBAHU-UHFFFAOYSA-N-P87-P87-P439-601505
     RDKit          3D

 26 28  0  0  0  0  0  0  0  0999 V2000
   18.6787   10.6454   27.7764 C   0  0  0  0  0  0  0  0  0  0  0  0
   17.2296   10.1397   27.7176 C   0  0  0  0  0  0  0  0  0  0  0  0
   16.8875    9.5392   29.0975 C   0  0  0  0  0  0  0  0  0  0  0  0
   17.1743    9.0466   26.7374 N   0  0  0  0  0  0  0  0  0  0  0  0
   16.2056   11.2634   27.3527 C   0  0  0  0  0  0  0  0  0  0  0  0
   14.9518   10.7091   26.7951 O   0  0  0  0  0  0  0  0  0  0  0  0
   14.8285   10.7008   25.4365 C   0  0  0  0  0  0  0  0  0  0  0  0
   15.7422   10.4786   24.6595 O   0  0  0  0  0  0  0  0  0  0  0  0
   13.4148   11.1163   24.9933 C   0  0  0  0  0  0  0  0  0  0  0  0
   13.0533   12.2800   25.8629 C   0  0  0  0  0  0  0  0  0  0  0  0
   11.8909   13.0236   25.3114 C   0  0  0  0  0  0  0  0  0  0  0  0
   10.6734   12.1640   25.1288 N   0  0  0  0  0  0  0  0  0  0  0  0
    9.4408   13.2787   24.7927 S   0  0  0  0  0  0  0  0  0  0  0  0
    9.8252   14.0195   23.6164 O   0  0  0  0  0  0  0  0  0  0  0  0
    9.3308   13.9075   26.0827 O   0  0  0  0  0  0  0  0  0  0  0  0
    7.9674   12.5338   24.4986 N   0  0  0  0  0  0  0  0  0  0  0  0
    7.4534   11.6037   25.4997 C   0  0  0  0  0  0  0  0  0  0  0  0
    6.7301   12.2750   26.6467 C   0  0  0  0  0  0  0  0  0  0  0  0
    5.6150   13.2066   26.2546 C   0  0  0  0  0  0  0  0  0  0  0  0
    5.6844   13.7574   24.8443 C   0  0  0  0  0  0  0  0  0  0  0  0
    6.9224   13.4970   23.9734 C   0  0  0  0  0  0  0  0  0  0  0  0
   10.9237   11.0160   24.2457 C   0  0  0  0  0  0  0  0  0  0  0  0
   12.1614   10.1910   24.7771 C   0  0  0  0  0  0  0  0  0  0  0  0
   16.6933   12.6085   26.7027 C   0  0  0  0  0  0  0  0  0  0  0  0
   15.8984   13.3710   27.6537 O   0  0  0  0  0  0  0  0  0  0  0  0
   15.9033   12.2330   28.5476 C   0  0  0  0  0  0  0  0  0  0  0  0
  1  2  1  0
  2  3  1  0
  2  4  1  0
  2  5  1  0
  5  6  1  0
  6  7  1  0
  7  8  2  0
  7  9  1  0
  9 10  1  0
 10 11  1  0
 11 12  1  0
 12 13  1  0
 13 14  2  0
 13 15  2  0
 13 16  1  0
 16 17  1  0
 17 18  1  0
 18 19  1  0
 19 20  1  0
 20 21  1  0
 12 22  1  0
 22 23  1  0
  5 24  1  0
 24 25  1  0
 25 26  1  0
 26  5  1  0
 23  9  1  0
 21 16  1  0
M  END
>  <energy_score>  (1757) 
-39.181814

>  <inchikey>  (1757) 
WMSQCHGVFDBAHU-UHFFFAOYSA-N

>  <smiles>  (1757) 
CC(C)(N)C1(OC(=O)C2CCN(S(=O)(=O)N3CCCCC3)CC2)COC1

>  <ref_pdb>  (1757) 
A0875a

>  <alias>  (1757) 
WMSQCHGVFDBAHU-UHFFFAOYSA-N-P87-P87-P439-601505

>  <HIPPO Pose ID>  (1757) 
508008

>  <name>  (1757) 
WMSQCHGVFDBAHU-UHFFFAOYSA-N-P87-P87-P439-601505

>  <HIPPO Compound ID>  (1757) 
314540

>  <ref_mols>  (1757) 
A4706a,A0875a

>  <distance_score>  (1757) 
1.100904

>  <inspiration_score>  (1757) 
None

$$$$
GRQPEDLCRWQJHL-UHFFFAOYSA-N-P439-P87-P439-601505
     RDKit          3D

 26 29  0  0  0  0  0  0  0  0999 V2000
    7.4920   13.2601   22.2082 O   0  0  0  0  0  0  0  0  0  0  0  0
    7.5721   14.2301   22.9602 C   0  0  0  0  0  0  0  0  0  0  0  0
    8.4603   15.2455   22.8282 O   0  0  0  0  0  0  0  0  0  0  0  0
    9.2371   15.5148   21.6196 C   0  0  2  0  0  0  0  0  0  0  0  0
    8.8302   14.7728   20.3809 C   0  0  0  0  0  0  0  0  0  0  0  0
    9.8353   15.2681   19.3522 C   0  0  0  0  0  0  0  0  0  0  0  0
   11.0424   15.2974   20.1036 O   0  0  0  0  0  0  0  0  0  0  0  0
   10.7203   15.1417   21.5223 C   0  0  0  0  0  0  0  0  0  0  0  0
   11.7635   15.7242   22.4461 C   0  0  0  0  0  0  0  0  0  0  0  0
   11.7583   14.4915   23.2403 N   0  0  0  0  0  0  0  0  0  0  0  0
   11.1605   13.7825   22.1015 C   0  0  0  0  0  0  0  0  0  0  0  0
    6.5579   14.3691   24.1145 C   0  0  0  0  0  0  0  0  0  0  0  0
    6.2303   12.9595   24.6454 C   0  0  0  0  0  0  0  0  0  0  0  0
    7.4495   12.3618   25.3458 C   0  0  0  0  0  0  0  0  0  0  0  0
    8.0341   13.2934   26.3423 N   0  0  0  0  0  0  0  0  0  0  0  0
    9.6229   13.8230   26.1791 S   0  0  0  0  0  0  0  0  0  0  0  0
    9.8939   14.6158   27.3536 O   0  0  0  0  0  0  0  0  0  0  0  0
    9.7673   14.4223   24.8820 O   0  0  0  0  0  0  0  0  0  0  0  0
   10.6624   12.5006   26.2398 N   0  0  0  0  0  0  0  0  0  0  0  0
   12.0484   12.9259   26.6328 C   0  0  0  0  0  0  0  0  0  0  0  0
   13.1049   12.5617   25.6284 C   0  0  0  0  0  0  0  0  0  0  0  0
   13.1300   11.0786   25.3654 C   0  0  0  0  0  0  0  0  0  0  0  0
   11.7106   10.4545   25.2786 C   0  0  0  0  0  0  0  0  0  0  0  0
   10.6006   11.4933   25.1507 C   0  0  0  0  0  0  0  0  0  0  0  0
    7.1217   14.4579   26.6066 C   0  0  0  0  0  0  0  0  0  0  0  0
    6.8978   15.2620   25.3140 C   0  0  0  0  0  0  0  0  0  0  0  0
  1  2  2  0
  2  3  1  0
  4  3  1  1
  4  5  1  0
  5  6  1  0
  6  7  1  0
  7  8  1  0
  8  9  1  0
  9 10  1  0
 10 11  1  0
  2 12  1  0
 12 13  1  0
 13 14  1  0
 14 15  1  0
 15 16  1  0
 16 17  2  0
 16 18  2  0
 16 19  1  0
 19 20  1  0
 20 21  1  0
 21 22  1  0
 22 23  1  0
 23 24  1  0
 15 25  1  0
 25 26  1  0
  8  4  1  0
 26 12  1  0
 11  8  1  0
 24 19  1  0
M  END
>  <energy_score>  (1758) 
-14.016313

>  <inchikey>  (1758) 
GRQPEDLCRWQJHL-UHFFFAOYSA-N

>  <smiles>  (1758) 
O=C(OC1CCOC12CNC2)C1CCN(S(=O)(=O)N2CCCCC2)CC1

>  <ref_pdb>  (1758) 
A0875a

>  <alias>  (1758) 
GRQPEDLCRWQJHL-UHFFFAOYSA-N-P439-P87-P439-601505

>  <HIPPO Pose ID>  (1758) 
508015

>  <name>  (1758) 
GRQPEDLCRWQJHL-UHFFFAOYSA-N-P439-P87-P439-601505

>  <HIPPO Compound ID>  (1758) 
314543

>  <ref_mols>  (1758) 
A4706a,A0875a

>  <distance_score>  (1758) 
1.253674

>  <inspiration_score>  (1758) 
None

$$$$
JUUPQQIOBVNYKH-UHFFFAOYSA-N-P439-P87-P439-601505
     RDKit          3D

 27 29  0  0  0  0  0  0  0  0999 V2000
    9.6622   15.3653   18.9451 C   0  0  0  0  0  0  0  0  0  0  0  0
    9.5724   14.4042   19.9934 O   0  0  0  0  0  0  0  0  0  0  0  0
    8.4785   14.5291   20.9104 C   0  0  0  0  0  0  0  0  0  0  0  0
    8.4857   15.7675   21.8285 C   0  0  1  0  0  0  0  0  0  0  0  0
    7.7265   15.5764   23.0829 O   0  0  0  0  0  0  0  0  0  0  0  0
    6.5446   14.9111   23.0565 C   0  0  0  0  0  0  0  0  0  0  0  0
    5.9867   14.5415   22.0253 O   0  0  0  0  0  0  0  0  0  0  0  0
    5.9074   14.5834   24.4266 C   0  0  0  0  0  0  0  0  0  0  0  0
    5.6879   13.0603   24.6014 C   0  0  0  0  0  0  0  0  0  0  0  0
    6.7088   12.2344   25.4032 C   0  0  0  0  0  0  0  0  0  0  0  0
    7.5592   13.0682   26.2865 N   0  0  0  0  0  0  0  0  0  0  0  0
    9.0099   13.5739   25.5882 S   0  0  0  0  0  0  0  0  0  0  0  0
    8.7997   13.5032   24.1649 O   0  0  0  0  0  0  0  0  0  0  0  0
    9.3812   14.7821   26.2887 O   0  0  0  0  0  0  0  0  0  0  0  0
   10.1914   12.4229   25.9545 N   0  0  0  0  0  0  0  0  0  0  0  0
   11.5350   13.0816   26.1111 C   0  0  0  0  0  0  0  0  0  0  0  0
   12.5530   12.5657   25.1181 C   0  0  0  0  0  0  0  0  0  0  0  0
   12.7292   11.1034   25.4152 C   0  0  0  0  0  0  0  0  0  0  0  0
   11.3923   10.3309   25.2458 C   0  0  0  0  0  0  0  0  0  0  0  0
   10.1735   11.2289   25.0561 C   0  0  0  0  0  0  0  0  0  0  0  0
    6.7577   14.2219   26.8107 C   0  0  0  0  0  0  0  0  0  0  0  0
    6.4531   15.2371   25.6966 C   0  0  0  0  0  0  0  0  0  0  0  0
    9.9599   15.9617   22.0998 C   0  0  0  0  0  0  0  0  0  0  0  0
   10.8229   16.3094   21.1654 N   0  0  0  0  0  0  0  0  0  0  0  0
   11.9993   15.6361   21.3653 C   0  0  0  0  0  0  0  0  0  0  0  0
   12.1253   15.1186   22.6176 C   0  0  0  0  0  0  0  0  0  0  0  0
   10.7301   15.4055   23.4932 S   0  0  0  0  0  0  0  0  0  0  0  0
  1  2  1  0
  2  3  1  0
  4  3  1  6
  4  5  1  0
  5  6  1  0
  6  7  2  0
  6  8  1  0
  8  9  1  0
  9 10  1  0
 10 11  1  0
 11 12  1  0
 12 13  2  0
 12 14  2  0
 12 15  1  0
 15 16  1  0
 16 17  1  0
 17 18  1  0
 18 19  1  0
 19 20  1  0
 11 21  1  0
 21 22  1  0
  4 23  1  0
 23 24  2  0
 24 25  1  0
 25 26  2  0
 26 27  1  0
 22  8  1  0
 27 23  1  0
 20 15  1  0
M  END
>  <energy_score>  (1759) 
-31.620168

>  <inchikey>  (1759) 
JUUPQQIOBVNYKH-UHFFFAOYSA-N

>  <smiles>  (1759) 
COCC(OC(=O)C1CCN(S(=O)(=O)N2CCCCC2)CC1)c1nccs1

>  <ref_pdb>  (1759) 
A0875a

>  <alias>  (1759) 
JUUPQQIOBVNYKH-UHFFFAOYSA-N-P439-P87-P439-601505

>  <HIPPO Pose ID>  (1759) 
508029

>  <name>  (1759) 
JUUPQQIOBVNYKH-UHFFFAOYSA-N-P439-P87-P439-601505

>  <HIPPO Compound ID>  (1759) 
314550

>  <ref_mols>  (1759) 
A4706a,A0875a

>  <distance_score>  (1759) 
1.66068

>  <inspiration_score>  (1759) 
None

$$$$
UDAUGGKZLKAKFC-UHFFFAOYSA-N-P439-P87-P439-601505
     RDKit          3D

 27 28  0  0  0  0  0  0  0  0999 V2000
   10.2831   15.5699   23.0889 C   0  0  0  0  0  0  0  0  0  0  0  0
    8.8377   15.5351   22.5376 C   0  0  1  0  0  0  0  0  0  0  0  0
    7.8235   15.6021   23.5640 O   0  0  0  0  0  0  0  0  0  0  0  0
    6.7960   14.7153   23.4046 C   0  0  0  0  0  0  0  0  0  0  0  0
    6.5638   14.1040   22.3610 O   0  0  0  0  0  0  0  0  0  0  0  0
    5.9731   14.4655   24.6784 C   0  0  0  0  0  0  0  0  0  0  0  0
    5.7308   12.9510   24.8561 C   0  0  0  0  0  0  0  0  0  0  0  0
    6.8965   12.1366   25.4370 C   0  0  0  0  0  0  0  0  0  0  0  0
    7.7623   12.9530   26.3248 N   0  0  0  0  0  0  0  0  0  0  0  0
    9.1862   13.5375   25.6412 S   0  0  0  0  0  0  0  0  0  0  0  0
    9.0473   13.4606   24.2129 O   0  0  0  0  0  0  0  0  0  0  0  0
    9.5265   14.7528   26.3392 O   0  0  0  0  0  0  0  0  0  0  0  0
   10.3904   12.4142   25.9878 N   0  0  0  0  0  0  0  0  0  0  0  0
   11.7176   13.1118   26.0518 C   0  0  0  0  0  0  0  0  0  0  0  0
   12.7214   12.5431   25.0821 C   0  0  0  0  0  0  0  0  0  0  0  0
   12.8816   11.0808   25.4091 C   0  0  0  0  0  0  0  0  0  0  0  0
   11.5415   10.3073   25.2733 C   0  0  0  0  0  0  0  0  0  0  0  0
   10.3353   11.2134   25.0950 C   0  0  0  0  0  0  0  0  0  0  0  0
    6.9601   14.0156   27.0043 C   0  0  0  0  0  0  0  0  0  0  0  0
    6.4742   15.0696   25.9979 C   0  0  0  0  0  0  0  0  0  0  0  0
    8.7822   16.6023   21.4422 C   0  0  0  0  0  0  0  0  0  0  0  0
    8.2198   17.6798   21.5231 O   0  0  0  0  0  0  0  0  0  0  0  0
    9.5202   16.2992   20.3455 O   0  0  0  0  0  0  0  0  0  0  0  0
    9.4246   14.9385   19.9564 C   0  0  0  0  0  0  0  0  0  0  0  0
   10.0308   14.7980   18.5929 C   0  0  0  0  0  0  0  0  0  0  0  0
   11.4458   15.2149   18.5215 C   0  0  0  0  0  0  0  0  0  0  0  0
   12.2949   14.6172   19.9400 Cl  0  0  0  0  0  0  0  0  0  0  0  0
  2  1  1  1
  2  3  1  0
  3  4  1  0
  4  5  2  0
  4  6  1  0
  6  7  1  0
  7  8  1  0
  8  9  1  0
  9 10  1  0
 10 11  2  0
 10 12  2  0
 10 13  1  0
 13 14  1  0
 14 15  1  0
 15 16  1  0
 16 17  1  0
 17 18  1  0
  9 19  1  0
 19 20  1  0
  2 21  1  0
 21 22  2  0
 21 23  1  0
 23 24  1  0
 24 25  1  0
 25 26  1  0
 26 27  1  0
 20  6  1  0
 18 13  1  0
M  END
>  <energy_score>  (1760) 
-7.757209

>  <inchikey>  (1760) 
UDAUGGKZLKAKFC-UHFFFAOYSA-N

>  <smiles>  (1760) 
CC(OC(=O)C1CCN(S(=O)(=O)N2CCCCC2)CC1)C(=O)OCCCCl

>  <ref_pdb>  (1760) 
A0875a

>  <alias>  (1760) 
UDAUGGKZLKAKFC-UHFFFAOYSA-N-P439-P87-P439-601505

>  <HIPPO Pose ID>  (1760) 
508033

>  <name>  (1760) 
UDAUGGKZLKAKFC-UHFFFAOYSA-N-P439-P87-P439-601505

>  <HIPPO Compound ID>  (1760) 
314552

>  <ref_mols>  (1760) 
A4706a,A0875a

>  <distance_score>  (1760) 
1.719025

>  <inspiration_score>  (1760) 
None

$$$$
LNNONBIZUZGNNO-UHFFFAOYSA-N-P87-P87-P439-601505
     RDKit          3D

 27 28  0  0  0  0  0  0  0  0999 V2000
   14.5908   10.0214   30.7710 C   0  0  0  0  0  0  0  0  0  0  0  0
   14.2726   11.1216   29.9125 O   0  0  0  0  0  0  0  0  0  0  0  0
   15.0023   11.1868   28.7599 C   0  0  0  0  0  0  0  0  0  0  0  0
   15.7893   10.3293   28.3866 O   0  0  0  0  0  0  0  0  0  0  0  0
   14.7594   12.5508   28.0671 C   0  0  2  0  0  0  0  0  0  0  0  0
   13.8957   12.6780   26.8814 O   0  0  0  0  0  0  0  0  0  0  0  0
   13.7918   11.7007   25.9584 C   0  0  0  0  0  0  0  0  0  0  0  0
   14.3569   10.6170   26.0498 O   0  0  0  0  0  0  0  0  0  0  0  0
   12.8759   11.9347   24.7486 C   0  0  0  0  0  0  0  0  0  0  0  0
   12.6143   13.3339   24.2992 C   0  0  0  0  0  0  0  0  0  0  0  0
   11.6665   13.4554   23.1143 C   0  0  0  0  0  0  0  0  0  0  0  0
   10.3593   12.8314   23.4279 N   0  0  0  0  0  0  0  0  0  0  0  0
    9.3629   13.7961   24.3763 S   0  0  0  0  0  0  0  0  0  0  0  0
    9.3126   15.0574   23.6809 O   0  0  0  0  0  0  0  0  0  0  0  0
    9.8427   13.6988   25.7384 O   0  0  0  0  0  0  0  0  0  0  0  0
    7.8630   13.0472   24.3092 N   0  0  0  0  0  0  0  0  0  0  0  0
    7.5493   11.9524   25.2222 C   0  0  0  0  0  0  0  0  0  0  0  0
    6.7592   12.4101   26.4225 C   0  0  0  0  0  0  0  0  0  0  0  0
    5.5678   13.2903   26.1254 C   0  0  0  0  0  0  0  0  0  0  0  0
    5.5208   13.9604   24.7556 C   0  0  0  0  0  0  0  0  0  0  0  0
    6.6991   13.8035   23.7798 C   0  0  0  0  0  0  0  0  0  0  0  0
   10.5332   11.4038   23.6649 C   0  0  0  0  0  0  0  0  0  0  0  0
   11.5348   11.1716   24.7934 C   0  0  0  0  0  0  0  0  0  0  0  0
   16.1517   13.2835   27.9303 C   0  0  0  0  0  0  0  0  0  0  0  0
   16.9001   12.8182   26.6746 C   0  0  0  0  0  0  0  0  0  0  0  0
   17.0649   13.0769   29.1604 C   0  0  0  0  0  0  0  0  0  0  0  0
   15.9908   14.7529   27.8994 N   0  0  0  0  0  0  0  0  0  0  0  0
  1  2  1  0
  2  3  1  0
  3  4  2  0
  3  5  1  0
  5  6  1  6
  6  7  1  0
  7  8  2  0
  7  9  1  0
  9 10  1  0
 10 11  1  0
 11 12  1  0
 12 13  1  0
 13 14  2  0
 13 15  2  0
 13 16  1  0
 16 17  1  0
 17 18  1  0
 18 19  1  0
 19 20  1  0
 20 21  1  0
 12 22  1  0
 22 23  1  0
  5 24  1  0
 24 25  1  0
 24 26  1  0
 24 27  1  0
 23  9  1  0
 21 16  1  0
M  END
>  <energy_score>  (1761) 
-53.294488

>  <inchikey>  (1761) 
LNNONBIZUZGNNO-UHFFFAOYSA-N

>  <smiles>  (1761) 
COC(=O)C(OC(=O)C1CCN(S(=O)(=O)N2CCCCC2)CC1)C(C)(C)N

>  <ref_pdb>  (1761) 
A0875a

>  <alias>  (1761) 
LNNONBIZUZGNNO-UHFFFAOYSA-N-P87-P87-P439-601505

>  <HIPPO Pose ID>  (1761) 
508034

>  <name>  (1761) 
LNNONBIZUZGNNO-UHFFFAOYSA-N-P87-P87-P439-601505

>  <HIPPO Compound ID>  (1761) 
314553

>  <ref_mols>  (1761) 
A4706a,A0875a

>  <distance_score>  (1761) 
1.588045

>  <inspiration_score>  (1761) 
None

$$$$
YDZHYZRRXBZBMC-UHFFFAOYSA-N-P439-P87-P439-601505
     RDKit          3D

 27 29  0  0  0  0  0  0  0  0999 V2000
    6.4097   13.1386   22.0293 O   0  0  0  0  0  0  0  0  0  0  0  0
    7.2139   13.4101   22.9219 C   0  0  0  0  0  0  0  0  0  0  0  0
    8.4593   13.7863   22.5669 O   0  0  0  0  0  0  0  0  0  0  0  0
    9.4888   13.9574   23.5360 C   0  0  0  0  0  0  0  0  0  0  0  0
   10.9189   14.1004   23.0220 C   0  0  0  0  0  0  0  0  0  0  0  0
   11.3098   15.4185   22.7191 O   0  0  0  0  0  0  0  0  0  0  0  0
   10.4517   16.0497   21.8071 C   0  0  0  0  0  0  0  0  0  0  0  0
   10.2843   15.2503   20.5598 C   0  0  2  0  0  0  0  0  0  0  0  0
   11.5693   14.6715   20.0059 C   0  0  0  0  0  0  0  0  0  0  0  0
   11.1523   14.4619   18.6022 C   0  0  0  0  0  0  0  0  0  0  0  0
   10.2885   15.6438   18.3764 C   0  0  0  0  0  0  0  0  0  0  0  0
    9.7796   16.1378   19.5894 O   0  0  0  0  0  0  0  0  0  0  0  0
    6.7853   13.1913   24.3742 C   0  0  0  0  0  0  0  0  0  0  0  0
    7.3905   11.9120   24.9970 C   0  0  0  0  0  0  0  0  0  0  0  0
    8.2082   12.1374   26.2700 C   0  0  0  0  0  0  0  0  0  0  0  0
    8.8344   13.4486   26.1464 N   0  0  0  0  0  0  0  0  0  0  0  0
   10.3317   13.9142   26.7095 S   0  0  0  0  0  0  0  0  0  0  0  0
   10.1390   14.1916   28.1091 O   0  0  0  0  0  0  0  0  0  0  0  0
   10.7881   14.9689   25.8363 O   0  0  0  0  0  0  0  0  0  0  0  0
   11.4689   12.6630   26.6127 N   0  0  0  0  0  0  0  0  0  0  0  0
   11.6050   11.7425   25.4783 C   0  0  0  0  0  0  0  0  0  0  0  0
   12.9984   11.1195   25.2632 C   0  0  0  0  0  0  0  0  0  0  0  0
   14.1747   11.4566   26.1265 C   0  0  0  0  0  0  0  0  0  0  0  0
   13.9877   12.8824   26.4904 C   0  0  0  0  0  0  0  0  0  0  0  0
   12.7348   13.0191   27.3312 C   0  0  0  0  0  0  0  0  0  0  0  0
    7.7949   14.5049   26.3511 C   0  0  0  0  0  0  0  0  0  0  0  0
    6.8014   14.4792   25.2008 C   0  0  0  0  0  0  0  0  0  0  0  0
  1  2  2  0
  2  3  1  0
  3  4  1  0
  4  5  1  0
  5  6  1  0
  6  7  1  0
  8  7  1  1
  8  9  1  0
  9 10  1  0
 10 11  1  0
 11 12  1  0
  2 13  1  0
 13 14  1  0
 14 15  1  0
 15 16  1  0
 16 17  1  0
 17 18  2  0
 17 19  2  0
 17 20  1  0
 20 21  1  0
 21 22  1  0
 22 23  1  0
 23 24  1  0
 24 25  1  0
 16 26  1  0
 26 27  1  0
 12  8  1  0
 27 13  1  0
 25 20  1  0
M  END
>  <energy_score>  (1762) 
-11.664229

>  <inchikey>  (1762) 
YDZHYZRRXBZBMC-UHFFFAOYSA-N

>  <smiles>  (1762) 
O=C(OCCOCC1CCCO1)C1CCN(S(=O)(=O)N2CCCCC2)CC1

>  <ref_pdb>  (1762) 
A0875a

>  <alias>  (1762) 
YDZHYZRRXBZBMC-UHFFFAOYSA-N-P439-P87-P439-601505

>  <HIPPO Pose ID>  (1762) 
508041

>  <name>  (1762) 
YDZHYZRRXBZBMC-UHFFFAOYSA-N-P439-P87-P439-601505

>  <HIPPO Compound ID>  (1762) 
314556

>  <ref_mols>  (1762) 
A4706a,A0875a

>  <distance_score>  (1762) 
1.697953

>  <inspiration_score>  (1762) 
None

$$$$
AAIASMXQDYCOMM-UHFFFAOYSA-N-P439-P87-P439-601505
     RDKit          3D

 27 28  0  0  0  0  0  0  0  0999 V2000
   10.0131   15.2244   18.7812 C   0  0  0  0  0  0  0  0  0  0  0  0
    9.6927   15.3153   20.2648 C   0  0  0  0  0  0  0  0  0  0  0  0
    9.5936   16.7914   20.6698 C   0  0  0  0  0  0  0  0  0  0  0  0
    8.3622   14.6398   20.6436 C   0  0  0  0  0  0  0  0  0  0  0  0
   10.8642   14.7160   20.8241 O   0  0  0  0  0  0  0  0  0  0  0  0
   10.6803   13.9061   21.9586 C   0  0  0  0  0  0  0  0  0  0  0  0
   10.0085   14.7025   23.0479 C   0  0  2  0  0  0  0  0  0  0  0  0
   11.1580   15.3713   23.7374 C   0  0  0  0  0  0  0  0  0  0  0  0
   12.0306   15.8631   22.8142 F   0  0  0  0  0  0  0  0  0  0  0  0
    9.1260   13.8051   23.7534 O   0  0  0  0  0  0  0  0  0  0  0  0
    7.8483   14.2561   23.9395 C   0  0  0  0  0  0  0  0  0  0  0  0
    7.4677   15.3996   23.7248 O   0  0  0  0  0  0  0  0  0  0  0  0
    6.8733   13.1969   24.4515 C   0  0  0  0  0  0  0  0  0  0  0  0
    7.4980   11.8331   24.8011 C   0  0  0  0  0  0  0  0  0  0  0  0
    8.1240   11.8352   26.1939 C   0  0  0  0  0  0  0  0  0  0  0  0
    8.4366   13.2127   26.5103 N   0  0  0  0  0  0  0  0  0  0  0  0
    9.9069   13.9128   26.7541 S   0  0  0  0  0  0  0  0  0  0  0  0
    9.9471   15.0941   25.9386 O   0  0  0  0  0  0  0  0  0  0  0  0
   10.0427   14.0973   28.1753 O   0  0  0  0  0  0  0  0  0  0  0  0
   11.1304   12.8663   26.2948 N   0  0  0  0  0  0  0  0  0  0  0  0
   12.4722   13.1837   26.8971 C   0  0  0  0  0  0  0  0  0  0  0  0
   13.6499   12.9125   25.9305 C   0  0  0  0  0  0  0  0  0  0  0  0
   13.6876   11.4855   25.4230 C   0  0  0  0  0  0  0  0  0  0  0  0
   12.2638   11.0078   25.3563 C   0  0  0  0  0  0  0  0  0  0  0  0
   11.2256   12.0849   25.0483 C   0  0  0  0  0  0  0  0  0  0  0  0
    7.2376   14.0470   26.7896 C   0  0  0  0  0  0  0  0  0  0  0  0
    6.1923   13.7723   25.7035 C   0  0  0  0  0  0  0  0  0  0  0  0
  1  2  1  0
  2  3  1  0
  2  4  1  0
  2  5  1  0
  5  6  1  0
  7  6  1  6
  7  8  1  0
  8  9  1  0
  7 10  1  0
 10 11  1  0
 11 12  2  0
 11 13  1  0
 13 14  1  0
 14 15  1  0
 15 16  1  0
 16 17  1  0
 17 18  2  0
 17 19  2  0
 17 20  1  0
 20 21  1  0
 21 22  1  0
 22 23  1  0
 23 24  1  0
 24 25  1  0
 16 26  1  0
 26 27  1  0
 27 13  1  0
 25 20  1  0
M  END
>  <energy_score>  (1763) 
-16.36937

>  <inchikey>  (1763) 
AAIASMXQDYCOMM-UHFFFAOYSA-N

>  <smiles>  (1763) 
CC(C)(C)OCC(CF)OC(=O)C1CCN(S(=O)(=O)N2CCCCC2)CC1

>  <ref_pdb>  (1763) 
A0875a

>  <alias>  (1763) 
AAIASMXQDYCOMM-UHFFFAOYSA-N-P439-P87-P439-601505

>  <HIPPO Pose ID>  (1763) 
508055

>  <name>  (1763) 
AAIASMXQDYCOMM-UHFFFAOYSA-N-P439-P87-P439-601505

>  <HIPPO Compound ID>  (1763) 
314563

>  <ref_mols>  (1763) 
A4706a,A0875a

>  <distance_score>  (1763) 
1.467656

>  <inspiration_score>  (1763) 
None

$$$$
LVDAMNLAAGRUHY-UHFFFAOYSA-N-P87-P87-P439-601505
     RDKit          3D

 27 29  0  0  0  0  0  0  0  0999 V2000
   19.2294   10.1649   27.1256 C   0  0  0  0  0  0  0  0  0  0  0  0
   18.2508   10.3750   28.2946 C   0  0  0  0  0  0  0  0  0  0  0  0
   18.3445    9.1274   29.2021 C   0  0  0  0  0  0  0  0  0  0  0  0
   18.7341   11.6017   29.0943 C   0  0  0  0  0  0  0  0  0  0  0  0
   16.7838   10.5186   27.7574 C   0  0  1  0  0  0  0  0  0  0  0  0
   15.7560   10.6452   28.8970 C   0  0  0  0  0  0  0  0  0  0  0  0
   14.7587   11.5615   28.4347 O   0  0  0  0  0  0  0  0  0  0  0  0
   15.4983   12.5490   27.7065 C   0  0  0  0  0  0  0  0  0  0  0  0
   16.4647   11.7353   26.8601 C   0  0  2  0  0  0  0  0  0  0  0  0
   15.8509   11.4464   25.5535 O   0  0  0  0  0  0  0  0  0  0  0  0
   14.8624   10.5382   25.3935 C   0  0  0  0  0  0  0  0  0  0  0  0
   15.0518    9.3303   25.3765 O   0  0  0  0  0  0  0  0  0  0  0  0
   13.4541   11.1164   25.3432 C   0  0  0  0  0  0  0  0  0  0  0  0
   13.3354   12.3864   24.5552 C   0  0  0  0  0  0  0  0  0  0  0  0
   12.0759   13.0567   25.0151 C   0  0  0  0  0  0  0  0  0  0  0  0
   10.9068   12.2126   24.7804 N   0  0  0  0  0  0  0  0  0  0  0  0
    9.5009   13.0595   24.4852 S   0  0  0  0  0  0  0  0  0  0  0  0
    9.3755   13.8956   25.6426 O   0  0  0  0  0  0  0  0  0  0  0  0
    8.4526   12.1425   24.1346 O   0  0  0  0  0  0  0  0  0  0  0  0
    9.9157   13.9934   23.1811 N   0  0  0  0  0  0  0  0  0  0  0  0
   10.5091   13.4115   21.9778 C   0  0  0  0  0  0  0  0  0  0  0  0
   11.6311   14.3266   21.5196 C   0  0  0  0  0  0  0  0  0  0  0  0
   11.2156   15.7860   21.5998 C   0  0  0  0  0  0  0  0  0  0  0  0
    9.7000   15.9554   21.6918 C   0  0  0  0  0  0  0  0  0  0  0  0
    9.0870   15.1791   22.8635 C   0  0  0  0  0  0  0  0  0  0  0  0
   11.0041   10.8008   24.4195 C   0  0  0  0  0  0  0  0  0  0  0  0
   12.3092   10.1365   24.9106 C   0  0  0  0  0  0  0  0  0  0  0  0
  1  2  1  0
  2  3  1  0
  2  4  1  0
  5  2  1  1
  5  6  1  0
  6  7  1  0
  7  8  1  0
  8  9  1  0
  9 10  1  6
 10 11  1  0
 11 12  2  0
 11 13  1  0
 13 14  1  0
 14 15  1  0
 15 16  1  0
 16 17  1  0
 17 18  2  0
 17 19  2  0
 17 20  1  0
 20 21  1  0
 21 22  1  0
 22 23  1  0
 23 24  1  0
 24 25  1  0
 16 26  1  0
 26 27  1  0
  9  5  1  0
 27 13  1  0
 25 20  1  0
M  END
>  <energy_score>  (1764) 
-32.285704

>  <inchikey>  (1764) 
LVDAMNLAAGRUHY-UHFFFAOYSA-N

>  <smiles>  (1764) 
CC(C)(C)C1COCC1OC(=O)C1CCN(S(=O)(=O)N2CCCCC2)CC1

>  <ref_pdb>  (1764) 
A0875a

>  <alias>  (1764) 
LVDAMNLAAGRUHY-UHFFFAOYSA-N-P87-P87-P439-601505

>  <HIPPO Pose ID>  (1764) 
508070

>  <name>  (1764) 
LVDAMNLAAGRUHY-UHFFFAOYSA-N-P87-P87-P439-601505

>  <HIPPO Compound ID>  (1764) 
314571

>  <ref_mols>  (1764) 
A4706a,A0875a

>  <distance_score>  (1764) 
1.654028

>  <inspiration_score>  (1764) 
None

$$$$
GIGNHIZKVZAINQ-UHFFFAOYSA-N-P439-P87-P439-601505
     RDKit          3D

 27 29  0  0  0  0  0  0  0  0999 V2000
    8.1057   18.6636   19.8772 N   0  0  0  0  0  0  0  0  0  0  0  0
    9.0210   17.7211   20.5130 C   0  0  0  0  0  0  0  0  0  0  0  0
    8.3081   16.7279   21.4234 C   0  0  0  0  0  0  0  0  0  0  0  0
    9.0769   15.4694   21.8281 C   0  0  1  0  0  0  0  0  0  0  0  0
    8.2686   14.8302   22.8532 O   0  0  0  0  0  0  0  0  0  0  0  0
    7.1115   14.1190   22.8348 C   0  0  0  0  0  0  0  0  0  0  0  0
    6.5021   13.6831   21.8791 O   0  0  0  0  0  0  0  0  0  0  0  0
    6.8001   13.8994   24.2975 C   0  0  0  0  0  0  0  0  0  0  0  0
    6.3559   12.5879   24.9138 C   0  0  0  0  0  0  0  0  0  0  0  0
    6.8789   12.5324   26.3769 C   0  0  0  0  0  0  0  0  0  0  0  0
    7.4178   13.8505   26.8248 N   0  0  0  0  0  0  0  0  0  0  0  0
    9.0363   14.3674   26.7338 S   0  0  0  0  0  0  0  0  0  0  0  0
    9.2230   15.2652   25.6147 O   0  0  0  0  0  0  0  0  0  0  0  0
    9.3687   14.8243   28.0580 O   0  0  0  0  0  0  0  0  0  0  0  0
    9.9978   13.0164   26.4126 N   0  0  0  0  0  0  0  0  0  0  0  0
   11.4423   13.2705   26.7510 C   0  0  0  0  0  0  0  0  0  0  0  0
   12.3213   13.4032   25.5357 C   0  0  0  0  0  0  0  0  0  0  0  0
   12.2058   12.2265   24.6160 C   0  0  0  0  0  0  0  0  0  0  0  0
   10.8843   11.4788   24.7437 C   0  0  0  0  0  0  0  0  0  0  0  0
    9.8070   12.4455   25.0691 C   0  0  0  0  0  0  0  0  0  0  0  0
    6.4260   14.9355   26.5611 C   0  0  0  0  0  0  0  0  0  0  0  0
    6.2206   15.0970   25.0450 C   0  0  0  0  0  0  0  0  0  0  0  0
    9.3117   14.5814   20.6146 C   0  0  0  0  0  0  0  0  0  0  0  0
   10.7682   14.2359   20.4053 C   0  0  0  0  0  0  0  0  0  0  0  0
   11.6753   15.4027   20.5624 C   0  0  0  0  0  0  0  0  0  0  0  0
   11.4333   16.1941   21.7124 O   0  0  0  0  0  0  0  0  0  0  0  0
   10.4274   15.6573   22.5439 C   0  0  0  0  0  0  0  0  0  0  0  0
  1  2  1  0
  2  3  1  0
  4  3  1  6
  4  5  1  0
  5  6  1  0
  6  7  2  0
  6  8  1  0
  8  9  1  0
  9 10  1  0
 10 11  1  0
 11 12  1  0
 12 13  2  0
 12 14  2  0
 12 15  1  0
 15 16  1  0
 16 17  1  0
 17 18  1  0
 18 19  1  0
 19 20  1  0
 11 21  1  0
 21 22  1  0
  4 23  1  0
 23 24  1  0
 24 25  1  0
 25 26  1  0
 26 27  1  0
 27  4  1  0
 22  8  1  0
 20 15  1  0
M  END
>  <energy_score>  (1765) 
-19.16086

>  <inchikey>  (1765) 
GIGNHIZKVZAINQ-UHFFFAOYSA-N

>  <smiles>  (1765) 
NCCC1(OC(=O)C2CCN(S(=O)(=O)N3CCCCC3)CC2)CCCOC1

>  <ref_pdb>  (1765) 
A0875a

>  <alias>  (1765) 
GIGNHIZKVZAINQ-UHFFFAOYSA-N-P439-P87-P439-601505

>  <HIPPO Pose ID>  (1765) 
508073

>  <name>  (1765) 
GIGNHIZKVZAINQ-UHFFFAOYSA-N-P439-P87-P439-601505

>  <HIPPO Compound ID>  (1765) 
314572

>  <ref_mols>  (1765) 
A4706a,A0875a

>  <distance_score>  (1765) 
1.814257

>  <inspiration_score>  (1765) 
None

$$$$
NZMAUYRNLHZQII-UHFFFAOYSA-N-P439-P87-P439-601505
     RDKit          3D

 27 29  0  0  0  0  0  0  0  0999 V2000
    8.8338   15.1441   20.0911 C   0  0  0  0  0  0  0  0  0  0  0  0
    9.6211   16.1538   20.8617 C   0  0  0  0  0  0  0  0  0  0  0  0
    9.1659   17.5578   20.4926 C   0  0  0  0  0  0  0  0  0  0  0  0
   11.0055   16.0338   20.5882 O   0  0  0  0  0  0  0  0  0  0  0  0
   11.5120   14.7379   20.3321 C   0  0  0  0  0  0  0  0  0  0  0  0
   11.5368   13.9212   21.6056 C   0  0  0  0  0  0  0  0  0  0  0  0
   10.3404   13.9445   22.5641 C   0  0  2  0  0  0  0  0  0  0  0  0
    9.1266   13.3134   22.0756 O   0  0  0  0  0  0  0  0  0  0  0  0
    7.8847   13.3081   22.6266 C   0  0  0  0  0  0  0  0  0  0  0  0
    6.8745   13.1146   21.9560 O   0  0  0  0  0  0  0  0  0  0  0  0
    7.7857   13.4346   24.0913 C   0  0  0  0  0  0  0  0  0  0  0  0
    7.3977   12.1232   24.7832 C   0  0  0  0  0  0  0  0  0  0  0  0
    7.5330   12.2732   26.3000 C   0  0  0  0  0  0  0  0  0  0  0  0
    7.9702   13.6431   26.6052 N   0  0  0  0  0  0  0  0  0  0  0  0
    9.5545   14.1675   26.7348 S   0  0  0  0  0  0  0  0  0  0  0  0
    9.5833   15.5423   26.2849 O   0  0  0  0  0  0  0  0  0  0  0  0
   10.0512   13.8595   28.0449 O   0  0  0  0  0  0  0  0  0  0  0  0
   10.6001   13.3524   25.6766 N   0  0  0  0  0  0  0  0  0  0  0  0
   10.6940   11.8984   25.4850 C   0  0  0  0  0  0  0  0  0  0  0  0
   12.0837   11.3320   25.7952 C   0  0  0  0  0  0  0  0  0  0  0  0
   13.3109   11.9748   25.2519 C   0  0  0  0  0  0  0  0  0  0  0  0
   12.9370   13.3605   24.8559 C   0  0  0  0  0  0  0  0  0  0  0  0
   11.9293   13.9852   25.7898 C   0  0  0  0  0  0  0  0  0  0  0  0
    6.9632   14.6325   26.1136 C   0  0  0  0  0  0  0  0  0  0  0  0
    6.9184   14.5857   24.5867 C   0  0  0  0  0  0  0  0  0  0  0  0
   10.1684   15.3678   23.0360 C   0  0  0  0  0  0  0  0  0  0  0  0
    9.2619   16.0490   22.2244 O   0  0  0  0  0  0  0  0  0  0  0  0
  1  2  1  0
  2  3  1  0
  2  4  1  0
  4  5  1  0
  5  6  1  0
  6  7  1  0
  7  8  1  6
  8  9  1  0
  9 10  2  0
  9 11  1  0
 11 12  1  0
 12 13  1  0
 13 14  1  0
 14 15  1  0
 15 16  2  0
 15 17  2  0
 15 18  1  0
 18 19  1  0
 19 20  1  0
 20 21  1  0
 21 22  1  0
 22 23  1  0
 14 24  1  0
 24 25  1  0
  7 26  1  0
 26 27  1  0
 27  2  1  0
 25 11  1  0
 23 18  1  0
M  END
>  <energy_score>  (1766) 
-6.302207

>  <inchikey>  (1766) 
NZMAUYRNLHZQII-UHFFFAOYSA-N

>  <smiles>  (1766) 
CC1(C)OCCC(OC(=O)C2CCN(S(=O)(=O)N3CCCCC3)CC2)CO1

>  <ref_pdb>  (1766) 
A0875a

>  <alias>  (1766) 
NZMAUYRNLHZQII-UHFFFAOYSA-N-P439-P87-P439-601505

>  <HIPPO Pose ID>  (1766) 
508083

>  <name>  (1766) 
NZMAUYRNLHZQII-UHFFFAOYSA-N-P439-P87-P439-601505

>  <HIPPO Compound ID>  (1766) 
314577

>  <ref_mols>  (1766) 
A4706a,A0875a

>  <distance_score>  (1766) 
1.517047

>  <inspiration_score>  (1766) 
None

$$$$
MUHGYZNYHQYUHK-UHFFFAOYSA-N-P439-P87-P439-601505
     RDKit          3D

 27 30  0  0  0  0  0  0  0  0999 V2000
   11.2822   15.3658   18.4615 O   0  0  0  0  0  0  0  0  0  0  0  0
   10.9264   14.9145   19.5287 C   0  0  0  0  0  0  0  0  0  0  0  0
   11.7597   14.7063   20.7329 C   0  0  0  0  0  0  0  0  0  0  0  0
   10.7434   14.8408   21.8290 C   0  0  1  0  0  0  0  0  0  0  0  0
   10.4229   16.2824   22.1454 C   0  0  0  0  0  0  0  0  0  0  0  0
    9.0891   16.6198   21.4594 C   0  0  0  0  0  0  0  0  0  0  0  0
    8.3287   15.3069   21.5711 C   0  0  2  0  0  0  0  0  0  0  0  0
    7.7337   15.1956   22.8755 O   0  0  0  0  0  0  0  0  0  0  0  0
    6.7543   14.2569   23.0224 C   0  0  0  0  0  0  0  0  0  0  0  0
    6.4575   13.4231   22.1692 O   0  0  0  0  0  0  0  0  0  0  0  0
    6.0394   14.3380   24.3869 C   0  0  0  0  0  0  0  0  0  0  0  0
    5.8169   12.9385   24.9954 C   0  0  0  0  0  0  0  0  0  0  0  0
    6.9824   12.3254   25.7790 C   0  0  0  0  0  0  0  0  0  0  0  0
    7.9887   13.3488   26.1437 N   0  0  0  0  0  0  0  0  0  0  0  0
    9.2697   13.5270   25.0673 S   0  0  0  0  0  0  0  0  0  0  0  0
    8.8517   12.9447   23.8206 O   0  0  0  0  0  0  0  0  0  0  0  0
    9.7805   14.8709   25.1625 O   0  0  0  0  0  0  0  0  0  0  0  0
   10.3869   12.4533   25.7260 N   0  0  0  0  0  0  0  0  0  0  0  0
   11.6648   13.0612   26.1450 C   0  0  0  0  0  0  0  0  0  0  0  0
   12.7675   12.6234   25.2124 C   0  0  0  0  0  0  0  0  0  0  0  0
   12.9757   11.1404   25.4374 C   0  0  0  0  0  0  0  0  0  0  0  0
   11.6643   10.3252   25.2834 C   0  0  0  0  0  0  0  0  0  0  0  0
   10.4410   11.1639   24.9712 C   0  0  0  0  0  0  0  0  0  0  0  0
    7.3369   14.5972   26.5923 C   0  0  0  0  0  0  0  0  0  0  0  0
    6.6282   15.2970   25.4343 C   0  0  0  0  0  0  0  0  0  0  0  0
    9.4622   14.3410   21.2181 C   0  0  1  0  0  0  0  0  0  0  0  0
    9.6728   14.4979   19.8023 O   0  0  0  0  0  0  0  0  0  0  0  0
  1  2  2  0
  2  3  1  0
  4  3  1  6
  4  5  1  0
  5  6  1  0
  6  7  1  0
  7  8  1  1
  8  9  1  0
  9 10  2  0
  9 11  1  0
 11 12  1  0
 12 13  1  0
 13 14  1  0
 14 15  1  0
 15 16  2  0
 15 17  2  0
 15 18  1  0
 18 19  1  0
 19 20  1  0
 20 21  1  0
 21 22  1  0
 22 23  1  0
 14 24  1  0
 24 25  1  0
  7 26  1  0
 26 27  1  6
 27  2  1  0
 26  4  1  0
 25 11  1  0
 23 18  1  0
M  END
>  <energy_score>  (1767) 
-21.039181

>  <inchikey>  (1767) 
MUHGYZNYHQYUHK-UHFFFAOYSA-N

>  <smiles>  (1767) 
O=C1CC2CCC(OC(=O)C3CCN(S(=O)(=O)N4CCCCC4)CC3)C2O1

>  <ref_pdb>  (1767) 
A0875a

>  <alias>  (1767) 
MUHGYZNYHQYUHK-UHFFFAOYSA-N-P439-P87-P439-601505

>  <HIPPO Pose ID>  (1767) 
508085

>  <name>  (1767) 
MUHGYZNYHQYUHK-UHFFFAOYSA-N-P439-P87-P439-601505

>  <HIPPO Compound ID>  (1767) 
314578

>  <ref_mols>  (1767) 
A4706a,A0875a

>  <distance_score>  (1767) 
1.482868

>  <inspiration_score>  (1767) 
None

$$$$
RFCZDRCGOMXJCY-UHFFFAOYSA-N-P439-P87-P439-601505
     RDKit          3D

 27 30  0  0  0  0  0  0  0  0999 V2000
    5.1800   13.6143   22.9158 O   0  0  0  0  0  0  0  0  0  0  0  0
    6.2946   13.4974   23.3887 C   0  0  0  0  0  0  0  0  0  0  0  0
    7.4498   13.1902   22.6868 O   0  0  0  0  0  0  0  0  0  0  0  0
    8.1266   14.3069   22.0445 C   0  0  0  0  0  0  0  0  0  0  0  0
    9.6229   14.1635   21.7267 C   0  0  1  0  0  0  0  0  0  0  0  0
   10.1074   14.9184   20.4332 C   0  0  0  0  0  0  0  0  0  0  0  0
   11.5623   14.9616   20.2601 N   0  0  0  0  0  0  0  0  0  0  0  0
   12.1044   15.5359   21.4953 C   0  0  0  0  0  0  0  0  0  0  0  0
   11.7405   14.6083   22.6423 C   0  0  0  0  0  0  0  0  0  0  0  0
   10.3366   14.6560   22.8649 O   0  0  0  0  0  0  0  0  0  0  0  0
    7.5511   15.7074   22.0932 C   0  0  0  0  0  0  0  0  0  0  0  0
    7.2399   14.7656   20.9768 C   0  0  0  0  0  0  0  0  0  0  0  0
    6.6656   13.5534   24.8100 C   0  0  0  0  0  0  0  0  0  0  0  0
    6.5925   12.1859   25.4556 C   0  0  0  0  0  0  0  0  0  0  0  0
    7.4235   12.2085   26.7204 C   0  0  0  0  0  0  0  0  0  0  0  0
    7.9953   13.5499   26.9596 N   0  0  0  0  0  0  0  0  0  0  0  0
    9.5531   14.0172   26.4907 S   0  0  0  0  0  0  0  0  0  0  0  0
   10.2130   14.4006   27.7136 O   0  0  0  0  0  0  0  0  0  0  0  0
    9.4800   14.9517   25.3973 O   0  0  0  0  0  0  0  0  0  0  0  0
   10.3110   12.6008   25.9564 N   0  0  0  0  0  0  0  0  0  0  0  0
   11.7816   12.6459   26.1460 C   0  0  0  0  0  0  0  0  0  0  0  0
   12.4546   11.4399   25.4909 C   0  0  0  0  0  0  0  0  0  0  0  0
   11.5103   10.2289   25.2211 C   0  0  0  0  0  0  0  0  0  0  0  0
   10.1698   10.5996   24.6049 C   0  0  0  0  0  0  0  0  0  0  0  0
    9.9858   12.1012   24.6042 C   0  0  0  0  0  0  0  0  0  0  0  0
    6.9623   14.6297   27.0117 C   0  0  0  0  0  0  0  0  0  0  0  0
    6.1269   14.6349   25.7176 C   0  0  0  0  0  0  0  0  0  0  0  0
  1  2  2  0
  2  3  1  0
  3  4  1  0
  5  4  1  1
  5  6  1  0
  6  7  1  0
  7  8  1  0
  8  9  1  0
  9 10  1  0
  4 11  1  0
 11 12  1  0
  2 13  1  0
 13 14  1  0
 14 15  1  0
 15 16  1  0
 16 17  1  0
 17 18  2  0
 17 19  2  0
 17 20  1  0
 20 21  1  0
 21 22  1  0
 22 23  1  0
 23 24  1  0
 24 25  1  0
 16 26  1  0
 26 27  1  0
 12  4  1  0
 27 13  1  0
 10  5  1  0
 25 20  1  0
M  END
>  <energy_score>  (1768) 
-5.525802

>  <inchikey>  (1768) 
RFCZDRCGOMXJCY-UHFFFAOYSA-N

>  <smiles>  (1768) 
O=C(OC1(C2CNCCO2)CC1)C1CCN(S(=O)(=O)N2CCCCC2)CC1

>  <ref_pdb>  (1768) 
A0875a

>  <alias>  (1768) 
RFCZDRCGOMXJCY-UHFFFAOYSA-N-P439-P87-P439-601505

>  <HIPPO Pose ID>  (1768) 
508093

>  <name>  (1768) 
RFCZDRCGOMXJCY-UHFFFAOYSA-N-P439-P87-P439-601505

>  <HIPPO Compound ID>  (1768) 
314582

>  <ref_mols>  (1768) 
A4706a,A0875a

>  <distance_score>  (1768) 
1.636525

>  <inspiration_score>  (1768) 
None

$$$$
FDGCGBUKBRLOHB-UHFFFAOYSA-N-P439-P87-P439-601505
     RDKit          3D

 27 28  0  0  0  0  0  0  0  0999 V2000
   20.1983    9.1909   28.8160 C   0  0  0  0  0  0  0  0  0  0  0  0
   19.8499   10.4069   27.9485 C   0  0  0  0  0  0  0  0  0  0  0  0
   20.1859   11.7110   28.6783 C   0  0  0  0  0  0  0  0  0  0  0  0
   20.6749   10.3520   26.6540 C   0  0  0  0  0  0  0  0  0  0  0  0
   18.4801   10.3626   27.5244 O   0  0  0  0  0  0  0  0  0  0  0  0
   17.4526   10.4580   28.5117 C   0  0  0  0  0  0  0  0  0  0  0  0
   16.6932   11.7905   28.3628 C   0  0  2  0  0  0  0  0  0  0  0  0
   16.7428   12.5775   29.6929 C   0  0  0  0  0  0  0  0  0  0  0  0
   16.2463   13.9597   29.5555 N   0  0  0  0  0  0  0  0  0  0  0  0
   15.2763   11.5711   28.1137 O   0  0  0  0  0  0  0  0  0  0  0  0
   14.8586   11.4429   26.8276 C   0  0  0  0  0  0  0  0  0  0  0  0
   15.5547   11.1743   25.8647 O   0  0  0  0  0  0  0  0  0  0  0  0
   13.3709   11.7714   26.7489 C   0  0  0  0  0  0  0  0  0  0  0  0
   13.2451   13.2388   26.8542 C   0  0  0  0  0  0  0  0  0  0  0  0
   11.8088   13.7267   26.9107 C   0  0  0  0  0  0  0  0  0  0  0  0
   10.9687   13.0827   25.8848 N   0  0  0  0  0  0  0  0  0  0  0  0
    9.6531   14.0323   25.3786 S   0  0  0  0  0  0  0  0  0  0  0  0
    9.3706   13.7760   23.9899 O   0  0  0  0  0  0  0  0  0  0  0  0
    9.8551   15.3720   25.8702 O   0  0  0  0  0  0  0  0  0  0  0  0
    8.4446   13.3404   26.3344 N   0  0  0  0  0  0  0  0  0  0  0  0
    7.2806   14.2307   26.6251 C   0  0  0  0  0  0  0  0  0  0  0  0
    5.9935   13.7471   25.9687 C   0  0  0  0  0  0  0  0  0  0  0  0
    6.2723   13.0697   24.6385 C   0  0  0  0  0  0  0  0  0  0  0  0
    7.1742   11.8531   24.8294 C   0  0  0  0  0  0  0  0  0  0  0  0
    8.0635   11.9473   26.0530 C   0  0  0  0  0  0  0  0  0  0  0  0
   11.7059   12.3917   24.8257 C   0  0  0  0  0  0  0  0  0  0  0  0
   12.6875   11.3594   25.4339 C   0  0  0  0  0  0  0  0  0  0  0  0
  1  2  1  0
  2  3  1  0
  2  4  1  0
  2  5  1  0
  5  6  1  0
  7  6  1  1
  7  8  1  0
  8  9  1  0
  7 10  1  0
 10 11  1  0
 11 12  2  0
 11 13  1  0
 13 14  1  0
 14 15  1  0
 15 16  1  0
 16 17  1  0
 17 18  2  0
 17 19  2  0
 17 20  1  0
 20 21  1  0
 21 22  1  0
 22 23  1  0
 23 24  1  0
 24 25  1  0
 16 26  1  0
 26 27  1  0
 27 13  1  0
 25 20  1  0
M  END
>  <energy_score>  (1769) 
-65.945635

>  <inchikey>  (1769) 
FDGCGBUKBRLOHB-UHFFFAOYSA-N

>  <smiles>  (1769) 
CC(C)(C)OCC(CN)OC(=O)C1CCN(S(=O)(=O)N2CCCCC2)CC1

>  <ref_pdb>  (1769) 
A0875a

>  <alias>  (1769) 
FDGCGBUKBRLOHB-UHFFFAOYSA-N-P439-P87-P439-601505

>  <HIPPO Pose ID>  (1769) 
508095

>  <name>  (1769) 
FDGCGBUKBRLOHB-UHFFFAOYSA-N-P439-P87-P439-601505

>  <HIPPO Compound ID>  (1769) 
314583

>  <ref_mols>  (1769) 
A4706a,A0875a

>  <distance_score>  (1769) 
1.814119

>  <inspiration_score>  (1769) 
None

$$$$
HTPIFEYHLGZKKC-UHFFFAOYSA-N-P439-P87-P439-601505
     RDKit          3D

 27 29  0  0  0  0  0  0  0  0999 V2000
    6.7715   16.5169   22.0746 C   0  0  0  0  0  0  0  0  0  0  0  0
    7.5259   15.2554   22.4348 C   0  0  0  0  0  0  0  0  0  0  0  0
    6.9694   14.0390   21.6994 C   0  0  0  0  0  0  0  0  0  0  0  0
    7.2382   15.0286   23.8538 O   0  0  0  0  0  0  0  0  0  0  0  0
    5.9317   14.8543   24.2444 C   0  0  0  0  0  0  0  0  0  0  0  0
    4.9310   15.1739   23.6101 O   0  0  0  0  0  0  0  0  0  0  0  0
    5.7870   14.0960   25.5475 C   0  0  0  0  0  0  0  0  0  0  0  0
    6.0784   12.6018   25.2905 C   0  0  0  0  0  0  0  0  0  0  0  0
    7.2041   11.9607   26.0841 C   0  0  0  0  0  0  0  0  0  0  0  0
    8.1502   12.9727   26.5625 N   0  0  0  0  0  0  0  0  0  0  0  0
    9.2238   13.6270   25.4337 S   0  0  0  0  0  0  0  0  0  0  0  0
    9.3613   15.0244   25.7647 O   0  0  0  0  0  0  0  0  0  0  0  0
    8.8845   13.0903   24.1396 O   0  0  0  0  0  0  0  0  0  0  0  0
   10.6473   12.8653   25.8973 N   0  0  0  0  0  0  0  0  0  0  0  0
   11.8293   13.7553   25.8599 C   0  0  0  0  0  0  0  0  0  0  0  0
   12.8183   13.2907   24.8055 C   0  0  0  0  0  0  0  0  0  0  0  0
   13.4093   11.9613   25.1846 C   0  0  0  0  0  0  0  0  0  0  0  0
   12.2753   11.0966   25.6293 C   0  0  0  0  0  0  0  0  0  0  0  0
   10.8715   11.5600   25.2434 C   0  0  0  0  0  0  0  0  0  0  0  0
    7.4741   13.9460   27.4512 C   0  0  0  0  0  0  0  0  0  0  0  0
    6.5080   14.8170   26.6796 C   0  0  0  0  0  0  0  0  0  0  0  0
    9.0688   15.5295   21.9924 C   0  0  2  0  0  0  0  0  0  0  0  0
    9.4142   14.9618   20.5777 C   0  0  0  0  0  0  0  0  0  0  0  0
   10.7367   15.3194   20.0583 N   0  0  0  0  0  0  0  0  0  0  0  0
   11.7251   14.9296   21.0594 C   0  0  0  0  0  0  0  0  0  0  0  0
   11.3682   15.5013   22.4289 C   0  0  0  0  0  0  0  0  0  0  0  0
   10.0859   15.0580   22.8923 O   0  0  0  0  0  0  0  0  0  0  0  0
  1  2  1  0
  2  3  1  0
  2  4  1  0
  4  5  1  0
  5  6  2  0
  5  7  1  0
  7  8  1  0
  8  9  1  0
  9 10  1  0
 10 11  1  0
 11 12  2  0
 11 13  2  0
 11 14  1  0
 14 15  1  0
 15 16  1  0
 16 17  1  0
 17 18  1  0
 18 19  1  0
 10 20  1  0
 20 21  1  0
 22  2  1  1
 22 23  1  0
 23 24  1  0
 24 25  1  0
 25 26  1  0
 26 27  1  0
 21  7  1  0
 27 22  1  0
 19 14  1  0
M  END
>  <energy_score>  (1770) 
-33.427374

>  <inchikey>  (1770) 
HTPIFEYHLGZKKC-UHFFFAOYSA-N

>  <smiles>  (1770) 
CC(C)(OC(=O)C1CCN(S(=O)(=O)N2CCCCC2)CC1)C1CNCCO1

>  <ref_pdb>  (1770) 
A0875a

>  <alias>  (1770) 
HTPIFEYHLGZKKC-UHFFFAOYSA-N-P439-P87-P439-601505

>  <HIPPO Pose ID>  (1770) 
508103

>  <name>  (1770) 
HTPIFEYHLGZKKC-UHFFFAOYSA-N-P439-P87-P439-601505

>  <HIPPO Compound ID>  (1770) 
314587

>  <ref_mols>  (1770) 
A4706a,A0875a

>  <distance_score>  (1770) 
1.737045

>  <inspiration_score>  (1770) 
None

$$$$
BPEIYWIVUFCSCD-UHFFFAOYSA-N-P439-P87-P439-601505
     RDKit          3D

 27 30  0  0  0  0  0  0  0  0999 V2000
    6.6326   12.9043   22.5448 O   0  0  0  0  0  0  0  0  0  0  0  0
    7.0996   13.6825   23.3688 C   0  0  0  0  0  0  0  0  0  0  0  0
    8.2883   14.3082   23.2151 O   0  0  0  0  0  0  0  0  0  0  0  0
    9.2815   13.5818   22.4686 C   0  0  0  0  0  0  0  0  0  0  0  0
    9.5546   14.2391   21.1950 C   0  0  0  0  0  0  0  0  0  0  0  0
    8.5901   14.5430   20.3930 N   0  0  0  0  0  0  0  0  0  0  0  0
    9.1846   15.3181   19.3847 O   0  0  0  0  0  0  0  0  0  0  0  0
   10.3528   15.8216   19.9669 C   0  0  1  0  0  0  0  0  0  0  0  0
   10.0674   16.8302   21.0793 C   0  0  0  0  0  0  0  0  0  0  0  0
   11.1516   16.6468   22.0177 O   0  0  0  0  0  0  0  0  0  0  0  0
   11.7722   15.3919   21.7596 C   0  0  0  0  0  0  0  0  0  0  0  0
   10.9103   14.6912   20.7617 C   0  0  1  0  0  0  0  0  0  0  0  0
    6.4210   13.9392   24.7247 C   0  0  0  0  0  0  0  0  0  0  0  0
    6.3385   12.6166   25.5197 C   0  0  0  0  0  0  0  0  0  0  0  0
    7.3625   12.3834   26.6418 C   0  0  0  0  0  0  0  0  0  0  0  0
    8.4180   13.4472   26.7310 N   0  0  0  0  0  0  0  0  0  0  0  0
    9.6207   13.3370   25.5838 S   0  0  0  0  0  0  0  0  0  0  0  0
    9.1776   12.2725   24.7110 O   0  0  0  0  0  0  0  0  0  0  0  0
    9.9602   14.6686   25.1326 O   0  0  0  0  0  0  0  0  0  0  0  0
   11.0749   12.7304   26.1760 N   0  0  0  0  0  0  0  0  0  0  0  0
   11.9706   12.5270   24.9758 C   0  0  0  0  0  0  0  0  0  0  0  0
   13.1370   11.6542   25.3621 C   0  0  0  0  0  0  0  0  0  0  0  0
   13.9764   12.3500   26.4042 C   0  0  0  0  0  0  0  0  0  0  0  0
   13.1237   12.9026   27.5435 C   0  0  0  0  0  0  0  0  0  0  0  0
   11.7969   13.5836   27.1392 C   0  0  0  0  0  0  0  0  0  0  0  0
    7.7309   14.7629   26.8211 C   0  0  0  0  0  0  0  0  0  0  0  0
    6.9514   15.1187   25.5505 C   0  0  0  0  0  0  0  0  0  0  0  0
  1  2  2  0
  2  3  1  0
  3  4  1  0
  4  5  1  0
  5  6  2  0
  6  7  1  0
  7  8  1  0
  8  9  1  1
  9 10  1  0
 10 11  1  0
 12 11  1  1
  2 13  1  0
 13 14  1  0
 14 15  1  0
 15 16  1  0
 16 17  1  0
 17 18  2  0
 17 19  2  0
 17 20  1  0
 20 21  1  0
 21 22  1  0
 22 23  1  0
 23 24  1  0
 24 25  1  0
 16 26  1  0
 26 27  1  0
 12  5  1  0
 27 13  1  0
 12  8  1  0
 25 20  1  0
M  END
>  <energy_score>  (1771) 
-28.065238

>  <inchikey>  (1771) 
BPEIYWIVUFCSCD-UHFFFAOYSA-N

>  <smiles>  (1771) 
O=C(OCC1=NOC2COCC12)C1CCN(S(=O)(=O)N2CCCCC2)CC1

>  <ref_pdb>  (1771) 
A0875a

>  <alias>  (1771) 
BPEIYWIVUFCSCD-UHFFFAOYSA-N-P439-P87-P439-601505

>  <HIPPO Pose ID>  (1771) 
508107

>  <name>  (1771) 
BPEIYWIVUFCSCD-UHFFFAOYSA-N-P439-P87-P439-601505

>  <HIPPO Compound ID>  (1771) 
314589

>  <ref_mols>  (1771) 
A4706a,A0875a

>  <distance_score>  (1771) 
1.775184

>  <inspiration_score>  (1771) 
None

$$$$
UYQCRARRSHVBIM-UHFFFAOYSA-N-P439-P87-P439-601505
     RDKit          3D

 27 29  0  0  0  0  0  0  0  0999 V2000
   11.0305   14.5573   19.6511 C   0  0  0  0  0  0  0  0  0  0  0  0
   10.0771   15.1070   20.7405 C   0  0  0  0  0  0  0  0  0  0  0  0
    8.7176   15.2285   20.1956 C   0  0  0  0  0  0  0  0  0  0  0  0
   10.5020   16.4390   20.9171 O   0  0  0  0  0  0  0  0  0  0  0  0
   11.5744   16.3430   21.8168 C   0  0  0  0  0  0  0  0  0  0  0  0
   11.2088   15.3100   22.8252 C   0  0  0  0  0  0  0  0  0  0  0  0
   10.0690   14.5321   22.1818 C   0  0  2  0  0  0  0  0  0  0  0  0
   10.3568   13.0529   22.1162 C   0  0  0  0  0  0  0  0  0  0  0  0
    9.9153   12.1841   23.1844 N   0  0  0  0  0  0  0  0  0  0  0  0
    8.8743   14.8088   23.0244 O   0  0  0  0  0  0  0  0  0  0  0  0
    7.8006   13.9762   23.0883 C   0  0  0  0  0  0  0  0  0  0  0  0
    7.3707   13.2904   22.1612 O   0  0  0  0  0  0  0  0  0  0  0  0
    7.1410   13.8669   24.4710 C   0  0  0  0  0  0  0  0  0  0  0  0
    7.1836   12.4093   24.9914 C   0  0  0  0  0  0  0  0  0  0  0  0
    8.3683   12.0112   25.8845 C   0  0  0  0  0  0  0  0  0  0  0  0
    8.9337   13.1281   26.6641 N   0  0  0  0  0  0  0  0  0  0  0  0
   10.4678   13.7628   26.4039 S   0  0  0  0  0  0  0  0  0  0  0  0
   10.5106   14.1471   25.0278 O   0  0  0  0  0  0  0  0  0  0  0  0
   10.6563   14.7481   27.4348 O   0  0  0  0  0  0  0  0  0  0  0  0
   11.6796   12.5522   26.5853 N   0  0  0  0  0  0  0  0  0  0  0  0
   12.8715   12.9663   27.3901 C   0  0  0  0  0  0  0  0  0  0  0  0
   14.2036   12.8106   26.6670 C   0  0  0  0  0  0  0  0  0  0  0  0
   14.4306   11.3885   26.2835 C   0  0  0  0  0  0  0  0  0  0  0  0
   13.3403   11.0160   25.3271 C   0  0  0  0  0  0  0  0  0  0  0  0
   12.0345   11.8188   25.3492 C   0  0  0  0  0  0  0  0  0  0  0  0
    7.8907   14.1891   26.8797 C   0  0  0  0  0  0  0  0  0  0  0  0
    7.5350   14.8698   25.5571 C   0  0  0  0  0  0  0  0  0  0  0  0
  1  2  1  0
  2  3  1  0
  2  4  1  0
  4  5  1  0
  5  6  1  0
  6  7  1  0
  7  8  1  6
  8  9  1  0
  7 10  1  0
 10 11  1  0
 11 12  2  0
 11 13  1  0
 13 14  1  0
 14 15  1  0
 15 16  1  0
 16 17  1  0
 17 18  2  0
 17 19  2  0
 17 20  1  0
 20 21  1  0
 21 22  1  0
 22 23  1  0
 23 24  1  0
 24 25  1  0
 16 26  1  0
 26 27  1  0
  7  2  1  0
 27 13  1  0
 25 20  1  0
M  END
>  <energy_score>  (1772) 
-12.432471

>  <inchikey>  (1772) 
UYQCRARRSHVBIM-UHFFFAOYSA-N

>  <smiles>  (1772) 
CC1(C)OCCC1(CN)OC(=O)C1CCN(S(=O)(=O)N2CCCCC2)CC1

>  <ref_pdb>  (1772) 
A0875a

>  <alias>  (1772) 
UYQCRARRSHVBIM-UHFFFAOYSA-N-P439-P87-P439-601505

>  <HIPPO Pose ID>  (1772) 
508111

>  <name>  (1772) 
UYQCRARRSHVBIM-UHFFFAOYSA-N-P439-P87-P439-601505

>  <HIPPO Compound ID>  (1772) 
314591

>  <ref_mols>  (1772) 
A4706a,A0875a

>  <distance_score>  (1772) 
1.61173

>  <inspiration_score>  (1772) 
None

$$$$
QEALSLMLYDMSEE-UHFFFAOYSA-N-P439-P87-P439-601505
     RDKit          3D

 27 30  0  0  0  0  0  0  0  0999 V2000
    6.7612   14.5019   21.2148 C   0  0  0  0  0  0  0  0  0  0  0  0
    7.7211   15.3382   22.0438 C   0  0  1  0  0  0  0  0  0  0  0  0
    7.3215   15.1199   23.4176 O   0  0  0  0  0  0  0  0  0  0  0  0
    7.1223   13.8460   23.8413 C   0  0  0  0  0  0  0  0  0  0  0  0
    7.4837   12.8276   23.2504 O   0  0  0  0  0  0  0  0  0  0  0  0
    6.2850   13.7819   25.1089 C   0  0  0  0  0  0  0  0  0  0  0  0
    6.4066   12.3617   25.6743 C   0  0  0  0  0  0  0  0  0  0  0  0
    7.8667   12.0653   26.0139 C   0  0  0  0  0  0  0  0  0  0  0  0
    8.5376   13.2087   26.6804 N   0  0  0  0  0  0  0  0  0  0  0  0
    9.8545   14.0013   25.9942 S   0  0  0  0  0  0  0  0  0  0  0  0
    9.5105   14.4533   24.6822 O   0  0  0  0  0  0  0  0  0  0  0  0
   10.3065   14.9544   26.9783 O   0  0  0  0  0  0  0  0  0  0  0  0
   11.1125   12.9208   25.8104 N   0  0  0  0  0  0  0  0  0  0  0  0
   12.2993   13.5963   25.2134 C   0  0  0  0  0  0  0  0  0  0  0  0
   13.5783   12.9144   25.6933 C   0  0  0  0  0  0  0  0  0  0  0  0
   13.6035   11.4792   25.2234 C   0  0  0  0  0  0  0  0  0  0  0  0
   12.2433   10.8951   25.4910 C   0  0  0  0  0  0  0  0  0  0  0  0
   10.9684   11.6513   25.1128 C   0  0  0  0  0  0  0  0  0  0  0  0
    7.5487   14.1657   27.2715 C   0  0  0  0  0  0  0  0  0  0  0  0
    6.6940   14.8007   26.1772 C   0  0  0  0  0  0  0  0  0  0  0  0
    9.2255   15.2156   21.6282 C   0  0  1  0  0  0  0  0  0  0  0  0
    9.5391   15.6229   20.1492 C   0  0  0  0  0  0  0  0  0  0  0  0
   10.8763   14.9420   19.8517 C   0  0  0  0  0  0  0  0  0  0  0  0
   11.2310   14.3758   21.2206 C   0  0  1  0  0  0  0  0  0  0  0  0
   11.4418   15.5394   22.1654 C   0  0  0  0  0  0  0  0  0  0  0  0
   10.1156   16.0363   22.4095 O   0  0  0  0  0  0  0  0  0  0  0  0
    9.8912   13.8699   21.7087 C   0  0  0  0  0  0  0  0  0  0  0  0
  2  1  1  6
  2  3  1  0
  3  4  1  0
  4  5  2  0
  4  6  1  0
  6  7  1  0
  7  8  1  0
  8  9  1  0
  9 10  1  0
 10 11  2  0
 10 12  2  0
 10 13  1  0
 13 14  1  0
 14 15  1  0
 15 16  1  0
 16 17  1  0
 17 18  1  0
  9 19  1  0
 19 20  1  0
  2 21  1  0
 21 22  1  6
 22 23  1  0
 24 23  1  6
 24 25  1  0
 25 26  1  0
 24 27  1  0
 20  6  1  0
 26 21  1  0
 18 13  1  0
 27 21  1  0
M  END
>  <energy_score>  (1773) 
-16.131841

>  <inchikey>  (1773) 
QEALSLMLYDMSEE-UHFFFAOYSA-N

>  <smiles>  (1773) 
CC(OC(=O)C1CCN(S(=O)(=O)N2CCCCC2)CC1)C12CCC(CO1)C2

>  <ref_pdb>  (1773) 
A0875a

>  <alias>  (1773) 
QEALSLMLYDMSEE-UHFFFAOYSA-N-P439-P87-P439-601505

>  <HIPPO Pose ID>  (1773) 
508123

>  <name>  (1773) 
QEALSLMLYDMSEE-UHFFFAOYSA-N-P439-P87-P439-601505

>  <HIPPO Compound ID>  (1773) 
314597

>  <ref_mols>  (1773) 
A4706a,A0875a

>  <distance_score>  (1773) 
1.313513

>  <inspiration_score>  (1773) 
None

$$$$
RVJYCJUVOGAPIK-UHFFFAOYSA-N-P439-P87-P439-601505
     RDKit          3D

 27 28  0  0  0  0  0  0  0  0999 V2000
    8.3586   17.6152   20.9300 C   0  0  0  0  0  0  0  0  0  0  0  0
    9.0759   16.7327   21.6126 C   0  0  0  0  0  0  0  0  0  0  0  0
    8.6281   15.5238   22.4107 C   0  0  1  0  0  0  0  0  0  0  0  0
    7.1986   15.3989   22.4380 O   0  0  0  0  0  0  0  0  0  0  0  0
    6.6639   14.2116   22.8173 C   0  0  0  0  0  0  0  0  0  0  0  0
    6.6542   13.2250   22.0840 O   0  0  0  0  0  0  0  0  0  0  0  0
    5.9533   14.1937   24.2018 C   0  0  0  0  0  0  0  0  0  0  0  0
    6.1714   12.8047   24.8839 C   0  0  0  0  0  0  0  0  0  0  0  0
    6.7331   12.7559   26.3070 C   0  0  0  0  0  0  0  0  0  0  0  0
    7.5044   13.9696   26.6585 N   0  0  0  0  0  0  0  0  0  0  0  0
    8.9636   14.2451   25.8624 S   0  0  0  0  0  0  0  0  0  0  0  0
    8.7448   13.8917   24.4945 O   0  0  0  0  0  0  0  0  0  0  0  0
    9.4405   15.5622   26.1966 O   0  0  0  0  0  0  0  0  0  0  0  0
   10.0622   13.1108   26.4215 N   0  0  0  0  0  0  0  0  0  0  0  0
    9.8669   11.8029   25.7561 C   0  0  0  0  0  0  0  0  0  0  0  0
   11.0165   11.3463   24.9184 C   0  0  0  0  0  0  0  0  0  0  0  0
   12.4414   11.7108   25.3292 C   0  0  0  0  0  0  0  0  0  0  0  0
   12.5216   12.6243   26.5172 C   0  0  0  0  0  0  0  0  0  0  0  0
   11.4455   13.6766   26.4030 C   0  0  0  0  0  0  0  0  0  0  0  0
    6.5636   15.1202   26.5604 C   0  0  0  0  0  0  0  0  0  0  0  0
    6.2053   15.4182   25.1050 C   0  0  0  0  0  0  0  0  0  0  0  0
    9.6493   14.3826   22.1397 C   0  0  0  0  0  0  0  0  0  0  0  0
    9.4206   13.1928   22.0110 O   0  0  0  0  0  0  0  0  0  0  0  0
   10.9250   14.8860   22.1415 O   0  0  0  0  0  0  0  0  0  0  0  0
   11.5926   14.6399   20.9042 C   0  0  0  0  0  0  0  0  0  0  0  0
   10.7515   15.0586   19.6962 C   0  0  0  0  0  0  0  0  0  0  0  0
   11.4193   14.7295   18.4059 C   0  0  0  0  0  0  0  0  0  0  0  0
  1  2  2  0
  2  3  1  0
  3  4  1  6
  4  5  1  0
  5  6  2  0
  5  7  1  0
  7  8  1  0
  8  9  1  0
  9 10  1  0
 10 11  1  0
 11 12  2  0
 11 13  2  0
 11 14  1  0
 14 15  1  0
 15 16  1  0
 16 17  1  0
 17 18  1  0
 18 19  1  0
 10 20  1  0
 20 21  1  0
  3 22  1  0
 22 23  2  0
 22 24  1  0
 24 25  1  0
 25 26  1  0
 26 27  1  0
 21  7  1  0
 19 14  1  0
M  END
>  <energy_score>  (1774) 
-26.534199

>  <inchikey>  (1774) 
RVJYCJUVOGAPIK-UHFFFAOYSA-N

>  <smiles>  (1774) 
C=CC(OC(=O)C1CCN(S(=O)(=O)N2CCCCC2)CC1)C(=O)OCCC

>  <ref_pdb>  (1774) 
A0875a

>  <alias>  (1774) 
RVJYCJUVOGAPIK-UHFFFAOYSA-N-P439-P87-P439-601505

>  <HIPPO Pose ID>  (1774) 
508133

>  <name>  (1774) 
RVJYCJUVOGAPIK-UHFFFAOYSA-N-P439-P87-P439-601505

>  <HIPPO Compound ID>  (1774) 
314602

>  <ref_mols>  (1774) 
A4706a,A0875a

>  <distance_score>  (1774) 
1.674789

>  <inspiration_score>  (1774) 
None

$$$$
DAVKXRPFUKSVOE-UHFFFAOYSA-N-P439-P87-P439-601505
     RDKit          3D

 27 28  0  0  0  0  0  0  0  0999 V2000
    7.4528   16.4321   21.7508 C   0  0  0  0  0  0  0  0  0  0  0  0
    8.5101   15.3924   22.0060 C   0  0  1  0  0  0  0  0  0  0  0  0
    7.8762   14.1066   21.8756 O   0  0  0  0  0  0  0  0  0  0  0  0
    7.6899   13.3574   22.9871 C   0  0  0  0  0  0  0  0  0  0  0  0
    8.3349   12.3217   23.1379 O   0  0  0  0  0  0  0  0  0  0  0  0
    6.5846   13.7711   23.9822 C   0  0  0  0  0  0  0  0  0  0  0  0
    6.3211   12.5713   24.9187 C   0  0  0  0  0  0  0  0  0  0  0  0
    7.4735   12.3310   25.8961 C   0  0  0  0  0  0  0  0  0  0  0  0
    8.0562   13.5886   26.3999 N   0  0  0  0  0  0  0  0  0  0  0  0
    9.6143   14.1076   26.0017 S   0  0  0  0  0  0  0  0  0  0  0  0
    9.8854   15.1841   26.9227 O   0  0  0  0  0  0  0  0  0  0  0  0
    9.7102   14.3456   24.5901 O   0  0  0  0  0  0  0  0  0  0  0  0
   10.6607   12.8469   26.3603 N   0  0  0  0  0  0  0  0  0  0  0  0
   12.0126   13.3114   26.8100 C   0  0  0  0  0  0  0  0  0  0  0  0
   13.0999   13.1876   25.7463 C   0  0  0  0  0  0  0  0  0  0  0  0
   13.0693   11.9541   24.8955 C   0  0  0  0  0  0  0  0  0  0  0  0
   12.0466   11.0455   25.4639 C   0  0  0  0  0  0  0  0  0  0  0  0
   10.6930   11.7155   25.3891 C   0  0  0  0  0  0  0  0  0  0  0  0
    7.0620   14.6932   26.3374 C   0  0  0  0  0  0  0  0  0  0  0  0
    6.7427   15.0152   24.8711 C   0  0  0  0  0  0  0  0  0  0  0  0
    9.8254   15.5302   21.1949 C   0  0  2  0  0  0  0  0  0  0  0  0
    9.9006   15.2357   19.7136 C   0  0  0  0  0  0  0  0  0  0  0  0
   10.7436   14.5955   21.7518 O   0  0  0  0  0  0  0  0  0  0  0  0
   11.7426   15.2499   22.4595 C   0  0  0  0  0  0  0  0  0  0  0  0
   11.2146   16.0977   23.3566 F   0  0  0  0  0  0  0  0  0  0  0  0
   12.5313   15.9333   21.6141 F   0  0  0  0  0  0  0  0  0  0  0  0
   12.4675   14.3335   23.1077 F   0  0  0  0  0  0  0  0  0  0  0  0
  2  1  1  6
  2  3  1  0
  3  4  1  0
  4  5  2  0
  4  6  1  0
  6  7  1  0
  7  8  1  0
  8  9  1  0
  9 10  1  0
 10 11  2  0
 10 12  2  0
 10 13  1  0
 13 14  1  0
 14 15  1  0
 15 16  1  0
 16 17  1  0
 17 18  1  0
  9 19  1  0
 19 20  1  0
  2 21  1  0
 21 22  1  6
 21 23  1  0
 23 24  1  0
 24 25  1  0
 24 26  1  0
 24 27  1  0
 20  6  1  0
 18 13  1  0
M  END
>  <energy_score>  (1775) 
-20.789934

>  <inchikey>  (1775) 
DAVKXRPFUKSVOE-UHFFFAOYSA-N

>  <smiles>  (1775) 
CC(OC(=O)C1CCN(S(=O)(=O)N2CCCCC2)CC1)C(C)OC(F)(F)F

>  <ref_pdb>  (1775) 
A0875a

>  <alias>  (1775) 
DAVKXRPFUKSVOE-UHFFFAOYSA-N-P439-P87-P439-601505

>  <HIPPO Pose ID>  (1775) 
508135

>  <name>  (1775) 
DAVKXRPFUKSVOE-UHFFFAOYSA-N-P439-P87-P439-601505

>  <HIPPO Compound ID>  (1775) 
314603

>  <ref_mols>  (1775) 
A4706a,A0875a

>  <distance_score>  (1775) 
1.227663

>  <inspiration_score>  (1775) 
None

$$$$
QPWUKHQPMDVBGA-UHFFFAOYSA-N-P87-P87-P439-601505
     RDKit          3D

 27 28  0  0  0  0  0  0  0  0999 V2000
   16.8272   14.4636   29.5443 C   0  0  0  0  0  0  0  0  0  0  0  0
   17.2042   13.5525   28.5187 O   0  0  0  0  0  0  0  0  0  0  0  0
   16.0692   12.9176   27.9350 C   0  0  0  0  0  0  0  0  0  0  0  0
   16.5421   11.9739   26.8158 C   0  0  1  0  0  0  0  0  0  0  0  0
   17.0521   10.6154   27.2994 C   0  0  0  0  0  0  0  0  0  0  0  0
   18.2200   10.6875   28.2525 C   0  0  0  0  0  0  0  0  0  0  0  0
   17.8634   11.1568   29.4628 F   0  0  0  0  0  0  0  0  0  0  0  0
   19.2247   11.4373   27.7610 F   0  0  0  0  0  0  0  0  0  0  0  0
   18.7111    9.4378   28.4462 F   0  0  0  0  0  0  0  0  0  0  0  0
   15.5469   11.7453   25.7678 O   0  0  0  0  0  0  0  0  0  0  0  0
   14.2825   11.3827   26.1026 C   0  0  0  0  0  0  0  0  0  0  0  0
   13.8805   11.2983   27.2456 O   0  0  0  0  0  0  0  0  0  0  0  0
   13.4394   11.1114   24.8598 C   0  0  0  0  0  0  0  0  0  0  0  0
   13.0426   12.4858   24.3701 C   0  0  0  0  0  0  0  0  0  0  0  0
   11.9150   12.9606   25.2473 C   0  0  0  0  0  0  0  0  0  0  0  0
   10.6643   12.1598   25.0692 N   0  0  0  0  0  0  0  0  0  0  0  0
    9.4368   13.2657   24.7620 S   0  0  0  0  0  0  0  0  0  0  0  0
    9.7865   13.9819   23.5591 O   0  0  0  0  0  0  0  0  0  0  0  0
    9.3875   13.9199   26.0444 O   0  0  0  0  0  0  0  0  0  0  0  0
    7.9562   12.5257   24.5217 N   0  0  0  0  0  0  0  0  0  0  0  0
    7.4593   11.6049   25.5370 C   0  0  0  0  0  0  0  0  0  0  0  0
    6.7392   12.2908   26.6775 C   0  0  0  0  0  0  0  0  0  0  0  0
    5.6085   13.2001   26.2785 C   0  0  0  0  0  0  0  0  0  0  0  0
    5.6742   13.7487   24.8681 C   0  0  0  0  0  0  0  0  0  0  0  0
    6.9069   13.4811   23.9938 C   0  0  0  0  0  0  0  0  0  0  0  0
   10.8335   10.9179   24.3242 C   0  0  0  0  0  0  0  0  0  0  0  0
   12.1391   10.1849   24.8022 C   0  0  0  0  0  0  0  0  0  0  0  0
  1  2  1  0
  2  3  1  0
  4  3  1  1
  4  5  1  0
  5  6  1  0
  6  7  1  0
  6  8  1  0
  6  9  1  0
  4 10  1  0
 10 11  1  0
 11 12  2  0
 11 13  1  0
 13 14  1  0
 14 15  1  0
 15 16  1  0
 16 17  1  0
 17 18  2  0
 17 19  2  0
 17 20  1  0
 20 21  1  0
 21 22  1  0
 22 23  1  0
 23 24  1  0
 24 25  1  0
 16 26  1  0
 26 27  1  0
 27 13  1  0
 25 20  1  0
M  END
>  <energy_score>  (1776) 
-6.949538

>  <inchikey>  (1776) 
QPWUKHQPMDVBGA-UHFFFAOYSA-N

>  <smiles>  (1776) 
COCC(CC(F)(F)F)OC(=O)C1CCN(S(=O)(=O)N2CCCCC2)CC1

>  <ref_pdb>  (1776) 
A0875a

>  <alias>  (1776) 
QPWUKHQPMDVBGA-UHFFFAOYSA-N-P87-P87-P439-601505

>  <HIPPO Pose ID>  (1776) 
508140

>  <name>  (1776) 
QPWUKHQPMDVBGA-UHFFFAOYSA-N-P87-P87-P439-601505

>  <HIPPO Compound ID>  (1776) 
314606

>  <ref_mols>  (1776) 
A4706a,A0875a

>  <distance_score>  (1776) 
1.440201

>  <inspiration_score>  (1776) 
None

$$$$
ZIQIOYROOGNGCZ-UHFFFAOYSA-N-P439-P87-P439-601505
     RDKit          3D

 27 29  0  0  0  0  0  0  0  0999 V2000
   11.3001   14.9853   18.4076 C   0  0  0  0  0  0  0  0  0  0  0  0
   11.0880   15.1678   19.7813 O   0  0  0  0  0  0  0  0  0  0  0  0
    9.7822   15.6522   20.0685 C   0  0  0  0  0  0  0  0  0  0  0  0
    9.3958   15.3259   21.5341 C   0  0  1  0  0  0  0  0  0  0  0  0
    7.9059   15.6794   21.7313 C   0  0  0  0  0  0  0  0  0  0  0  0
    7.3317   15.4653   23.0380 O   0  0  0  0  0  0  0  0  0  0  0  0
    6.6562   14.3100   23.2470 C   0  0  0  0  0  0  0  0  0  0  0  0
    6.6364   13.3575   22.4668 O   0  0  0  0  0  0  0  0  0  0  0  0
    5.8346   14.3264   24.5443 C   0  0  0  0  0  0  0  0  0  0  0  0
    5.7734   12.9064   25.1182 C   0  0  0  0  0  0  0  0  0  0  0  0
    7.1259   12.4819   25.6692 C   0  0  0  0  0  0  0  0  0  0  0  0
    7.7390   13.5050   26.5591 N   0  0  0  0  0  0  0  0  0  0  0  0
    9.2643   14.1249   26.1696 S   0  0  0  0  0  0  0  0  0  0  0  0
    9.2610   14.5246   24.7903 O   0  0  0  0  0  0  0  0  0  0  0  0
    9.6165   15.0837   27.1880 O   0  0  0  0  0  0  0  0  0  0  0  0
   10.3600   12.8236   26.3300 N   0  0  0  0  0  0  0  0  0  0  0  0
   11.7437   13.3877   26.3483 C   0  0  0  0  0  0  0  0  0  0  0  0
   12.8165   12.3262   26.4080 C   0  0  0  0  0  0  0  0  0  0  0  0
   12.6384   11.3868   25.2429 C   0  0  0  0  0  0  0  0  0  0  0  0
   11.2409   10.7478   25.2077 C   0  0  0  0  0  0  0  0  0  0  0  0
   10.1305   11.7474   25.3462 C   0  0  0  0  0  0  0  0  0  0  0  0
    6.7713   14.5852   26.9098 C   0  0  0  0  0  0  0  0  0  0  0  0
    6.2876   15.3011   25.6449 C   0  0  0  0  0  0  0  0  0  0  0  0
    9.7349   13.8927   21.8658 C   0  0  0  0  0  0  0  0  0  0  0  0
   11.1772   13.9110   22.2798 C   0  0  0  0  0  0  0  0  0  0  0  0
   11.3919   15.3309   22.7181 C   0  0  0  0  0  0  0  0  0  0  0  0
   10.2340   16.0972   22.3975 O   0  0  0  0  0  0  0  0  0  0  0  0
  1  2  1  0
  2  3  1  0
  4  3  1  6
  4  5  1  0
  5  6  1  0
  6  7  1  0
  7  8  2  0
  7  9  1  0
  9 10  1  0
 10 11  1  0
 11 12  1  0
 12 13  1  0
 13 14  2  0
 13 15  2  0
 13 16  1  0
 16 17  1  0
 17 18  1  0
 18 19  1  0
 19 20  1  0
 20 21  1  0
 12 22  1  0
 22 23  1  0
  4 24  1  0
 24 25  1  0
 25 26  1  0
 26 27  1  0
 27  4  1  0
 23  9  1  0
 21 16  1  0
M  END
>  <energy_score>  (1777) 
-53.837369

>  <inchikey>  (1777) 
ZIQIOYROOGNGCZ-UHFFFAOYSA-N

>  <smiles>  (1777) 
COCC1(COC(=O)C2CCN(S(=O)(=O)N3CCCCC3)CC2)CCCO1

>  <ref_pdb>  (1777) 
A0875a

>  <alias>  (1777) 
ZIQIOYROOGNGCZ-UHFFFAOYSA-N-P439-P87-P439-601505

>  <HIPPO Pose ID>  (1777) 
508153

>  <name>  (1777) 
ZIQIOYROOGNGCZ-UHFFFAOYSA-N-P439-P87-P439-601505

>  <HIPPO Compound ID>  (1777) 
314612

>  <ref_mols>  (1777) 
A4706a,A0875a

>  <distance_score>  (1777) 
1.498264

>  <inspiration_score>  (1777) 
None

$$$$
CJTQFZASJRRAST-UHFFFAOYSA-N-P87-P87-P439-601505
     RDKit          3D

 27 28  0  0  0  0  0  0  0  0999 V2000
   16.6451   15.4722   28.1287 C   0  0  0  0  0  0  0  0  0  0  0  0
   15.7600   14.3493   28.0407 O   0  0  0  0  0  0  0  0  0  0  0  0
   16.1557   13.3059   27.2548 C   0  0  0  0  0  0  0  0  0  0  0  0
   17.1441   13.2743   26.5386 O   0  0  0  0  0  0  0  0  0  0  0  0
   15.2211   12.1195   27.4881 C   0  0  1  0  0  0  0  0  0  0  0  0
   13.9702   12.0425   26.7342 O   0  0  0  0  0  0  0  0  0  0  0  0
   13.9047   12.0662   25.3757 C   0  0  0  0  0  0  0  0  0  0  0  0
   14.8309   11.7974   24.6275 O   0  0  0  0  0  0  0  0  0  0  0  0
   12.5188   12.5284   24.8830 C   0  0  0  0  0  0  0  0  0  0  0  0
   12.6521   13.1849   23.5158 C   0  0  0  0  0  0  0  0  0  0  0  0
   11.3789   13.7417   22.9271 C   0  0  0  0  0  0  0  0  0  0  0  0
   10.1830   12.9841   23.3688 N   0  0  0  0  0  0  0  0  0  0  0  0
    9.2124   13.8874   24.3765 S   0  0  0  0  0  0  0  0  0  0  0  0
    9.0868   15.1575   23.7062 O   0  0  0  0  0  0  0  0  0  0  0  0
    9.7586   13.7690   25.7117 O   0  0  0  0  0  0  0  0  0  0  0  0
    7.7431   13.0944   24.3426 N   0  0  0  0  0  0  0  0  0  0  0  0
    7.4774   11.9836   25.2459 C   0  0  0  0  0  0  0  0  0  0  0  0
    6.6990   12.4148   26.4639 C   0  0  0  0  0  0  0  0  0  0  0  0
    5.4981   13.2954   26.1975 C   0  0  0  0  0  0  0  0  0  0  0  0
    5.4177   13.9832   24.8366 C   0  0  0  0  0  0  0  0  0  0  0  0
    6.5583   13.8164   23.8241 C   0  0  0  0  0  0  0  0  0  0  0  0
   10.4671   11.5776   23.6260 C   0  0  0  0  0  0  0  0  0  0  0  0
   11.4389   11.4382   24.7954 C   0  0  0  0  0  0  0  0  0  0  0  0
   16.0619   10.8322   27.6722 C   0  0  0  0  0  0  0  0  0  0  0  0
   17.3540   11.0251   28.4805 C   0  0  0  0  0  0  0  0  0  0  0  0
   16.3667   10.0604   26.3971 C   0  0  0  0  0  0  0  0  0  0  0  0
   15.3024   10.0214   28.4767 F   0  0  0  0  0  0  0  0  0  0  0  0
  1  2  1  0
  2  3  1  0
  3  4  2  0
  3  5  1  0
  5  6  1  6
  6  7  1  0
  7  8  2  0
  7  9  1  0
  9 10  1  0
 10 11  1  0
 11 12  1  0
 12 13  1  0
 13 14  2  0
 13 15  2  0
 13 16  1  0
 16 17  1  0
 17 18  1  0
 18 19  1  0
 19 20  1  0
 20 21  1  0
 12 22  1  0
 22 23  1  0
  5 24  1  0
 24 25  1  0
 24 26  1  0
 24 27  1  0
 23  9  1  0
 21 16  1  0
M  END
>  <energy_score>  (1778) 
-40.431635

>  <inchikey>  (1778) 
CJTQFZASJRRAST-UHFFFAOYSA-N

>  <smiles>  (1778) 
COC(=O)C(OC(=O)C1CCN(S(=O)(=O)N2CCCCC2)CC1)C(C)(C)F

>  <ref_pdb>  (1778) 
A0875a

>  <alias>  (1778) 
CJTQFZASJRRAST-UHFFFAOYSA-N-P87-P87-P439-601505

>  <HIPPO Pose ID>  (1778) 
508162

>  <name>  (1778) 
CJTQFZASJRRAST-UHFFFAOYSA-N-P87-P87-P439-601505

>  <HIPPO Compound ID>  (1778) 
314617

>  <ref_mols>  (1778) 
A4706a,A0875a

>  <distance_score>  (1778) 
1.531576

>  <inspiration_score>  (1778) 
None

$$$$
NPZSFOIBMDVILE-UHFFFAOYSA-N-P439-P87-P439-601505
     RDKit          3D

 27 31  0  0  0  0  0  0  0  0999 V2000
    6.4981   13.0338   22.1469 O   0  0  0  0  0  0  0  0  0  0  0  0
    6.8556   13.7370   23.0865 C   0  0  0  0  0  0  0  0  0  0  0  0
    7.7058   14.7759   22.9664 O   0  0  0  0  0  0  0  0  0  0  0  0
    8.3870   14.9368   21.7028 C   0  0  1  0  0  0  0  0  0  0  0  0
    9.1285   16.2616   21.7852 C   0  0  2  0  0  0  0  0  0  0  0  0
    9.8958   16.5771   20.5213 C   0  0  0  0  0  0  0  0  0  0  0  0
   11.0835   15.5803   20.5841 C   0  0  2  0  0  0  0  0  0  0  0  0
   10.9052   14.5250   19.5675 C   0  0  0  0  0  0  0  0  0  0  0  0
    9.7433   13.8639   20.0608 O   0  0  0  0  0  0  0  0  0  0  0  0
    9.5967   14.0098   21.4724 C   0  0  1  0  0  0  0  0  0  0  0  0
   10.8150   14.8201   21.8768 C   0  0  2  0  0  0  0  0  0  0  0  0
   10.2947   15.9199   22.7296 C   0  0  0  0  0  0  0  0  0  0  0  0
    6.4325   13.4248   24.5319 C   0  0  0  0  0  0  0  0  0  0  0  0
    6.9932   12.0280   24.9098 C   0  0  0  0  0  0  0  0  0  0  0  0
    7.9002   11.8811   26.1254 C   0  0  0  0  0  0  0  0  0  0  0  0
    8.4558   13.1679   26.5764 N   0  0  0  0  0  0  0  0  0  0  0  0
    9.7155   13.7928   25.6613 S   0  0  0  0  0  0  0  0  0  0  0  0
    9.4325   13.4527   24.2958 O   0  0  0  0  0  0  0  0  0  0  0  0
    9.9429   15.1510   26.0870 O   0  0  0  0  0  0  0  0  0  0  0  0
   11.0813   12.8674   26.0903 N   0  0  0  0  0  0  0  0  0  0  0  0
   11.9301   12.6105   24.8881 C   0  0  0  0  0  0  0  0  0  0  0  0
   13.0543   11.6651   25.2689 C   0  0  0  0  0  0  0  0  0  0  0  0
   13.9619   12.2888   26.2970 C   0  0  0  0  0  0  0  0  0  0  0  0
   13.1598   12.7636   27.4931 C   0  0  0  0  0  0  0  0  0  0  0  0
   11.8788   13.5331   27.1541 C   0  0  0  0  0  0  0  0  0  0  0  0
    7.3389   14.1123   26.8408 C   0  0  0  0  0  0  0  0  0  0  0  0
    6.6747   14.5560   25.5459 C   0  0  0  0  0  0  0  0  0  0  0  0
  1  2  2  0
  2  3  1  0
  4  3  1  1
  4  5  1  0
  5  6  1  6
  7  6  1  6
  7  8  1  0
  8  9  1  0
 10  9  1  6
 10 11  1  0
 11 12  1  1
  2 13  1  0
 13 14  1  0
 14 15  1  0
 15 16  1  0
 16 17  1  0
 17 18  2  0
 17 19  2  0
 17 20  1  0
 20 21  1  0
 21 22  1  0
 22 23  1  0
 23 24  1  0
 24 25  1  0
 16 26  1  0
 26 27  1  0
 10  4  1  0
 27 13  1  0
 12  5  1  0
 25 20  1  0
 11  7  1  0
M  END
>  <energy_score>  (1779) 
-41.79337

>  <inchikey>  (1779) 
NPZSFOIBMDVILE-UHFFFAOYSA-N

>  <smiles>  (1779) 
O=C(OC1C2CC3COC1C3C2)C1CCN(S(=O)(=O)N2CCCCC2)CC1

>  <ref_pdb>  (1779) 
A0875a

>  <alias>  (1779) 
NPZSFOIBMDVILE-UHFFFAOYSA-N-P439-P87-P439-601505

>  <HIPPO Pose ID>  (1779) 
508175

>  <name>  (1779) 
NPZSFOIBMDVILE-UHFFFAOYSA-N-P439-P87-P439-601505

>  <HIPPO Compound ID>  (1779) 
314623

>  <ref_mols>  (1779) 
A4706a,A0875a

>  <distance_score>  (1779) 
1.593209

>  <inspiration_score>  (1779) 
None

$$$$
UDOKXQSPYWGYKL-UHFFFAOYSA-N-P439-P87-P439-601505
     RDKit          3D

 27 29  0  0  0  0  0  0  0  0999 V2000
   12.3996   15.1977   20.9797 N   0  0  0  0  0  0  0  0  0  0  0  0
   11.6675   14.1259   21.6380 C   0  0  0  0  0  0  0  0  0  0  0  0
   10.1631   14.4052   21.6578 C   0  0  2  0  0  0  0  0  0  0  0  0
    9.4520   13.2659   22.2646 O   0  0  0  0  0  0  0  0  0  0  0  0
    8.1000   13.3749   22.5420 C   0  0  0  0  0  0  0  0  0  0  0  0
    7.1864   13.4265   21.7331 O   0  0  0  0  0  0  0  0  0  0  0  0
    7.8826   13.3149   24.0100 C   0  0  0  0  0  0  0  0  0  0  0  0
    7.7660   11.9031   24.5615 C   0  0  0  0  0  0  0  0  0  0  0  0
    7.9923   11.9107   26.0656 C   0  0  0  0  0  0  0  0  0  0  0  0
    8.0681   13.2870   26.5727 N   0  0  0  0  0  0  0  0  0  0  0  0
    9.5012   14.1464   26.7730 S   0  0  0  0  0  0  0  0  0  0  0  0
    9.4428   14.6483   28.1217 O   0  0  0  0  0  0  0  0  0  0  0  0
    9.7100   15.0759   25.6922 O   0  0  0  0  0  0  0  0  0  0  0  0
   10.7805   13.0102   26.7027 N   0  0  0  0  0  0  0  0  0  0  0  0
   11.9772   13.6214   27.3665 C   0  0  0  0  0  0  0  0  0  0  0  0
   13.2072   12.7209   27.2796 C   0  0  0  0  0  0  0  0  0  0  0  0
   13.5651   12.3274   25.8602 C   0  0  0  0  0  0  0  0  0  0  0  0
   12.4876   12.7793   24.8995 C   0  0  0  0  0  0  0  0  0  0  0  0
   11.1028   12.4119   25.3770 C   0  0  0  0  0  0  0  0  0  0  0  0
    6.8913   14.1139   26.1661 C   0  0  0  0  0  0  0  0  0  0  0  0
    6.8167   14.2109   24.6324 C   0  0  0  0  0  0  0  0  0  0  0  0
    9.6411   14.6120   20.2460 C   0  0  0  0  0  0  0  0  0  0  0  0
    9.8075   15.9438   19.5675 C   0  0  0  0  0  0  0  0  0  0  0  0
    9.2828   17.1220   20.3779 C   0  0  0  0  0  0  0  0  0  0  0  0
    8.2753   16.7856   21.4725 C   0  0  0  0  0  0  0  0  0  0  0  0
    8.6963   16.0070   22.5798 O   0  0  0  0  0  0  0  0  0  0  0  0
   10.0363   15.6053   22.5698 C   0  0  0  0  0  0  0  0  0  0  0  0
  1  2  1  0
  3  2  1  6
  3  4  1  0
  4  5  1  0
  5  6  2  0
  5  7  1  0
  7  8  1  0
  8  9  1  0
  9 10  1  0
 10 11  1  0
 11 12  2  0
 11 13  2  0
 11 14  1  0
 14 15  1  0
 15 16  1  0
 16 17  1  0
 17 18  1  0
 18 19  1  0
 10 20  1  0
 20 21  1  0
  3 22  1  0
 22 23  1  0
 23 24  1  0
 24 25  1  0
 25 26  1  0
 26 27  1  0
 27  3  1  0
 21  7  1  0
 19 14  1  0
M  END
>  <energy_score>  (1780) 
-9.751169

>  <inchikey>  (1780) 
UDOKXQSPYWGYKL-UHFFFAOYSA-N

>  <smiles>  (1780) 
NCC1(OC(=O)C2CCN(S(=O)(=O)N3CCCCC3)CC2)CCCCOC1

>  <ref_pdb>  (1780) 
A0875a

>  <alias>  (1780) 
UDOKXQSPYWGYKL-UHFFFAOYSA-N-P439-P87-P439-601505

>  <HIPPO Pose ID>  (1780) 
508179

>  <name>  (1780) 
UDOKXQSPYWGYKL-UHFFFAOYSA-N-P439-P87-P439-601505

>  <HIPPO Compound ID>  (1780) 
314625

>  <ref_mols>  (1780) 
A4706a,A0875a

>  <distance_score>  (1780) 
1.989943

>  <inspiration_score>  (1780) 
None

$$$$
YISIEPDXODKGRX-UHFFFAOYSA-N-P439-P87-P439-601505
     RDKit          3D

 27 29  0  0  0  0  0  0  0  0999 V2000
   10.6096   14.1031   18.2113 N   0  0  0  0  0  0  0  0  0  0  0  0
   11.6097   14.8894   18.8830 C   0  0  0  0  0  0  0  0  0  0  0  0
   11.2026   15.2380   20.2925 C   0  0  2  0  0  0  0  0  0  0  0  0
   11.2384   14.0931   21.2898 C   0  0  0  0  0  0  0  0  0  0  0  0
   11.2252   14.6200   22.6205 O   0  0  0  0  0  0  0  0  0  0  0  0
   10.4374   15.8109   22.6726 C   0  0  0  0  0  0  0  0  0  0  0  0
    9.3350   15.9496   21.6072 C   0  0  2  0  0  0  0  0  0  0  0  0
    8.1513   14.9728   21.7678 C   0  0  0  0  0  0  0  0  0  0  0  0
    7.5077   15.0189   23.0579 O   0  0  0  0  0  0  0  0  0  0  0  0
    6.7700   13.9032   23.3285 C   0  0  0  0  0  0  0  0  0  0  0  0
    6.5289   13.0247   22.5014 O   0  0  0  0  0  0  0  0  0  0  0  0
    6.2196   13.8261   24.7568 C   0  0  0  0  0  0  0  0  0  0  0  0
    6.3575   12.3946   25.3232 C   0  0  0  0  0  0  0  0  0  0  0  0
    7.7215   12.0224   25.9160 C   0  0  0  0  0  0  0  0  0  0  0  0
    8.4331   13.2051   26.4753 N   0  0  0  0  0  0  0  0  0  0  0  0
    9.6855   13.8009   25.5085 S   0  0  0  0  0  0  0  0  0  0  0  0
    9.3390   13.4495   24.1581 O   0  0  0  0  0  0  0  0  0  0  0  0
    9.9381   15.1609   25.9202 O   0  0  0  0  0  0  0  0  0  0  0  0
   11.0360   12.8630   25.9782 N   0  0  0  0  0  0  0  0  0  0  0  0
   11.8015   13.5233   27.0741 C   0  0  0  0  0  0  0  0  0  0  0  0
   13.0818   12.7659   27.4480 C   0  0  0  0  0  0  0  0  0  0  0  0
   13.9136   12.2804   26.2793 C   0  0  0  0  0  0  0  0  0  0  0  0
   13.0261   11.6580   25.2328 C   0  0  0  0  0  0  0  0  0  0  0  0
   11.9313   12.6255   24.8115 C   0  0  0  0  0  0  0  0  0  0  0  0
    7.4737   14.2423   26.9421 C   0  0  0  0  0  0  0  0  0  0  0  0
    6.7249   14.8673   25.7649 C   0  0  0  0  0  0  0  0  0  0  0  0
    9.8927   15.8522   20.2773 O   0  0  0  0  0  0  0  0  0  0  0  0
  1  2  1  0
  3  2  1  6
  3  4  1  0
  4  5  1  0
  5  6  1  0
  6  7  1  0
  7  8  1  1
  8  9  1  0
  9 10  1  0
 10 11  2  0
 10 12  1  0
 12 13  1  0
 13 14  1  0
 14 15  1  0
 15 16  1  0
 16 17  2  0
 16 18  2  0
 16 19  1  0
 19 20  1  0
 20 21  1  0
 21 22  1  0
 22 23  1  0
 23 24  1  0
 15 25  1  0
 25 26  1  0
  7 27  1  0
 27  3  1  0
 26 12  1  0
 24 19  1  0
M  END
>  <energy_score>  (1781) 
-58.769432

>  <inchikey>  (1781) 
YISIEPDXODKGRX-UHFFFAOYSA-N

>  <smiles>  (1781) 
NCC1COCC(COC(=O)C2CCN(S(=O)(=O)N3CCCCC3)CC2)O1

>  <ref_pdb>  (1781) 
A0875a

>  <alias>  (1781) 
YISIEPDXODKGRX-UHFFFAOYSA-N-P439-P87-P439-601505

>  <HIPPO Pose ID>  (1781) 
508185

>  <name>  (1781) 
YISIEPDXODKGRX-UHFFFAOYSA-N-P439-P87-P439-601505

>  <HIPPO Compound ID>  (1781) 
314628

>  <ref_mols>  (1781) 
A4706a,A0875a

>  <distance_score>  (1781) 
1.631023

>  <inspiration_score>  (1781) 
None

$$$$
ZJNUMTRBEOKOPJ-UHFFFAOYSA-N-P439-P87-P439-601505
     RDKit          3D

 27 30  0  0  0  0  0  0  0  0999 V2000
    6.9565   12.9890   22.2377 O   0  0  0  0  0  0  0  0  0  0  0  0
    7.4244   13.8203   23.0172 C   0  0  0  0  0  0  0  0  0  0  0  0
    8.4610   14.6475   22.6933 O   0  0  0  0  0  0  0  0  0  0  0  0
    9.1713   14.2373   21.4791 C   0  0  1  0  0  0  0  0  0  0  0  0
    8.5694   14.8062   20.2392 C   0  0  0  0  0  0  0  0  0  0  0  0
    9.9165   14.5588   19.4844 C   0  0  0  0  0  0  0  0  0  0  0  0
   10.5101   14.8082   20.8580 C   0  0  2  0  0  0  0  0  0  0  0  0
   11.7067   14.1595   21.4665 C   0  0  0  0  0  0  0  0  0  0  0  0
   12.1326   15.0112   22.6624 C   0  0  0  0  0  0  0  0  0  0  0  0
   11.0677   16.0203   23.0631 C   0  0  0  0  0  0  0  0  0  0  0  0
   10.6362   16.8683   21.8918 C   0  0  0  0  0  0  0  0  0  0  0  0
   10.8232   16.1754   20.7375 O   0  0  0  0  0  0  0  0  0  0  0  0
    6.8413   13.9288   24.4290 C   0  0  0  0  0  0  0  0  0  0  0  0
    6.7978   12.5343   25.1026 C   0  0  0  0  0  0  0  0  0  0  0  0
    8.0991   12.0918   25.7857 C   0  0  0  0  0  0  0  0  0  0  0  0
    8.8270   13.2289   26.4311 N   0  0  0  0  0  0  0  0  0  0  0  0
   10.2640   13.7069   25.6738 S   0  0  0  0  0  0  0  0  0  0  0  0
   10.0528   13.4447   24.2752 O   0  0  0  0  0  0  0  0  0  0  0  0
   10.5955   15.0219   26.1638 O   0  0  0  0  0  0  0  0  0  0  0  0
   11.4427   12.6071   26.2181 N   0  0  0  0  0  0  0  0  0  0  0  0
   11.8626   11.6567   25.1817 C   0  0  0  0  0  0  0  0  0  0  0  0
   13.2470   10.9991   25.3028 C   0  0  0  0  0  0  0  0  0  0  0  0
   14.2145   11.5040   26.3266 C   0  0  0  0  0  0  0  0  0  0  0  0
   13.9023   12.9477   26.5135 C   0  0  0  0  0  0  0  0  0  0  0  0
   12.5089   13.1207   27.0964 C   0  0  0  0  0  0  0  0  0  0  0  0
    7.9003   14.3717   26.7005 C   0  0  0  0  0  0  0  0  0  0  0  0
    7.4040   14.9811   25.3851 C   0  0  0  0  0  0  0  0  0  0  0  0
  1  2  2  0
  2  3  1  0
  4  3  1  1
  4  5  1  0
  5  6  1  0
  7  6  1  6
  7  8  1  0
  8  9  1  0
  9 10  1  0
 10 11  1  0
 11 12  1  0
  2 13  1  0
 13 14  1  0
 14 15  1  0
 15 16  1  0
 16 17  1  0
 17 18  2  0
 17 19  2  0
 17 20  1  0
 20 21  1  0
 21 22  1  0
 22 23  1  0
 23 24  1  0
 24 25  1  0
 16 26  1  0
 26 27  1  0
  7  4  1  0
 27 13  1  0
 12  7  1  0
 25 20  1  0
M  END
>  <energy_score>  (1782) 
-3.659604

>  <inchikey>  (1782) 
ZJNUMTRBEOKOPJ-UHFFFAOYSA-N

>  <smiles>  (1782) 
O=C(OC1CCC12CCCCO2)C1CCN(S(=O)(=O)N2CCCCC2)CC1

>  <ref_pdb>  (1782) 
A0875a

>  <alias>  (1782) 
ZJNUMTRBEOKOPJ-UHFFFAOYSA-N-P439-P87-P439-601505

>  <HIPPO Pose ID>  (1782) 
508215

>  <name>  (1782) 
ZJNUMTRBEOKOPJ-UHFFFAOYSA-N-P439-P87-P439-601505

>  <HIPPO Compound ID>  (1782) 
314643

>  <ref_mols>  (1782) 
A4706a,A0875a

>  <distance_score>  (1782) 
1.503587

>  <inspiration_score>  (1782) 
None

$$$$
BBQYRYHYAHHTFJ-UHFFFAOYSA-N-P439-P87-P439-601505
     RDKit          3D

 27 29  0  0  0  0  0  0  0  0999 V2000
   12.1351   15.1375   21.1732 C   0  0  0  0  0  0  0  0  0  0  0  0
   10.8203   14.8837   21.8711 C   0  0  0  0  0  0  0  0  0  0  0  0
   11.1081   14.1386   23.1358 C   0  0  0  0  0  0  0  0  0  0  0  0
   10.0513   16.1626   22.0971 C   0  0  0  0  0  0  0  0  0  0  0  0
    8.7115   15.9958   21.4058 C   0  0  2  0  0  0  0  0  0  0  0  0
    7.7565   15.6538   22.4510 O   0  0  0  0  0  0  0  0  0  0  0  0
    7.0636   14.4925   22.5885 C   0  0  0  0  0  0  0  0  0  0  0  0
    6.5978   13.7780   21.7177 O   0  0  0  0  0  0  0  0  0  0  0  0
    7.0550   14.1676   24.0590 C   0  0  0  0  0  0  0  0  0  0  0  0
    6.6908   12.7714   24.5263 C   0  0  0  0  0  0  0  0  0  0  0  0
    7.0298   12.5993   26.0135 C   0  0  0  0  0  0  0  0  0  0  0  0
    7.6029   13.8234   26.6335 N   0  0  0  0  0  0  0  0  0  0  0  0
    9.1967   14.3996   26.5923 S   0  0  0  0  0  0  0  0  0  0  0  0
    9.4339   15.1784   25.4000 O   0  0  0  0  0  0  0  0  0  0  0  0
    9.3959   15.0591   27.8591 O   0  0  0  0  0  0  0  0  0  0  0  0
   10.2944   13.1407   26.5509 N   0  0  0  0  0  0  0  0  0  0  0  0
   10.0345   12.0037   25.6926 C   0  0  0  0  0  0  0  0  0  0  0  0
   11.2130   11.3528   25.0491 C   0  0  0  0  0  0  0  0  0  0  0  0
   12.5930   11.6493   25.5829 C   0  0  0  0  0  0  0  0  0  0  0  0
   12.7637   13.0952   25.8655 C   0  0  0  0  0  0  0  0  0  0  0  0
   11.6882   13.6047   26.8036 C   0  0  0  0  0  0  0  0  0  0  0  0
    6.6130   14.9335   26.4543 C   0  0  0  0  0  0  0  0  0  0  0  0
    6.4208   15.2318   24.9588 C   0  0  0  0  0  0  0  0  0  0  0  0
    9.0604   14.9184   20.4090 C   0  0  1  0  0  0  0  0  0  0  0  0
    9.7384   15.4357   19.1117 C   0  0  0  0  0  0  0  0  0  0  0  0
   10.7716   14.5505   18.5720 N   0  0  0  0  0  0  0  0  0  0  0  0
    9.9610   14.0533   21.1058 O   0  0  0  0  0  0  0  0  0  0  0  0
  1  2  1  0
  2  3  1  0
  2  4  1  0
  4  5  1  0
  5  6  1  1
  6  7  1  0
  7  8  2  0
  7  9  1  0
  9 10  1  0
 10 11  1  0
 11 12  1  0
 12 13  1  0
 13 14  2  0
 13 15  2  0
 13 16  1  0
 16 17  1  0
 17 18  1  0
 18 19  1  0
 19 20  1  0
 20 21  1  0
 12 22  1  0
 22 23  1  0
  5 24  1  0
 24 25  1  6
 25 26  1  0
 24 27  1  0
 27  2  1  0
 23  9  1  0
 21 16  1  0
M  END
>  <energy_score>  (1783) 
-20.356485

>  <inchikey>  (1783) 
BBQYRYHYAHHTFJ-UHFFFAOYSA-N

>  <smiles>  (1783) 
CC1(C)CC(OC(=O)C2CCN(S(=O)(=O)N3CCCCC3)CC2)C(CN)O1

>  <ref_pdb>  (1783) 
A0875a

>  <alias>  (1783) 
BBQYRYHYAHHTFJ-UHFFFAOYSA-N-P439-P87-P439-601505

>  <HIPPO Pose ID>  (1783) 
508217

>  <name>  (1783) 
BBQYRYHYAHHTFJ-UHFFFAOYSA-N-P439-P87-P439-601505

>  <HIPPO Compound ID>  (1783) 
314644

>  <ref_mols>  (1783) 
A4706a,A0875a

>  <distance_score>  (1783) 
1.652002

>  <inspiration_score>  (1783) 
None

$$$$
FJEBPDQZWBCJLE-UHFFFAOYSA-N-P439-P87-P439-601505
     RDKit          3D

 28 31  0  0  0  0  0  0  0  0999 V2000
    6.5053   13.1321   22.0313 O   0  0  0  0  0  0  0  0  0  0  0  0
    6.7763   14.0519   22.7894 C   0  0  0  0  0  0  0  0  0  0  0  0
    7.1201   15.3078   22.4034 O   0  0  0  0  0  0  0  0  0  0  0  0
    8.3605   15.5424   21.6834 C   0  0  2  0  0  0  0  0  0  0  0  0
    8.5699   14.6830   20.4687 C   0  0  0  0  0  0  0  0  0  0  0  0
    9.7503   15.1695   19.6319 C   0  0  0  0  0  0  0  0  0  0  0  0
   10.7555   15.7259   20.4564 O   0  0  0  0  0  0  0  0  0  0  0  0
   10.8547   15.0906   21.7057 C   0  0  2  0  0  0  0  0  0  0  0  0
   12.0311   15.6385   22.4311 C   0  0  0  0  0  0  0  0  0  0  0  0
   12.2209   14.5820   23.4761 C   0  0  0  0  0  0  0  0  0  0  0  0
   11.9688   13.3370   22.8605 O   0  0  0  0  0  0  0  0  0  0  0  0
   11.2638   13.6275   21.6574 C   0  0  0  0  0  0  0  0  0  0  0  0
    9.5813   15.2854   22.5409 C   0  0  0  0  0  0  0  0  0  0  0  0
    6.8748   13.8996   24.2839 C   0  0  0  0  0  0  0  0  0  0  0  0
    6.4917   12.5573   24.9016 C   0  0  0  0  0  0  0  0  0  0  0  0
    7.0414   12.4493   26.3359 C   0  0  0  0  0  0  0  0  0  0  0  0
    7.5626   13.7470   26.8187 N   0  0  0  0  0  0  0  0  0  0  0  0
    9.1527   14.2985   26.7127 S   0  0  0  0  0  0  0  0  0  0  0  0
    9.4508   14.8714   27.9997 O   0  0  0  0  0  0  0  0  0  0  0  0
    9.3226   15.1291   25.5413 O   0  0  0  0  0  0  0  0  0  0  0  0
   10.1847   12.9596   26.5115 N   0  0  0  0  0  0  0  0  0  0  0  0
   10.0644   12.3216   25.1904 C   0  0  0  0  0  0  0  0  0  0  0  0
   10.9335   11.1102   25.1024 C   0  0  0  0  0  0  0  0  0  0  0  0
   12.4071   11.4700   25.3443 C   0  0  0  0  0  0  0  0  0  0  0  0
   12.6542   12.3425   26.5579 C   0  0  0  0  0  0  0  0  0  0  0  0
   11.5981   13.4106   26.7808 C   0  0  0  0  0  0  0  0  0  0  0  0
    6.5433   14.8170   26.6223 C   0  0  0  0  0  0  0  0  0  0  0  0
    6.3185   15.0518   25.1213 C   0  0  0  0  0  0  0  0  0  0  0  0
  1  2  2  0
  2  3  1  0
  4  3  1  1
  4  5  1  0
  5  6  1  0
  6  7  1  0
  7  8  1  0
  8  9  1  1
  9 10  1  0
 10 11  1  0
 11 12  1  0
  8 13  1  0
  2 14  1  0
 14 15  1  0
 15 16  1  0
 16 17  1  0
 17 18  1  0
 18 19  2  0
 18 20  2  0
 18 21  1  0
 21 22  1  0
 22 23  1  0
 23 24  1  0
 24 25  1  0
 25 26  1  0
 17 27  1  0
 27 28  1  0
 13  4  1  0
 28 14  1  0
 12  8  1  0
 26 21  1  0
M  END
>  <energy_score>  (1784) 
-24.651179

>  <inchikey>  (1784) 
FJEBPDQZWBCJLE-UHFFFAOYSA-N

>  <smiles>  (1784) 
O=C(OC1CCOC2(CCOC2)C1)C1CCN(S(=O)(=O)N2CCCCC2)CC1

>  <ref_pdb>  (1784) 
A0875a

>  <alias>  (1784) 
FJEBPDQZWBCJLE-UHFFFAOYSA-N-P439-P87-P439-601505

>  <HIPPO Pose ID>  (1784) 
508227

>  <name>  (1784) 
FJEBPDQZWBCJLE-UHFFFAOYSA-N-P439-P87-P439-601505

>  <HIPPO Compound ID>  (1784) 
314649

>  <ref_mols>  (1784) 
A4706a,A0875a

>  <distance_score>  (1784) 
1.63253

>  <inspiration_score>  (1784) 
None

$$$$
JAXBFXQIDQAUGA-UHFFFAOYSA-N-P439-P87-P439-601505
     RDKit          3D

 28 31  0  0  0  0  0  0  0  0999 V2000
    4.8818   15.1362   23.4916 O   0  0  0  0  0  0  0  0  0  0  0  0
    5.9028   14.9414   24.1361 C   0  0  0  0  0  0  0  0  0  0  0  0
    7.1597   15.2745   23.7389 O   0  0  0  0  0  0  0  0  0  0  0  0
    7.3110   15.5745   22.3524 C   0  0  2  0  0  0  0  0  0  0  0  0
    6.8629   14.4102   21.4837 C   0  0  0  0  0  0  0  0  0  0  0  0
    7.6675   14.3912   20.2901 O   0  0  0  0  0  0  0  0  0  0  0  0
    8.8180   15.0359   20.6156 C   0  0  0  0  0  0  0  0  0  0  0  0
    9.9744   14.9709   19.8586 C   0  0  0  0  0  0  0  0  0  0  0  0
   11.1491   15.1177   20.5479 C   0  0  0  0  0  0  0  0  0  0  0  0
   11.0475   15.3871   21.9040 C   0  0  0  0  0  0  0  0  0  0  0  0
   12.2606   14.6292   23.0435 Br  0  0  0  0  0  0  0  0  0  0  0  0
    9.8861   15.7736   22.5391 C   0  0  0  0  0  0  0  0  0  0  0  0
    8.7264   15.5618   21.8801 C   0  0  0  0  0  0  0  0  0  0  0  0
    5.9332   14.1860   25.4570 C   0  0  0  0  0  0  0  0  0  0  0  0
    6.3877   12.7310   25.1754 C   0  0  0  0  0  0  0  0  0  0  0  0
    7.4738   12.1421   26.0696 C   0  0  0  0  0  0  0  0  0  0  0  0
    8.3855   13.1847   26.5761 N   0  0  0  0  0  0  0  0  0  0  0  0
    9.5480   13.8052   25.5192 S   0  0  0  0  0  0  0  0  0  0  0  0
    9.0984   13.5201   24.1813 O   0  0  0  0  0  0  0  0  0  0  0  0
    9.8802   15.1324   25.9756 O   0  0  0  0  0  0  0  0  0  0  0  0
   10.8618   12.8163   25.8103 N   0  0  0  0  0  0  0  0  0  0  0  0
   11.0631   11.7168   24.8731 C   0  0  0  0  0  0  0  0  0  0  0  0
   12.2294   10.8880   25.3682 C   0  0  0  0  0  0  0  0  0  0  0  0
   13.5779   11.5234   25.4112 C   0  0  0  0  0  0  0  0  0  0  0  0
   13.4102   12.9369   25.9213 C   0  0  0  0  0  0  0  0  0  0  0  0
   12.0420   13.3187   26.5433 C   0  0  0  0  0  0  0  0  0  0  0  0
    7.6233   14.1707   27.3776 C   0  0  0  0  0  0  0  0  0  0  0  0
    6.7120   14.9975   26.4980 C   0  0  0  0  0  0  0  0  0  0  0  0
  1  2  2  0
  2  3  1  0
  4  3  1  1
  4  5  1  0
  5  6  1  0
  6  7  1  0
  7  8  2  0
  8  9  1  0
  9 10  2  0
 10 11  1  0
 10 12  1  0
 12 13  2  0
  2 14  1  0
 14 15  1  0
 15 16  1  0
 16 17  1  0
 17 18  1  0
 18 19  2  0
 18 20  2  0
 18 21  1  0
 21 22  1  0
 22 23  1  0
 23 24  1  0
 24 25  1  0
 25 26  1  0
 17 27  1  0
 27 28  1  0
 13  4  1  0
 28 14  1  0
 13  7  1  0
 26 21  1  0
M  END
>  <energy_score>  (1785) 
-4.721712

>  <inchikey>  (1785) 
JAXBFXQIDQAUGA-UHFFFAOYSA-N

>  <smiles>  (1785) 
O=C(OC1COc2ccc(Br)cc21)C1CCN(S(=O)(=O)N2CCCCC2)CC1

>  <ref_pdb>  (1785) 
A0875a

>  <alias>  (1785) 
JAXBFXQIDQAUGA-UHFFFAOYSA-N-P439-P87-P439-601505

>  <HIPPO Pose ID>  (1785) 
508235

>  <name>  (1785) 
JAXBFXQIDQAUGA-UHFFFAOYSA-N-P439-P87-P439-601505

>  <HIPPO Compound ID>  (1785) 
314653

>  <ref_mols>  (1785) 
A4706a,A0875a

>  <distance_score>  (1785) 
1.797548

>  <inspiration_score>  (1785) 
None

$$$$
YCYCSHAWMLXAGP-UHFFFAOYSA-N-P439-P87-P439-601505
     RDKit          3D

 28 30  0  0  0  0  0  0  0  0999 V2000
   10.8897   14.8580   18.6426 C   0  0  0  0  0  0  0  0  0  0  0  0
   10.2338   15.8803   19.3658 O   0  0  0  0  0  0  0  0  0  0  0  0
   10.1950   15.7875   20.7934 C   0  0  0  0  0  0  0  0  0  0  0  0
    9.8228   17.0570   21.3242 O   0  0  0  0  0  0  0  0  0  0  0  0
    8.6860   17.7041   20.8017 C   0  0  0  0  0  0  0  0  0  0  0  0
   11.6245   15.6325   21.3653 C   0  0  0  0  0  0  0  0  0  0  0  0
   11.5511   15.2147   22.8062 C   0  0  0  0  0  0  0  0  0  0  0  0
   10.8078   14.0339   23.0230 O   0  0  0  0  0  0  0  0  0  0  0  0
   10.1501   13.5600   21.8728 C   0  0  0  0  0  0  0  0  0  0  0  0
    9.2497   14.6330   21.2601 C   0  0  1  0  0  0  0  0  0  0  0  0
    8.2434   15.0252   22.2296 O   0  0  0  0  0  0  0  0  0  0  0  0
    7.4548   13.9947   22.6475 C   0  0  0  0  0  0  0  0  0  0  0  0
    6.7136   13.3309   21.9372 O   0  0  0  0  0  0  0  0  0  0  0  0
    7.7035   13.7145   24.0976 C   0  0  0  0  0  0  0  0  0  0  0  0
    7.5647   12.2511   24.5076 C   0  0  0  0  0  0  0  0  0  0  0  0
    8.1932   12.0201   25.8800 C   0  0  0  0  0  0  0  0  0  0  0  0
    8.5535   13.2906   26.5243 N   0  0  0  0  0  0  0  0  0  0  0  0
   10.0652   14.0334   26.5004 S   0  0  0  0  0  0  0  0  0  0  0  0
   10.2082   14.5156   27.8538 O   0  0  0  0  0  0  0  0  0  0  0  0
   10.1446   14.9962   25.4336 O   0  0  0  0  0  0  0  0  0  0  0  0
   11.2538   12.8637   26.2850 N   0  0  0  0  0  0  0  0  0  0  0  0
   11.4710   12.1555   25.0001 C   0  0  0  0  0  0  0  0  0  0  0  0
   12.4283   11.0206   25.3610 C   0  0  0  0  0  0  0  0  0  0  0  0
   13.8536   11.4622   25.5621 C   0  0  0  0  0  0  0  0  0  0  0  0
   13.8051   12.8737   26.1074 C   0  0  0  0  0  0  0  0  0  0  0  0
   12.5601   13.1450   26.9877 C   0  0  0  0  0  0  0  0  0  0  0  0
    7.3977   14.2435   26.5311 C   0  0  0  0  0  0  0  0  0  0  0  0
    7.0259   14.6396   25.0949 C   0  0  0  0  0  0  0  0  0  0  0  0
  1  2  1  0
  2  3  1  0
  3  4  1  0
  4  5  1  0
  3  6  1  0
  6  7  1  0
  7  8  1  0
  8  9  1  0
  9 10  1  0
 10 11  1  1
 11 12  1  0
 12 13  2  0
 12 14  1  0
 14 15  1  0
 15 16  1  0
 16 17  1  0
 17 18  1  0
 18 19  2  0
 18 20  2  0
 18 21  1  0
 21 22  1  0
 22 23  1  0
 23 24  1  0
 24 25  1  0
 25 26  1  0
 17 27  1  0
 27 28  1  0
 10  3  1  0
 28 14  1  0
 26 21  1  0
M  END
>  <energy_score>  (1786) 
-9.050266

>  <inchikey>  (1786) 
YCYCSHAWMLXAGP-UHFFFAOYSA-N

>  <smiles>  (1786) 
COC1(OC)CCOCC1OC(=O)C1CCN(S(=O)(=O)N2CCCCC2)CC1

>  <ref_pdb>  (1786) 
A0875a

>  <alias>  (1786) 
YCYCSHAWMLXAGP-UHFFFAOYSA-N-P439-P87-P439-601505

>  <HIPPO Pose ID>  (1786) 
508239

>  <name>  (1786) 
YCYCSHAWMLXAGP-UHFFFAOYSA-N-P439-P87-P439-601505

>  <HIPPO Compound ID>  (1786) 
314655

>  <ref_mols>  (1786) 
A4706a,A0875a

>  <distance_score>  (1786) 
1.267055

>  <inspiration_score>  (1786) 
None

$$$$
ZESWLTWNCDXEBE-UHFFFAOYSA-N-P87-P87-P439-601505
     RDKit          3D

 28 30  0  0  0  0  0  0  0  0999 V2000
   14.6507   11.1006   30.7537 C   0  0  0  0  0  0  0  0  0  0  0  0
   15.2119   11.9392   29.6065 C   0  0  0  0  0  0  0  0  0  0  0  0
   16.1430   13.0009   30.1777 C   0  0  0  0  0  0  0  0  0  0  0  0
   15.8327   11.0158   28.7076 O   0  0  0  0  0  0  0  0  0  0  0  0
   16.3759   11.4626   27.4549 C   0  0  2  0  0  0  0  0  0  0  0  0
   15.5116   12.4876   26.7017 C   0  0  0  0  0  0  0  0  0  0  0  0
   14.0752   12.2860   26.6777 O   0  0  0  0  0  0  0  0  0  0  0  0
   13.5441   11.4776   25.7321 C   0  0  0  0  0  0  0  0  0  0  0  0
   14.0536   10.4441   25.3212 O   0  0  0  0  0  0  0  0  0  0  0  0
   12.2506   12.0422   25.1721 C   0  0  0  0  0  0  0  0  0  0  0  0
   12.7348   12.7894   23.9540 C   0  0  0  0  0  0  0  0  0  0  0  0
   11.6965   13.1534   22.9423 C   0  0  0  0  0  0  0  0  0  0  0  0
   10.3948   12.6604   23.3811 N   0  0  0  0  0  0  0  0  0  0  0  0
    9.3743   13.7312   24.1232 S   0  0  0  0  0  0  0  0  0  0  0  0
   10.2254   14.7967   24.5651 O   0  0  0  0  0  0  0  0  0  0  0  0
    8.5447   13.0286   25.0754 O   0  0  0  0  0  0  0  0  0  0  0  0
    8.4675   14.1692   22.7836 N   0  0  0  0  0  0  0  0  0  0  0  0
    9.0849   14.1205   21.4510 C   0  0  0  0  0  0  0  0  0  0  0  0
    9.8596   15.3361   21.0466 C   0  0  0  0  0  0  0  0  0  0  0  0
    9.9128   16.4262   22.0593 C   0  0  0  0  0  0  0  0  0  0  0  0
    8.5812   16.6466   22.7595 C   0  0  0  0  0  0  0  0  0  0  0  0
    7.6816   15.4173   22.8360 C   0  0  0  0  0  0  0  0  0  0  0  0
   10.3241   11.2452   23.6056 C   0  0  0  0  0  0  0  0  0  0  0  0
   11.1749   10.9666   24.8214 C   0  0  0  0  0  0  0  0  0  0  0  0
   16.6401   10.2174   26.6189 C   0  0  0  0  0  0  0  0  0  0  0  0
   17.9174    9.6731   27.2124 C   0  0  0  0  0  0  0  0  0  0  0  0
   18.7121   10.8163   27.5316 O   0  0  0  0  0  0  0  0  0  0  0  0
   17.8331   11.9576   27.6020 C   0  0  0  0  0  0  0  0  0  0  0  0
  1  2  1  0
  2  3  1  0
  2  4  1  0
  4  5  1  0
  5  6  1  6
  6  7  1  0
  7  8  1  0
  8  9  2  0
  8 10  1  0
 10 11  1  0
 11 12  1  0
 12 13  1  0
 13 14  1  0
 14 15  2  0
 14 16  2  0
 14 17  1  0
 17 18  1  0
 18 19  1  0
 19 20  1  0
 20 21  1  0
 21 22  1  0
 13 23  1  0
 23 24  1  0
  5 25  1  0
 25 26  1  0
 26 27  1  0
 27 28  1  0
 28  5  1  0
 24 10  1  0
 22 17  1  0
M  END
>  <energy_score>  (1787) 
-19.963651

>  <inchikey>  (1787) 
ZESWLTWNCDXEBE-UHFFFAOYSA-N

>  <smiles>  (1787) 
CC(C)OC1(COC(=O)C2CCN(S(=O)(=O)N3CCCCC3)CC2)CCOC1

>  <ref_pdb>  (1787) 
A0875a

>  <alias>  (1787) 
ZESWLTWNCDXEBE-UHFFFAOYSA-N-P87-P87-P439-601505

>  <HIPPO Pose ID>  (1787) 
508240

>  <name>  (1787) 
ZESWLTWNCDXEBE-UHFFFAOYSA-N-P87-P87-P439-601505

>  <HIPPO Compound ID>  (1787) 
314656

>  <ref_mols>  (1787) 
A4706a,A0875a

>  <distance_score>  (1787) 
1.750225

>  <inspiration_score>  (1787) 
None

$$$$
NEWTVCAFUNWVCQ-UHFFFAOYSA-N-P439-P87-P439-601505
     RDKit          3D

 28 30  0  0  0  0  0  0  0  0999 V2000
   18.2521   10.9474   30.3699 C   0  0  0  0  0  0  0  0  0  0  0  0
   17.1579   10.3629   29.4272 C   0  0  0  0  0  0  0  0  0  0  0  0
   16.9251    8.9344   29.9903 C   0  0  0  0  0  0  0  0  0  0  0  0
   17.8551   10.2275   28.0422 C   0  0  0  0  0  0  0  0  0  0  0  0
   17.1377    9.4240   27.0561 N   0  0  0  0  0  0  0  0  0  0  0  0
   15.8067   11.2651   29.4014 C   0  0  2  0  0  0  0  0  0  0  0  0
   14.9635   11.1607   28.1866 O   0  0  0  0  0  0  0  0  0  0  0  0
   15.1664   12.0459   27.1745 C   0  0  0  0  0  0  0  0  0  0  0  0
   16.2504   12.5490   26.9216 O   0  0  0  0  0  0  0  0  0  0  0  0
   13.9055   12.4749   26.4170 C   0  0  0  0  0  0  0  0  0  0  0  0
   12.9516   13.0397   27.4524 C   0  0  0  0  0  0  0  0  0  0  0  0
   11.6996   13.7086   26.9089 C   0  0  0  0  0  0  0  0  0  0  0  0
   11.4884   13.3805   25.4885 N   0  0  0  0  0  0  0  0  0  0  0  0
   10.0226   14.0276   24.9252 S   0  0  0  0  0  0  0  0  0  0  0  0
   10.0773   15.4412   25.1719 O   0  0  0  0  0  0  0  0  0  0  0  0
    8.9594   13.2208   25.4727 O   0  0  0  0  0  0  0  0  0  0  0  0
   10.1103   13.8012   23.2590 N   0  0  0  0  0  0  0  0  0  0  0  0
   11.3986   14.1796   22.6057 C   0  0  0  0  0  0  0  0  0  0  0  0
   11.3672   15.5763   22.0339 C   0  0  0  0  0  0  0  0  0  0  0  0
   10.2973   15.7206   20.9645 C   0  0  0  0  0  0  0  0  0  0  0  0
    9.2065   14.6719   21.1025 C   0  0  0  0  0  0  0  0  0  0  0  0
    8.9074   14.3507   22.5541 C   0  0  0  0  0  0  0  0  0  0  0  0
   11.6875   11.9619   25.2084 C   0  0  0  0  0  0  0  0  0  0  0  0
   13.1683   11.5641   25.4367 C   0  0  0  0  0  0  0  0  0  0  0  0
   16.0246   12.7476   29.7862 C   0  0  0  0  0  0  0  0  0  0  0  0
   15.9139   12.8124   31.2993 C   0  0  0  0  0  0  0  0  0  0  0  0
   15.3038   11.5926   31.7262 O   0  0  0  0  0  0  0  0  0  0  0  0
   14.8368   10.9186   30.5565 C   0  0  0  0  0  0  0  0  0  0  0  0
  1  2  1  0
  2  3  1  0
  2  4  1  0
  4  5  1  0
  2  6  1  0
  6  7  1  6
  7  8  1  0
  8  9  2  0
  8 10  1  0
 10 11  1  0
 11 12  1  0
 12 13  1  0
 13 14  1  0
 14 15  2  0
 14 16  2  0
 14 17  1  0
 17 18  1  0
 18 19  1  0
 19 20  1  0
 20 21  1  0
 21 22  1  0
 13 23  1  0
 23 24  1  0
  6 25  1  0
 25 26  1  0
 26 27  1  0
 27 28  1  0
 28  6  1  0
 24 10  1  0
 22 17  1  0
M  END
>  <energy_score>  (1788) 
-72.790997

>  <inchikey>  (1788) 
NEWTVCAFUNWVCQ-UHFFFAOYSA-N

>  <smiles>  (1788) 
CC(C)(CN)C1(OC(=O)C2CCN(S(=O)(=O)N3CCCCC3)CC2)CCOC1

>  <ref_pdb>  (1788) 
A0875a

>  <alias>  (1788) 
NEWTVCAFUNWVCQ-UHFFFAOYSA-N-P439-P87-P439-601505

>  <HIPPO Pose ID>  (1788) 
508243

>  <name>  (1788) 
NEWTVCAFUNWVCQ-UHFFFAOYSA-N-P439-P87-P439-601505

>  <HIPPO Compound ID>  (1788) 
314657

>  <ref_mols>  (1788) 
A4706a,A0875a

>  <distance_score>  (1788) 
1.971309

>  <inspiration_score>  (1788) 
None

$$$$
RONPSQXNQWPDJX-UHFFFAOYSA-N-P439-P87-P439-601505
     RDKit          3D

 28 30  0  0  0  0  0  0  0  0999 V2000
    4.4596   13.6961   20.8050 C   0  0  0  0  0  0  0  0  0  0  0  0
    5.8109   14.1127   21.0647 O   0  0  0  0  0  0  0  0  0  0  0  0
    5.8842   15.2593   21.7864 C   0  0  0  0  0  0  0  0  0  0  0  0
    4.8940   15.9513   22.0241 O   0  0  0  0  0  0  0  0  0  0  0  0
    7.2746   15.5650   22.3756 C   0  0  1  0  0  0  0  0  0  0  0  0
    6.9934   15.2531   23.7810 O   0  0  0  0  0  0  0  0  0  0  0  0
    6.4748   14.0148   24.0449 C   0  0  0  0  0  0  0  0  0  0  0  0
    6.5070   13.0524   23.2794 O   0  0  0  0  0  0  0  0  0  0  0  0
    5.7630   13.9464   25.3866 C   0  0  0  0  0  0  0  0  0  0  0  0
    5.7614   12.4797   25.8450 C   0  0  0  0  0  0  0  0  0  0  0  0
    7.1817   11.9671   26.0825 C   0  0  0  0  0  0  0  0  0  0  0  0
    8.0241   13.0123   26.7137 N   0  0  0  0  0  0  0  0  0  0  0  0
    9.3109   13.6639   25.8517 S   0  0  0  0  0  0  0  0  0  0  0  0
    9.0053   13.6612   24.4526 O   0  0  0  0  0  0  0  0  0  0  0  0
    9.7245   14.8650   26.5373 O   0  0  0  0  0  0  0  0  0  0  0  0
   10.5504   12.5323   26.0162 N   0  0  0  0  0  0  0  0  0  0  0  0
   11.8618   13.2408   25.9426 C   0  0  0  0  0  0  0  0  0  0  0  0
   12.8546   12.5430   25.0531 C   0  0  0  0  0  0  0  0  0  0  0  0
   12.9222   11.0897   25.4434 C   0  0  0  0  0  0  0  0  0  0  0  0
   11.5550   10.3819   25.2765 C   0  0  0  0  0  0  0  0  0  0  0  0
   10.4102   11.3623   25.0946 C   0  0  0  0  0  0  0  0  0  0  0  0
    7.2187   14.0223   27.4546 C   0  0  0  0  0  0  0  0  0  0  0  0
    6.3670   14.8313   26.4824 C   0  0  0  0  0  0  0  0  0  0  0  0
    8.6205   14.9647   21.8521 C   0  0  0  0  0  0  0  0  0  0  0  0
    9.0160   15.3412   20.4252 C   0  0  0  0  0  0  0  0  0  0  0  0
   10.4910   14.9773   20.2552 C   0  0  0  0  0  0  0  0  0  0  0  0
   11.0311   14.8961   21.6805 C   0  0  0  0  0  0  0  0  0  0  0  0
    9.9097   15.5117   22.5042 C   0  0  0  0  0  0  0  0  0  0  0  0
  1  2  1  0
  2  3  1  0
  3  4  2  0
  3  5  1  0
  5  6  1  1
  6  7  1  0
  7  8  2  0
  7  9  1  0
  9 10  1  0
 10 11  1  0
 11 12  1  0
 12 13  1  0
 13 14  2  0
 13 15  2  0
 13 16  1  0
 16 17  1  0
 17 18  1  0
 18 19  1  0
 19 20  1  0
 20 21  1  0
 12 22  1  0
 22 23  1  0
  5 24  1  0
 24 25  1  0
 25 26  1  0
 26 27  1  0
 27 28  1  0
 23  9  1  0
 28 24  1  0
 21 16  1  0
M  END
>  <energy_score>  (1789) 
-44.657083

>  <inchikey>  (1789) 
RONPSQXNQWPDJX-UHFFFAOYSA-N

>  <smiles>  (1789) 
COC(=O)C(OC(=O)C1CCN(S(=O)(=O)N2CCCCC2)CC1)C1CCCC1

>  <ref_pdb>  (1789) 
A0875a

>  <alias>  (1789) 
RONPSQXNQWPDJX-UHFFFAOYSA-N-P439-P87-P439-601505

>  <HIPPO Pose ID>  (1789) 
508251

>  <name>  (1789) 
RONPSQXNQWPDJX-UHFFFAOYSA-N-P439-P87-P439-601505

>  <HIPPO Compound ID>  (1789) 
314661

>  <ref_mols>  (1789) 
A4706a,A0875a

>  <distance_score>  (1789) 
1.639039

>  <inspiration_score>  (1789) 
None

$$$$
CPBJEQNMBIFOJJ-UHFFFAOYSA-N-P439-P87-P439-601505
     RDKit          3D

 28 29  0  0  0  0  0  0  0  0999 V2000
   18.5589   12.6414   32.0754 C   0  0  0  0  0  0  0  0  0  0  0  0
   17.6670   13.0791   30.9309 C   0  0  0  0  0  0  0  0  0  0  0  0
   17.9335   12.2381   29.8119 O   0  0  0  0  0  0  0  0  0  0  0  0
   17.1412   12.5507   28.6564 C   0  0  0  0  0  0  0  0  0  0  0  0
   17.9665   12.8975   27.5512 O   0  0  0  0  0  0  0  0  0  0  0  0
   18.8980   13.9489   27.7879 C   0  0  0  0  0  0  0  0  0  0  0  0
   20.2779   13.3754   28.0522 C   0  0  0  0  0  0  0  0  0  0  0  0
   16.2894   11.2834   28.2693 C   0  0  0  0  0  0  0  0  0  0  0  0
   17.2761   10.1232   28.0000 C   0  0  0  0  0  0  0  0  0  0  0  0
   15.3895   10.9494   29.4736 C   0  0  0  0  0  0  0  0  0  0  0  0
   15.4565   11.3635   27.0357 O   0  0  0  0  0  0  0  0  0  0  0  0
   14.5344   12.3480   26.8477 C   0  0  0  0  0  0  0  0  0  0  0  0
   14.3780   13.2684   27.6378 O   0  0  0  0  0  0  0  0  0  0  0  0
   13.6751   12.1215   25.5438 C   0  0  0  0  0  0  0  0  0  0  0  0
   13.0965   13.3926   24.9695 C   0  0  0  0  0  0  0  0  0  0  0  0
   11.9685   13.9644   25.8210 C   0  0  0  0  0  0  0  0  0  0  0  0
   10.7930   13.0843   25.8056 N   0  0  0  0  0  0  0  0  0  0  0  0
    9.3836   13.9208   25.4045 S   0  0  0  0  0  0  0  0  0  0  0  0
    9.1123   13.7331   24.0017 O   0  0  0  0  0  0  0  0  0  0  0  0
    9.5080   15.2421   25.9743 O   0  0  0  0  0  0  0  0  0  0  0  0
    8.2512   13.1066   26.3440 N   0  0  0  0  0  0  0  0  0  0  0  0
    7.8029   11.7831   25.8695 C   0  0  0  0  0  0  0  0  0  0  0  0
    6.2995   11.7192   25.7210 C   0  0  0  0  0  0  0  0  0  0  0  0
    5.7862   12.9508   24.9868 C   0  0  0  0  0  0  0  0  0  0  0  0
    6.1360   14.2309   25.7462 C   0  0  0  0  0  0  0  0  0  0  0  0
    7.1483   13.9693   26.8541 C   0  0  0  0  0  0  0  0  0  0  0  0
   11.0686   11.7767   25.2076 C   0  0  0  0  0  0  0  0  0  0  0  0
   12.4409   11.2763   25.7477 C   0  0  0  0  0  0  0  0  0  0  0  0
  1  2  1  0
  2  3  1  0
  3  4  1  0
  4  5  1  0
  5  6  1  0
  6  7  1  0
  4  8  1  0
  8  9  1  0
  8 10  1  0
  8 11  1  0
 11 12  1  0
 12 13  2  0
 12 14  1  0
 14 15  1  0
 15 16  1  0
 16 17  1  0
 17 18  1  0
 18 19  2  0
 18 20  2  0
 18 21  1  0
 21 22  1  0
 22 23  1  0
 23 24  1  0
 24 25  1  0
 25 26  1  0
 17 27  1  0
 27 28  1  0
 28 14  1  0
 26 21  1  0
M  END
>  <energy_score>  (1790) 
-97.116554

>  <inchikey>  (1790) 
CPBJEQNMBIFOJJ-UHFFFAOYSA-N

>  <smiles>  (1790) 
CCOC(OCC)C(C)(C)OC(=O)C1CCN(S(=O)(=O)N2CCCCC2)CC1

>  <ref_pdb>  (1790) 
A0875a

>  <alias>  (1790) 
CPBJEQNMBIFOJJ-UHFFFAOYSA-N-P439-P87-P439-601505

>  <HIPPO Pose ID>  (1790) 
508281

>  <name>  (1790) 
CPBJEQNMBIFOJJ-UHFFFAOYSA-N-P439-P87-P439-601505

>  <HIPPO Compound ID>  (1790) 
314676

>  <ref_mols>  (1790) 
A4706a,A0875a

>  <distance_score>  (1790) 
1.929144

>  <inspiration_score>  (1790) 
None

$$$$
BGEQXHIKLQXALN-UHFFFAOYSA-N-P87-P87-P439-601505
     RDKit          3D

 28 31  0  0  0  0  0  0  0  0999 V2000
   13.3672   12.6915   26.8767 O   0  0  0  0  0  0  0  0  0  0  0  0
   13.8125   11.7149   26.3039 C   0  0  0  0  0  0  0  0  0  0  0  0
   14.8567   10.9630   26.7523 O   0  0  0  0  0  0  0  0  0  0  0  0
   15.7655   11.5223   27.7743 C   0  0  0  0  0  0  0  0  0  0  0  0
   16.7348   10.3925   28.2180 C   0  0  0  0  0  0  0  0  0  0  0  0
   17.7438   10.7937   29.3243 C   0  0  0  0  0  0  0  0  0  0  0  0
   19.1013   10.0981   29.1954 C   0  0  0  0  0  0  0  0  0  0  0  0
   18.9203    8.7218   28.7628 N   0  0  0  0  0  0  0  0  0  0  0  0
   18.3799    8.6375   27.4090 C   0  0  0  0  0  0  0  0  0  0  0  0
   17.4880    9.8171   27.0135 C   0  0  0  0  0  0  0  0  0  0  0  0
   16.4438   12.8653   27.4091 C   0  0  0  0  0  0  0  0  0  0  0  0
   15.9934   13.4863   28.6322 O   0  0  0  0  0  0  0  0  0  0  0  0
   15.2019   12.3248   28.9791 C   0  0  0  0  0  0  0  0  0  0  0  0
   13.3080   11.2217   24.9433 C   0  0  0  0  0  0  0  0  0  0  0  0
   13.0486   12.5004   24.1313 C   0  0  0  0  0  0  0  0  0  0  0  0
   11.7578   13.1654   24.4993 C   0  0  0  0  0  0  0  0  0  0  0  0
   10.6656   12.2098   24.5913 N   0  0  0  0  0  0  0  0  0  0  0  0
    9.2657   12.7621   25.2304 S   0  0  0  0  0  0  0  0  0  0  0  0
    9.6025   13.9688   25.9288 O   0  0  0  0  0  0  0  0  0  0  0  0
    8.6357   11.6708   25.9208 O   0  0  0  0  0  0  0  0  0  0  0  0
    8.2670   13.1411   23.9474 N   0  0  0  0  0  0  0  0  0  0  0  0
    6.8405   13.1915   24.4233 C   0  0  0  0  0  0  0  0  0  0  0  0
    5.9510   14.1677   23.6662 C   0  0  0  0  0  0  0  0  0  0  0  0
    6.3239   14.2011   22.2122 C   0  0  0  0  0  0  0  0  0  0  0  0
    7.7776   14.6266   22.0315 C   0  0  0  0  0  0  0  0  0  0  0  0
    8.6965   14.3284   23.1889 C   0  0  0  0  0  0  0  0  0  0  0  0
   10.8174   10.8319   24.1805 C   0  0  0  0  0  0  0  0  0  0  0  0
   12.0934   10.2259   24.7984 C   0  0  0  0  0  0  0  0  0  0  0  0
  1  2  2  0
  2  3  1  0
  3  4  1  0
  4  5  1  0
  5  6  1  0
  6  7  1  0
  7  8  1  0
  8  9  1  0
  9 10  1  0
  4 11  1  0
 11 12  1  0
 12 13  1  0
  2 14  1  0
 14 15  1  0
 15 16  1  0
 16 17  1  0
 17 18  1  0
 18 19  2  0
 18 20  2  0
 18 21  1  0
 21 22  1  0
 22 23  1  0
 23 24  1  0
 24 25  1  0
 25 26  1  0
 17 27  1  0
 27 28  1  0
 13  4  1  0
 28 14  1  0
 10  5  1  0
 26 21  1  0
M  END
>  <energy_score>  (1791) 
-55.04684

>  <inchikey>  (1791) 
BGEQXHIKLQXALN-UHFFFAOYSA-N

>  <smiles>  (1791) 
O=C(OC1(C2CCNCC2)COC1)C1CCN(S(=O)(=O)N2CCCCC2)CC1

>  <ref_pdb>  (1791) 
A0875a

>  <alias>  (1791) 
BGEQXHIKLQXALN-UHFFFAOYSA-N-P87-P87-P439-601505

>  <HIPPO Pose ID>  (1791) 
508282

>  <name>  (1791) 
BGEQXHIKLQXALN-UHFFFAOYSA-N-P87-P87-P439-601505

>  <HIPPO Compound ID>  (1791) 
314677

>  <ref_mols>  (1791) 
A4706a,A0875a

>  <distance_score>  (1791) 
1.874007

>  <inspiration_score>  (1791) 
None

$$$$
OCNNGOWOCMBIOT-UHFFFAOYSA-N-P439-P87-P439-601505
     RDKit          3D

 28 30  0  0  0  0  0  0  0  0999 V2000
   11.0765   14.5424   18.6805 C   0  0  0  0  0  0  0  0  0  0  0  0
   10.1511   15.4837   19.4139 C   0  0  0  0  0  0  0  0  0  0  0  0
   10.0864   15.4209   20.9555 C   0  0  0  0  0  0  0  0  0  0  0  0
    9.7355   16.7954   21.4900 C   0  0  0  0  0  0  0  0  0  0  0  0
    8.5599   17.5568   20.9394 C   0  0  0  0  0  0  0  0  0  0  0  0
   11.4411   15.0686   21.5803 C   0  0  0  0  0  0  0  0  0  0  0  0
   11.4061   13.6939   21.9205 O   0  0  0  0  0  0  0  0  0  0  0  0
   10.1123   13.2928   22.0300 C   0  0  0  0  0  0  0  0  0  0  0  0
    9.7907   12.2448   22.5807 O   0  0  0  0  0  0  0  0  0  0  0  0
    9.1447   14.3207   21.4812 C   0  0  1  0  0  0  0  0  0  0  0  0
    8.2596   14.6840   22.5778 O   0  0  0  0  0  0  0  0  0  0  0  0
    7.2520   13.8260   22.8500 C   0  0  0  0  0  0  0  0  0  0  0  0
    6.8144   13.0190   22.0346 O   0  0  0  0  0  0  0  0  0  0  0  0
    6.7160   13.8255   24.2808 C   0  0  0  0  0  0  0  0  0  0  0  0
    7.0923   12.5050   24.9811 C   0  0  0  0  0  0  0  0  0  0  0  0
    8.5125   12.4991   25.5459 C   0  0  0  0  0  0  0  0  0  0  0  0
    8.8865   13.7621   26.2269 N   0  0  0  0  0  0  0  0  0  0  0  0
   10.2304   14.6477   25.6951 S   0  0  0  0  0  0  0  0  0  0  0  0
   10.0974   14.9268   24.2968 O   0  0  0  0  0  0  0  0  0  0  0  0
   10.3647   15.7440   26.6243 O   0  0  0  0  0  0  0  0  0  0  0  0
   11.5802   13.6903   25.9004 N   0  0  0  0  0  0  0  0  0  0  0  0
   12.0179   12.7962   24.8261 C   0  0  0  0  0  0  0  0  0  0  0  0
   13.0011   11.7319   25.2964 C   0  0  0  0  0  0  0  0  0  0  0  0
   14.0034   12.2592   26.2828 C   0  0  0  0  0  0  0  0  0  0  0  0
   13.2992   12.8309   27.4928 C   0  0  0  0  0  0  0  0  0  0  0  0
   11.8649   13.2923   27.2571 C   0  0  0  0  0  0  0  0  0  0  0  0
    7.6930   14.6258   26.4870 C   0  0  0  0  0  0  0  0  0  0  0  0
    7.0269   15.0299   25.1706 C   0  0  0  0  0  0  0  0  0  0  0  0
  1  2  1  0
  2  3  1  0
  3  4  1  0
  4  5  1  0
  3  6  1  0
  6  7  1  0
  7  8  1  0
  8  9  2  0
  8 10  1  0
 10 11  1  1
 11 12  1  0
 12 13  2  0
 12 14  1  0
 14 15  1  0
 15 16  1  0
 16 17  1  0
 17 18  1  0
 18 19  2  0
 18 20  2  0
 18 21  1  0
 21 22  1  0
 22 23  1  0
 23 24  1  0
 24 25  1  0
 25 26  1  0
 17 27  1  0
 27 28  1  0
 10  3  1  0
 28 14  1  0
 26 21  1  0
M  END
>  <energy_score>  (1792) 
-65.289592

>  <inchikey>  (1792) 
OCNNGOWOCMBIOT-UHFFFAOYSA-N

>  <smiles>  (1792) 
CCC1(CC)COC(=O)C1OC(=O)C1CCN(S(=O)(=O)N2CCCCC2)CC1

>  <ref_pdb>  (1792) 
A0875a

>  <alias>  (1792) 
OCNNGOWOCMBIOT-UHFFFAOYSA-N-P439-P87-P439-601505

>  <HIPPO Pose ID>  (1792) 
508289

>  <name>  (1792) 
OCNNGOWOCMBIOT-UHFFFAOYSA-N-P439-P87-P439-601505

>  <HIPPO Compound ID>  (1792) 
314680

>  <ref_mols>  (1792) 
A4706a,A0875a

>  <distance_score>  (1792) 
1.506102

>  <inspiration_score>  (1792) 
None

$$$$
UCFKQNGJLOZJNT-UHFFFAOYSA-N-P439-P87-P439-601505
     RDKit          3D

 28 31  0  0  0  0  0  0  0  0999 V2000
   11.1409   12.5343   22.3380 N   0  0  0  0  0  0  0  0  0  0  0  0
   11.6211   13.7270   21.9778 C   0  0  0  0  0  0  0  0  0  0  0  0
   11.9490   14.0191   20.7466 N   0  0  0  0  0  0  0  0  0  0  0  0
   11.6867   15.3577   20.5832 C   0  0  0  0  0  0  0  0  0  0  0  0
   10.9196   15.8281   21.6434 C   0  0  0  0  0  0  0  0  0  0  0  0
    9.3402   15.9800   21.5227 C   0  0  0  0  0  0  0  0  0  0  0  0
    8.6160   15.4750   22.6930 O   0  0  0  0  0  0  0  0  0  0  0  0
    7.3290   15.0480   22.6262 C   0  0  0  0  0  0  0  0  0  0  0  0
    6.5396   15.2629   21.7208 O   0  0  0  0  0  0  0  0  0  0  0  0
    6.9484   14.1295   23.7936 C   0  0  0  0  0  0  0  0  0  0  0  0
    7.9392   12.9583   23.8771 C   0  0  0  0  0  0  0  0  0  0  0  0
    7.9369   12.2154   25.1977 C   0  0  0  0  0  0  0  0  0  0  0  0
    8.0868   13.1728   26.2990 N   0  0  0  0  0  0  0  0  0  0  0  0
    9.5065   14.0818   26.4646 S   0  0  0  0  0  0  0  0  0  0  0  0
    9.3537   14.7863   27.7142 O   0  0  0  0  0  0  0  0  0  0  0  0
    9.7406   14.8377   25.2645 O   0  0  0  0  0  0  0  0  0  0  0  0
   10.7966   12.9762   26.6718 N   0  0  0  0  0  0  0  0  0  0  0  0
   11.9045   13.6765   27.4000 C   0  0  0  0  0  0  0  0  0  0  0  0
   13.1664   12.8268   27.5503 C   0  0  0  0  0  0  0  0  0  0  0  0
   13.6988   12.2766   26.2515 C   0  0  0  0  0  0  0  0  0  0  0  0
   12.7227   12.5247   25.1312 C   0  0  0  0  0  0  0  0  0  0  0  0
   11.2659   12.2523   25.4632 C   0  0  0  0  0  0  0  0  0  0  0  0
    6.8581   14.0364   26.3508 C   0  0  0  0  0  0  0  0  0  0  0  0
    6.7515   14.9113   25.0986 C   0  0  0  0  0  0  0  0  0  0  0  0
    9.0128   15.3788   20.1467 C   0  0  0  0  0  0  0  0  0  0  0  0
    9.2438   16.7011   19.5450 O   0  0  0  0  0  0  0  0  0  0  0  0
    8.9502   17.2994   20.8547 C   0  0  0  0  0  0  0  0  0  0  0  0
   11.5635   15.0681   22.9980 S   0  0  0  0  0  0  0  0  0  0  0  0
  1  2  1  0
  2  3  2  0
  3  4  1  0
  4  5  2  0
  5  6  1  0
  6  7  1  0
  7  8  1  0
  8  9  2  0
  8 10  1  0
 10 11  1  0
 11 12  1  0
 12 13  1  0
 13 14  1  0
 14 15  2  0
 14 16  2  0
 14 17  1  0
 17 18  1  0
 18 19  1  0
 19 20  1  0
 20 21  1  0
 21 22  1  0
 13 23  1  0
 23 24  1  0
  6 25  1  0
 25 26  1  0
 26 27  1  0
  5 28  1  0
 28  2  1  0
 27  6  1  0
 24 10  1  0
 22 17  1  0
M  END
>  <energy_score>  (1793) 
-23.059305

>  <inchikey>  (1793) 
UCFKQNGJLOZJNT-UHFFFAOYSA-N

>  <smiles>  (1793) 
Nc1ncc(C2(OC(=O)C3CCN(S(=O)(=O)N4CCCCC4)CC3)COC2)s1

>  <ref_pdb>  (1793) 
A0875a

>  <alias>  (1793) 
UCFKQNGJLOZJNT-UHFFFAOYSA-N-P439-P87-P439-601505

>  <HIPPO Pose ID>  (1793) 
508297

>  <name>  (1793) 
UCFKQNGJLOZJNT-UHFFFAOYSA-N-P439-P87-P439-601505

>  <HIPPO Compound ID>  (1793) 
314684

>  <ref_mols>  (1793) 
A4706a,A0875a

>  <distance_score>  (1793) 
1.854192

>  <inspiration_score>  (1793) 
None

$$$$
JRQLWJPFNWXMCT-UHFFFAOYSA-N-P439-P87-P439-601505
     RDKit          3D

 28 31  0  0  0  0  0  0  0  0999 V2000
    4.9125   14.9780   21.4541 C   0  0  0  0  0  0  0  0  0  0  0  0
    6.0931   15.1716   21.5965 C   0  0  0  0  0  0  0  0  0  0  0  0
    7.5246   15.2387   22.0092 C   0  0  2  0  0  0  0  0  0  0  0  0
    7.4066   15.0129   23.4262 O   0  0  0  0  0  0  0  0  0  0  0  0
    6.8258   13.8291   23.7569 C   0  0  0  0  0  0  0  0  0  0  0  0
    6.8676   12.8081   23.0722 O   0  0  0  0  0  0  0  0  0  0  0  0
    5.9980   13.8900   25.0311 C   0  0  0  0  0  0  0  0  0  0  0  0
    6.1234   12.5279   25.7212 C   0  0  0  0  0  0  0  0  0  0  0  0
    7.5804   12.2947   26.0969 C   0  0  0  0  0  0  0  0  0  0  0  0
    8.1890   13.5076   26.6942 N   0  0  0  0  0  0  0  0  0  0  0  0
    9.6071   14.1650   26.0625 S   0  0  0  0  0  0  0  0  0  0  0  0
    9.5194   14.3345   24.6433 O   0  0  0  0  0  0  0  0  0  0  0  0
    9.9536   15.2858   26.9011 O   0  0  0  0  0  0  0  0  0  0  0  0
   10.7028   12.9328   26.3515 N   0  0  0  0  0  0  0  0  0  0  0  0
   10.6455   11.7736   25.4251 C   0  0  0  0  0  0  0  0  0  0  0  0
   11.9925   11.0941   25.4388 C   0  0  0  0  0  0  0  0  0  0  0  0
   12.9747   12.0021   24.7858 C   0  0  0  0  0  0  0  0  0  0  0  0
   13.0494   13.2763   25.5661 C   0  0  0  0  0  0  0  0  0  0  0  0
   12.0643   13.3873   26.7245 C   0  0  0  0  0  0  0  0  0  0  0  0
    7.1993   14.4989   27.1727 C   0  0  0  0  0  0  0  0  0  0  0  0
    6.3701   15.0139   26.0050 C   0  0  0  0  0  0  0  0  0  0  0  0
    8.2337   16.5665   21.7434 C   0  0  0  0  0  0  0  0  0  0  0  0
    9.7773   16.4172   21.9723 C   0  0  0  0  0  0  0  0  0  0  0  0
   10.4423   15.1639   21.4063 C   0  0  2  0  0  0  0  0  0  0  0  0
   10.1793   15.0463   19.9346 C   0  0  0  0  0  0  0  0  0  0  0  0
    8.7747   14.7833   19.9379 O   0  0  0  0  0  0  0  0  0  0  0  0
    8.4527   14.2529   21.2469 C   0  0  1  0  0  0  0  0  0  0  0  0
    9.7044   14.0556   21.9129 O   0  0  0  0  0  0  0  0  0  0  0  0
  1  2  3  0
  3  2  1  6
  3  4  1  0
  4  5  1  0
  5  6  2  0
  5  7  1  0
  7  8  1  0
  8  9  1  0
  9 10  1  0
 10 11  1  0
 11 12  2  0
 11 13  2  0
 11 14  1  0
 14 15  1  0
 15 16  1  0
 16 17  1  0
 17 18  1  0
 18 19  1  0
 10 20  1  0
 20 21  1  0
  3 22  1  0
 22 23  1  0
 24 23  1  1
 24 25  1  0
 25 26  1  0
 27 26  1  6
 27 28  1  0
 27  3  1  0
 21  7  1  0
 28 24  1  0
 19 14  1  0
M  END
>  <energy_score>  (1794) 
-30.343496

>  <inchikey>  (1794) 
JRQLWJPFNWXMCT-UHFFFAOYSA-N

>  <smiles>  (1794) 
C#CC1(OC(=O)C2CCN(S(=O)(=O)N3CCCCC3)CC2)CCC2COC1O2

>  <ref_pdb>  (1794) 
A0875a

>  <alias>  (1794) 
JRQLWJPFNWXMCT-UHFFFAOYSA-N-P439-P87-P439-601505

>  <HIPPO Pose ID>  (1794) 
508307

>  <name>  (1794) 
JRQLWJPFNWXMCT-UHFFFAOYSA-N-P439-P87-P439-601505

>  <HIPPO Compound ID>  (1794) 
314689

>  <ref_mols>  (1794) 
A4706a,A0875a

>  <distance_score>  (1794) 
1.54595

>  <inspiration_score>  (1794) 
None

$$$$
BXLZOHUUEXCDAL-UHFFFAOYSA-N-P87-P87-P439-601505
     RDKit          3D

 28 30  0  0  0  0  0  0  0  0999 V2000
   19.8248   14.8241   26.7093 C   0  0  0  0  0  0  0  0  0  0  0  0
   18.6422   13.9836   27.1546 C   0  0  0  0  0  0  0  0  0  0  0  0
   19.1154   13.0399   28.1093 O   0  0  0  0  0  0  0  0  0  0  0  0
   18.1445   12.1693   28.7374 C   0  0  2  0  0  0  0  0  0  0  0  0
   17.4298   11.2724   27.6979 C   0  0  0  0  0  0  0  0  0  0  0  0
   16.4016   12.0051   27.0039 O   0  0  0  0  0  0  0  0  0  0  0  0
   15.5923   11.2508   26.2189 C   0  0  0  0  0  0  0  0  0  0  0  0
   15.7060   10.0464   26.0362 O   0  0  0  0  0  0  0  0  0  0  0  0
   14.4594   12.0899   25.6525 C   0  0  0  0  0  0  0  0  0  0  0  0
   13.6065   12.6043   26.7715 C   0  0  0  0  0  0  0  0  0  0  0  0
   12.2636   13.2119   26.3500 C   0  0  0  0  0  0  0  0  0  0  0  0
   11.8927   13.0277   24.9334 N   0  0  0  0  0  0  0  0  0  0  0  0
   10.3077   13.5693   24.6092 S   0  0  0  0  0  0  0  0  0  0  0  0
   10.3361   14.9747   24.8325 O   0  0  0  0  0  0  0  0  0  0  0  0
    9.3912   12.7347   25.3542 O   0  0  0  0  0  0  0  0  0  0  0  0
   10.0340   13.3588   22.9647 N   0  0  0  0  0  0  0  0  0  0  0  0
   11.1089   13.8319   22.0362 C   0  0  0  0  0  0  0  0  0  0  0  0
   11.2417   15.3388   21.9829 C   0  0  0  0  0  0  0  0  0  0  0  0
    9.8958   16.0422   22.0309 C   0  0  0  0  0  0  0  0  0  0  0  0
    8.7969   15.1047   21.6104 C   0  0  0  0  0  0  0  0  0  0  0  0
    8.6957   13.9328   22.5675 C   0  0  0  0  0  0  0  0  0  0  0  0
   12.1005   11.6578   24.5528 C   0  0  0  0  0  0  0  0  0  0  0  0
   13.5840   11.2711   24.7254 C   0  0  0  0  0  0  0  0  0  0  0  0
   17.1605   12.9797   29.6004 C   0  0  0  0  0  0  0  0  0  0  0  0
   17.8970   13.8037   30.6598 C   0  0  0  0  0  0  0  0  0  0  0  0
   19.1840   13.1304   31.1241 C   0  0  0  0  0  0  0  0  0  0  0  0
   19.0466   11.7161   31.0416 O   0  0  0  0  0  0  0  0  0  0  0  0
   18.9802   11.2512   29.6824 C   0  0  0  0  0  0  0  0  0  0  0  0
  1  2  1  0
  2  3  1  0
  3  4  1  0
  4  5  1  6
  5  6  1  0
  6  7  1  0
  7  8  2  0
  7  9  1  0
  9 10  1  0
 10 11  1  0
 11 12  1  0
 12 13  1  0
 13 14  2  0
 13 15  2  0
 13 16  1  0
 16 17  1  0
 17 18  1  0
 18 19  1  0
 19 20  1  0
 20 21  1  0
 12 22  1  0
 22 23  1  0
  4 24  1  0
 24 25  1  0
 25 26  1  0
 26 27  1  0
 27 28  1  0
 28  4  1  0
 23  9  1  0
 21 16  1  0
M  END
>  <energy_score>  (1795) 
-63.659607

>  <inchikey>  (1795) 
BXLZOHUUEXCDAL-UHFFFAOYSA-N

>  <smiles>  (1795) 
CCOC1(COC(=O)C2CCN(S(=O)(=O)N3CCCCC3)CC2)CCCOC1

>  <ref_pdb>  (1795) 
A0875a

>  <alias>  (1795) 
BXLZOHUUEXCDAL-UHFFFAOYSA-N-P87-P87-P439-601505

>  <HIPPO Pose ID>  (1795) 
508316

>  <name>  (1795) 
BXLZOHUUEXCDAL-UHFFFAOYSA-N-P87-P87-P439-601505

>  <HIPPO Compound ID>  (1795) 
314694

>  <ref_mols>  (1795) 
A4706a,A0875a

>  <distance_score>  (1795) 
1.841649

>  <inspiration_score>  (1795) 
None

$$$$
BCJPSRJYNJCDQX-UHFFFAOYSA-N-P439-P87-P439-601505
     RDKit          3D

 28 31  0  0  0  0  0  0  0  0999 V2000
   11.1166   15.4035   18.1634 N   0  0  0  0  0  0  0  0  0  0  0  0
   11.0628   15.1242   19.4627 C   0  0  0  0  0  0  0  0  0  0  0  0
   11.9932   14.4057   20.2011 C   0  0  0  0  0  0  0  0  0  0  0  0
   11.5779   14.1020   21.4368 N   0  0  0  0  0  0  0  0  0  0  0  0
   10.3552   14.6471   21.4250 N   0  0  0  0  0  0  0  0  0  0  0  0
   10.1127   15.4720   20.3643 C   0  0  0  0  0  0  0  0  0  0  0  0
    9.0602   16.2756   20.3193 O   0  0  0  0  0  0  0  0  0  0  0  0
    8.3366   16.3140   21.5507 C   0  0  0  0  0  0  0  0  0  0  0  0
    7.9731   14.8925   21.9468 C   0  0  2  0  0  0  0  0  0  0  0  0
    7.1412   14.8577   23.1134 O   0  0  0  0  0  0  0  0  0  0  0  0
    6.5120   13.6706   23.2559 C   0  0  0  0  0  0  0  0  0  0  0  0
    6.3510   12.8874   22.3272 O   0  0  0  0  0  0  0  0  0  0  0  0
    6.1104   13.3130   24.6716 C   0  0  0  0  0  0  0  0  0  0  0  0
    7.0601   12.2099   25.1955 C   0  0  0  0  0  0  0  0  0  0  0  0
    8.2129   12.7561   26.0503 C   0  0  0  0  0  0  0  0  0  0  0  0
    8.5550   14.0873   25.5497 N   0  0  0  0  0  0  0  0  0  0  0  0
   10.0611   14.8120   25.7688 S   0  0  0  0  0  0  0  0  0  0  0  0
   10.3270   15.5819   24.5837 O   0  0  0  0  0  0  0  0  0  0  0  0
    9.9810   15.4535   27.0575 O   0  0  0  0  0  0  0  0  0  0  0  0
   11.2212   13.6449   25.8574 N   0  0  0  0  0  0  0  0  0  0  0  0
   11.8575   13.0681   24.6831 C   0  0  0  0  0  0  0  0  0  0  0  0
   12.7871   11.9255   25.0865 C   0  0  0  0  0  0  0  0  0  0  0  0
   13.7834   12.3061   26.1346 C   0  0  0  0  0  0  0  0  0  0  0  0
   13.0516   12.7717   27.3606 C   0  0  0  0  0  0  0  0  0  0  0  0
   11.5957   13.1786   27.1639 C   0  0  0  0  0  0  0  0  0  0  0  0
    7.4572   15.0697   25.8970 C   0  0  0  0  0  0  0  0  0  0  0  0
    6.0726   14.5006   25.6160 C   0  0  0  0  0  0  0  0  0  0  0  0
    9.2733   14.1214   22.2051 C   0  0  0  0  0  0  0  0  0  0  0  0
  1  2  1  0
  2  3  1  0
  3  4  2  0
  4  5  1  0
  5  6  1  0
  6  7  1  0
  7  8  1  0
  8  9  1  0
  9 10  1  1
 10 11  1  0
 11 12  2  0
 11 13  1  0
 13 14  1  0
 14 15  1  0
 15 16  1  0
 16 17  1  0
 17 18  2  0
 17 19  2  0
 17 20  1  0
 20 21  1  0
 21 22  1  0
 22 23  1  0
 23 24  1  0
 24 25  1  0
 16 26  1  0
 26 27  1  0
  9 28  1  0
  6  2  2  0
 27 13  1  0
 28  5  1  0
 25 20  1  0
M  END
>  <energy_score>  (1796) 
-45.841129

>  <inchikey>  (1796) 
BCJPSRJYNJCDQX-UHFFFAOYSA-N

>  <smiles>  (1796) 
Nc1cnn2c1OCC(OC(=O)C1CCN(S(=O)(=O)N3CCCCC3)CC1)C2

>  <ref_pdb>  (1796) 
A0875a

>  <alias>  (1796) 
BCJPSRJYNJCDQX-UHFFFAOYSA-N-P439-P87-P439-601505

>  <HIPPO Pose ID>  (1796) 
508327

>  <name>  (1796) 
BCJPSRJYNJCDQX-UHFFFAOYSA-N-P439-P87-P439-601505

>  <HIPPO Compound ID>  (1796) 
314699

>  <ref_mols>  (1796) 
A4706a,A0875a

>  <distance_score>  (1796) 
1.984087

>  <inspiration_score>  (1796) 
None

$$$$
CMOZOLMIUPYMPF-UHFFFAOYSA-N-P439-P87-P439-601505
     RDKit          3D

 28 31  0  0  0  0  0  0  0  0999 V2000
    6.5462   12.6072   23.4370 O   0  0  0  0  0  0  0  0  0  0  0  0
    6.5166   13.5463   24.2264 C   0  0  0  0  0  0  0  0  0  0  0  0
    7.0601   14.7652   23.9965 O   0  0  0  0  0  0  0  0  0  0  0  0
    7.1837   15.1170   22.5947 C   0  0  0  0  0  0  0  0  0  0  0  0
    8.7560   15.0918   21.9548 C   0  0  0  0  0  0  0  0  0  0  0  0
    9.0221   14.8737   20.5956 C   0  0  0  0  0  0  0  0  0  0  0  0
   10.3023   14.8693   20.0188 C   0  0  0  0  0  0  0  0  0  0  0  0
   11.4061   15.0651   20.8242 C   0  0  0  0  0  0  0  0  0  0  0  0
   11.2131   15.3362   22.1669 C   0  0  0  0  0  0  0  0  0  0  0  0
    9.9158   15.3943   22.6934 C   0  0  0  0  0  0  0  0  0  0  0  0
    6.5245   16.4876   22.3596 C   0  0  0  0  0  0  0  0  0  0  0  0
    5.3004   15.8981   21.8612 O   0  0  0  0  0  0  0  0  0  0  0  0
    5.9589   14.6230   21.7424 C   0  0  0  0  0  0  0  0  0  0  0  0
    5.8187   13.4719   25.5696 C   0  0  0  0  0  0  0  0  0  0  0  0
    6.0376   12.0663   26.1303 C   0  0  0  0  0  0  0  0  0  0  0  0
    7.5279   11.7711   26.2219 C   0  0  0  0  0  0  0  0  0  0  0  0
    8.2763   12.9601   26.6880 N   0  0  0  0  0  0  0  0  0  0  0  0
    9.5377   13.5648   25.7652 S   0  0  0  0  0  0  0  0  0  0  0  0
    9.9460   14.8220   26.3429 O   0  0  0  0  0  0  0  0  0  0  0  0
    9.1981   13.4377   24.3795 O   0  0  0  0  0  0  0  0  0  0  0  0
   10.7743   12.4274   26.0169 N   0  0  0  0  0  0  0  0  0  0  0  0
   12.1028   13.0979   26.0288 C   0  0  0  0  0  0  0  0  0  0  0  0
   13.1996   12.1067   26.3684 C   0  0  0  0  0  0  0  0  0  0  0  0
   13.1850   10.9423   25.3955 C   0  0  0  0  0  0  0  0  0  0  0  0
   11.7838   10.2945   25.2600 C   0  0  0  0  0  0  0  0  0  0  0  0
   10.7151   11.3372   24.9904 C   0  0  0  0  0  0  0  0  0  0  0  0
    7.4556   13.9515   27.4330 C   0  0  0  0  0  0  0  0  0  0  0  0
    6.3277   14.5066   26.5779 C   0  0  0  0  0  0  0  0  0  0  0  0
  1  2  2  0
  2  3  1  0
  3  4  1  0
  4  5  1  0
  5  6  2  0
  6  7  1  0
  7  8  2  0
  8  9  1  0
  9 10  2  0
  4 11  1  0
 11 12  1  0
 12 13  1  0
  2 14  1  0
 14 15  1  0
 15 16  1  0
 16 17  1  0
 17 18  1  0
 18 19  2  0
 18 20  2  0
 18 21  1  0
 21 22  1  0
 22 23  1  0
 23 24  1  0
 24 25  1  0
 25 26  1  0
 17 27  1  0
 27 28  1  0
 13  4  1  0
 28 14  1  0
 10  5  1  0
 26 21  1  0
M  END
>  <energy_score>  (1797) 
-70.184688

>  <inchikey>  (1797) 
CMOZOLMIUPYMPF-UHFFFAOYSA-N

>  <smiles>  (1797) 
O=C(OC1(c2ccccc2)COC1)C1CCN(S(=O)(=O)N2CCCCC2)CC1

>  <ref_pdb>  (1797) 
A0875a

>  <alias>  (1797) 
CMOZOLMIUPYMPF-UHFFFAOYSA-N-P439-P87-P439-601505

>  <HIPPO Pose ID>  (1797) 
508331

>  <name>  (1797) 
CMOZOLMIUPYMPF-UHFFFAOYSA-N-P439-P87-P439-601505

>  <HIPPO Compound ID>  (1797) 
314701

>  <ref_mols>  (1797) 
A4706a,A0875a

>  <distance_score>  (1797) 
1.605554

>  <inspiration_score>  (1797) 
None

$$$$
YRQRWFZEXDSXOU-UHFFFAOYSA-N-P87-P87-P439-601505
     RDKit          3D

 28 31  0  0  0  0  0  0  0  0999 V2000
    7.6455   13.9802   21.5717 O   0  0  0  0  0  0  0  0  0  0  0  0
    7.7660   14.1256   22.7839 C   0  0  0  0  0  0  0  0  0  0  0  0
    8.3259   15.1702   23.3916 O   0  0  0  0  0  0  0  0  0  0  0  0
    8.9373   16.1699   22.5128 C   0  0  0  0  0  0  0  0  0  0  0  0
   10.3212   15.7694   21.8127 C   0  0  0  0  0  0  0  0  0  0  0  0
   10.7298   14.5350   21.3361 C   0  0  0  0  0  0  0  0  0  0  0  0
   11.9932   14.3996   20.7637 C   0  0  0  0  0  0  0  0  0  0  0  0
   12.8301   15.4899   20.6456 C   0  0  0  0  0  0  0  0  0  0  0  0
   12.3613   16.6798   21.1120 C   0  0  0  0  0  0  0  0  0  0  0  0
   11.1488   16.8332   21.6684 N   0  0  0  0  0  0  0  0  0  0  0  0
    8.9039   17.5604   23.1732 C   0  0  0  0  0  0  0  0  0  0  0  0
    7.6875   17.9201   22.5464 O   0  0  0  0  0  0  0  0  0  0  0  0
    7.9310   16.8586   21.6196 C   0  0  0  0  0  0  0  0  0  0  0  0
    7.3539   13.0053   23.6956 C   0  0  0  0  0  0  0  0  0  0  0  0
    8.5214   11.9864   23.6626 C   0  0  0  0  0  0  0  0  0  0  0  0
    8.7695   11.3254   24.9713 C   0  0  0  0  0  0  0  0  0  0  0  0
    8.8294   12.4161   25.9134 N   0  0  0  0  0  0  0  0  0  0  0  0
   10.0906   13.5780   25.7407 S   0  0  0  0  0  0  0  0  0  0  0  0
   10.2134   14.1485   24.4360 O   0  0  0  0  0  0  0  0  0  0  0  0
   10.1329   14.4011   26.9309 O   0  0  0  0  0  0  0  0  0  0  0  0
   11.4037   12.4897   25.8724 N   0  0  0  0  0  0  0  0  0  0  0  0
   11.7954   11.8522   24.5974 C   0  0  0  0  0  0  0  0  0  0  0  0
   13.0237   12.5167   24.0508 C   0  0  0  0  0  0  0  0  0  0  0  0
   14.2025   12.1091   24.9256 C   0  0  0  0  0  0  0  0  0  0  0  0
   13.8451   12.3279   26.3948 C   0  0  0  0  0  0  0  0  0  0  0  0
   12.5574   13.1312   26.5313 C   0  0  0  0  0  0  0  0  0  0  0  0
    7.4425   12.7739   26.2516 C   0  0  0  0  0  0  0  0  0  0  0  0
    6.6379   13.1749   25.0324 C   0  0  0  0  0  0  0  0  0  0  0  0
  1  2  2  0
  2  3  1  0
  3  4  1  0
  4  5  1  0
  5  6  2  0
  6  7  1  0
  7  8  2  0
  8  9  1  0
  9 10  2  0
  4 11  1  0
 11 12  1  0
 12 13  1  0
  2 14  1  0
 14 15  1  0
 15 16  1  0
 16 17  1  0
 17 18  1  0
 18 19  2  0
 18 20  2  0
 18 21  1  0
 21 22  1  0
 22 23  1  0
 23 24  1  0
 24 25  1  0
 25 26  1  0
 17 27  1  0
 27 28  1  0
 13  4  1  0
 28 14  1  0
 10  5  1  0
 26 21  1  0
M  END
>  <energy_score>  (1798) 
-9.291489

>  <inchikey>  (1798) 
YRQRWFZEXDSXOU-UHFFFAOYSA-N

>  <smiles>  (1798) 
O=C(OC1(c2ccccn2)COC1)C1CCN(S(=O)(=O)N2CCCCC2)CC1

>  <ref_pdb>  (1798) 
A0875a

>  <alias>  (1798) 
YRQRWFZEXDSXOU-UHFFFAOYSA-N-P87-P87-P439-601505

>  <HIPPO Pose ID>  (1798) 
508332

>  <name>  (1798) 
YRQRWFZEXDSXOU-UHFFFAOYSA-N-P87-P87-P439-601505

>  <HIPPO Compound ID>  (1798) 
314702

>  <ref_mols>  (1798) 
A4706a,A0875a

>  <distance_score>  (1798) 
1.709234

>  <inspiration_score>  (1798) 
None

$$$$
AEJBVQFJAILRRI-UHFFFAOYSA-N-P439-P87-P439-601505
     RDKit          3D

 28 31  0  0  0  0  0  0  0  0999 V2000
    6.2548   12.7476   22.9973 O   0  0  0  0  0  0  0  0  0  0  0  0
    6.3655   13.8339   23.5514 C   0  0  0  0  0  0  0  0  0  0  0  0
    6.8594   14.9268   22.9250 O   0  0  0  0  0  0  0  0  0  0  0  0
    7.4971   14.6556   21.6506 C   0  0  0  0  0  0  0  0  0  0  0  0
    8.3687   15.8524   21.2486 C   0  0  2  0  0  0  0  0  0  0  0  0
    9.1904   15.6819   19.9296 C   0  0  0  0  0  0  0  0  0  0  0  0
   10.3766   14.9438   20.0503 O   0  0  0  0  0  0  0  0  0  0  0  0
   10.9217   15.0175   21.3619 C   0  0  0  0  0  0  0  0  0  0  0  0
   12.3843   14.7839   21.4584 C   0  0  0  0  0  0  0  0  0  0  0  0
   12.0826   13.9619   22.7368 C   0  0  0  0  0  0  0  0  0  0  0  0
   10.6847   13.7805   22.2129 C   0  0  0  0  0  0  0  0  0  0  0  0
   10.5356   16.2653   22.0964 C   0  0  0  0  0  0  0  0  0  0  0  0
    9.1670   16.1568   22.3857 O   0  0  0  0  0  0  0  0  0  0  0  0
    5.8801   14.1109   24.9739 C   0  0  0  0  0  0  0  0  0  0  0  0
    5.7734   12.8127   25.7990 C   0  0  0  0  0  0  0  0  0  0  0  0
    7.0640   12.2919   26.4426 C   0  0  0  0  0  0  0  0  0  0  0  0
    8.1056   13.3486   26.5697 N   0  0  0  0  0  0  0  0  0  0  0  0
    9.2810   13.3578   25.3691 S   0  0  0  0  0  0  0  0  0  0  0  0
    9.6496   14.7193   25.0713 O   0  0  0  0  0  0  0  0  0  0  0  0
    8.8163   12.4369   24.3587 O   0  0  0  0  0  0  0  0  0  0  0  0
   10.6501   12.6254   26.1185 N   0  0  0  0  0  0  0  0  0  0  0  0
   11.4909   13.5987   26.8584 C   0  0  0  0  0  0  0  0  0  0  0  0
   12.8242   12.9981   27.2890 C   0  0  0  0  0  0  0  0  0  0  0  0
   13.6250   12.5775   26.0896 C   0  0  0  0  0  0  0  0  0  0  0  0
   12.8624   11.5558   25.3119 C   0  0  0  0  0  0  0  0  0  0  0  0
   11.3570   11.7549   25.1473 C   0  0  0  0  0  0  0  0  0  0  0  0
    7.5011   14.6585   26.8974 C   0  0  0  0  0  0  0  0  0  0  0  0
    6.6635   15.1920   25.7353 C   0  0  0  0  0  0  0  0  0  0  0  0
  1  2  2  0
  2  3  1  0
  3  4  1  0
  5  4  1  1
  5  6  1  0
  6  7  1  0
  7  8  1  0
  8  9  1  0
  9 10  1  0
 10 11  1  0
  8 12  1  0
 12 13  1  0
  2 14  1  0
 14 15  1  0
 15 16  1  0
 16 17  1  0
 17 18  1  0
 18 19  2  0
 18 20  2  0
 18 21  1  0
 21 22  1  0
 22 23  1  0
 23 24  1  0
 24 25  1  0
 25 26  1  0
 17 27  1  0
 27 28  1  0
 13  5  1  0
 28 14  1  0
 11  8  1  0
 26 21  1  0
M  END
>  <energy_score>  (1799) 
-35.250461

>  <inchikey>  (1799) 
AEJBVQFJAILRRI-UHFFFAOYSA-N

>  <smiles>  (1799) 
O=C(OCC1COC2(CCC2)CO1)C1CCN(S(=O)(=O)N2CCCCC2)CC1

>  <ref_pdb>  (1799) 
A0875a

>  <alias>  (1799) 
AEJBVQFJAILRRI-UHFFFAOYSA-N-P439-P87-P439-601505

>  <HIPPO Pose ID>  (1799) 
508335

>  <name>  (1799) 
AEJBVQFJAILRRI-UHFFFAOYSA-N-P439-P87-P439-601505

>  <HIPPO Compound ID>  (1799) 
314703

>  <ref_mols>  (1799) 
A4706a,A0875a

>  <distance_score>  (1799) 
1.800644

>  <inspiration_score>  (1799) 
None

$$$$
IVNFOWUBEVYFRK-UHFFFAOYSA-N-P439-P87-P439-601505
     RDKit          3D

 28 31  0  0  0  0  0  0  0  0999 V2000
    6.1491   13.3991   22.3742 O   0  0  0  0  0  0  0  0  0  0  0  0
    6.4650   13.9792   23.4075 C   0  0  0  0  0  0  0  0  0  0  0  0
    7.0514   15.1901   23.4813 O   0  0  0  0  0  0  0  0  0  0  0  0
    7.1156   16.0073   22.3156 C   0  0  0  0  0  0  0  0  0  0  0  0
    8.4411   15.9385   21.5326 C   0  0  2  0  0  0  0  0  0  0  0  0
    8.4352   14.8115   20.5158 C   0  0  0  0  0  0  0  0  0  0  0  0
    9.0670   13.5928   20.8092 O   0  0  0  0  0  0  0  0  0  0  0  0
    9.8398   13.5672   21.9729 C   0  0  0  0  0  0  0  0  0  0  0  0
   10.5534   14.8680   22.0284 C   0  0  0  0  0  0  0  0  0  0  0  0
   11.8349   14.9155   22.8421 C   0  0  0  0  0  0  0  0  0  0  0  0
   12.3161   15.8931   21.7529 C   0  0  0  0  0  0  0  0  0  0  0  0
   11.4672   15.0975   20.7786 C   0  0  0  0  0  0  0  0  0  0  0  0
    9.6089   15.9195   22.3398 O   0  0  0  0  0  0  0  0  0  0  0  0
    6.2876   13.3565   24.7896 C   0  0  0  0  0  0  0  0  0  0  0  0
    7.1903   12.1097   24.8281 C   0  0  0  0  0  0  0  0  0  0  0  0
    7.8875   11.8411   26.1331 C   0  0  0  0  0  0  0  0  0  0  0  0
    8.3794   13.0830   26.7255 N   0  0  0  0  0  0  0  0  0  0  0  0
    9.6668   13.9582   26.0835 S   0  0  0  0  0  0  0  0  0  0  0  0
    9.9579   14.9911   27.0461 O   0  0  0  0  0  0  0  0  0  0  0  0
    9.3619   14.3071   24.7295 O   0  0  0  0  0  0  0  0  0  0  0  0
   10.9452   12.8720   26.0655 N   0  0  0  0  0  0  0  0  0  0  0  0
   12.2311   13.3140   26.6779 C   0  0  0  0  0  0  0  0  0  0  0  0
   13.4665   12.9932   25.8007 C   0  0  0  0  0  0  0  0  0  0  0  0
   13.5923   11.5429   25.3874 C   0  0  0  0  0  0  0  0  0  0  0  0
   12.2074   10.9743   25.3575 C   0  0  0  0  0  0  0  0  0  0  0  0
   11.1066   11.9399   24.9364 C   0  0  0  0  0  0  0  0  0  0  0  0
    7.2143   13.8970   27.1525 C   0  0  0  0  0  0  0  0  0  0  0  0
    6.4318   14.3774   25.9463 C   0  0  0  0  0  0  0  0  0  0  0  0
  1  2  2  0
  2  3  1  0
  3  4  1  0
  5  4  1  1
  5  6  1  0
  6  7  1  0
  7  8  1  0
  8  9  1  0
  9 10  1  0
 10 11  1  0
 11 12  1  0
  9 13  1  0
  2 14  1  0
 14 15  1  0
 15 16  1  0
 16 17  1  0
 17 18  1  0
 18 19  2  0
 18 20  2  0
 18 21  1  0
 21 22  1  0
 22 23  1  0
 23 24  1  0
 24 25  1  0
 25 26  1  0
 17 27  1  0
 27 28  1  0
 13  5  1  0
 28 14  1  0
 12  9  1  0
 26 21  1  0
M  END
>  <energy_score>  (1800) 
-37.215249

>  <inchikey>  (1800) 
IVNFOWUBEVYFRK-UHFFFAOYSA-N

>  <smiles>  (1800) 
O=C(OCC1COCC2(CCC2)O1)C1CCN(S(=O)(=O)N2CCCCC2)CC1

>  <ref_pdb>  (1800) 
A0875a

>  <alias>  (1800) 
IVNFOWUBEVYFRK-UHFFFAOYSA-N-P439-P87-P439-601505

>  <HIPPO Pose ID>  (1800) 
508343

>  <name>  (1800) 
IVNFOWUBEVYFRK-UHFFFAOYSA-N-P439-P87-P439-601505

>  <HIPPO Compound ID>  (1800) 
314707

>  <ref_mols>  (1800) 
A4706a,A0875a

>  <distance_score>  (1800) 
1.625018

>  <inspiration_score>  (1800) 
None

$$$$
UVGFITPHBZYQHZ-UHFFFAOYSA-N-P87-P87-P439-601505
     RDKit          3D

 28 30  0  0  0  0  0  0  0  0999 V2000
   16.1230   10.6647   28.7393 C   0  0  0  0  0  0  0  0  0  0  0  0
   16.6882   10.9098   27.3216 C   0  0  1  0  0  0  0  0  0  0  0  0
   17.7921    9.8342   27.0540 C   0  0  0  0  0  0  0  0  0  0  0  0
   18.8764    9.7052   28.0256 N   0  0  0  0  0  0  0  0  0  0  0  0
   15.7131   10.6580   26.2147 O   0  0  0  0  0  0  0  0  0  0  0  0
   14.4448   11.1172   26.2878 C   0  0  0  0  0  0  0  0  0  0  0  0
   13.9313   11.5215   27.3160 O   0  0  0  0  0  0  0  0  0  0  0  0
   13.6475   10.9841   24.9705 C   0  0  0  0  0  0  0  0  0  0  0  0
   13.3155   12.4143   24.6194 C   0  0  0  0  0  0  0  0  0  0  0  0
   12.1765   12.8358   25.5174 C   0  0  0  0  0  0  0  0  0  0  0  0
   10.8924   12.2223   25.0986 N   0  0  0  0  0  0  0  0  0  0  0  0
    9.8765   13.4815   24.6891 S   0  0  0  0  0  0  0  0  0  0  0  0
   10.5652   14.2660   23.6896 O   0  0  0  0  0  0  0  0  0  0  0  0
    9.5860   14.0083   25.9987 O   0  0  0  0  0  0  0  0  0  0  0  0
    8.4477   12.9436   24.0040 N   0  0  0  0  0  0  0  0  0  0  0  0
    7.9061   14.0300   23.1030 C   0  0  0  0  0  0  0  0  0  0  0  0
    6.4199   14.0030   22.8799 C   0  0  0  0  0  0  0  0  0  0  0  0
    5.6361   13.9954   24.1790 C   0  0  0  0  0  0  0  0  0  0  0  0
    6.2170   13.0714   25.2527 C   0  0  0  0  0  0  0  0  0  0  0  0
    7.4836   12.2945   24.9138 C   0  0  0  0  0  0  0  0  0  0  0  0
   11.0153   10.9733   24.3615 C   0  0  0  0  0  0  0  0  0  0  0  0
   12.2849   10.1532   24.8439 C   0  0  0  0  0  0  0  0  0  0  0  0
   17.1923   12.3847   27.1570 C   0  0  2  0  0  0  0  0  0  0  0  0
   18.4537   12.7757   27.9415 C   0  0  0  0  0  0  0  0  0  0  0  0
   18.6593   14.2855   27.9037 C   0  0  0  0  0  0  0  0  0  0  0  0
   17.4363   15.0294   28.4302 C   0  0  0  0  0  0  0  0  0  0  0  0
   16.2100   14.1335   28.5154 C   0  0  0  0  0  0  0  0  0  0  0  0
   16.0996   13.3047   27.3643 O   0  0  0  0  0  0  0  0  0  0  0  0
  2  1  1  1
  2  3  1  0
  3  4  1  0
  2  5  1  0
  5  6  1  0
  6  7  2  0
  6  8  1  0
  8  9  1  0
  9 10  1  0
 10 11  1  0
 11 12  1  0
 12 13  2  0
 12 14  2  0
 12 15  1  0
 15 16  1  0
 16 17  1  0
 17 18  1  0
 18 19  1  0
 19 20  1  0
 11 21  1  0
 21 22  1  0
  2 23  1  0
 23 24  1  1
 24 25  1  0
 25 26  1  0
 26 27  1  0
 27 28  1  0
 22  8  1  0
 28 23  1  0
 20 15  1  0
M  END
>  <energy_score>  (1801) 
-42.981291

>  <inchikey>  (1801) 
UVGFITPHBZYQHZ-UHFFFAOYSA-N

>  <smiles>  (1801) 
CC(CN)(OC(=O)C1CCN(S(=O)(=O)N2CCCCC2)CC1)C1CCCCO1

>  <ref_pdb>  (1801) 
A0875a

>  <alias>  (1801) 
UVGFITPHBZYQHZ-UHFFFAOYSA-N-P87-P87-P439-601505

>  <HIPPO Pose ID>  (1801) 
508344

>  <name>  (1801) 
UVGFITPHBZYQHZ-UHFFFAOYSA-N-P87-P87-P439-601505

>  <HIPPO Compound ID>  (1801) 
314708

>  <ref_mols>  (1801) 
A4706a,A0875a

>  <distance_score>  (1801) 
1.69778

>  <inspiration_score>  (1801) 
None

$$$$
KCPWFTIDRJCHOT-UHFFFAOYSA-N-P439-P87-P439-601505
     RDKit          3D

 28 30  0  0  0  0  0  0  0  0999 V2000
   11.2677   14.8859   18.2440 C   0  0  0  0  0  0  0  0  0  0  0  0
   11.4935   14.9989   19.6222 O   0  0  0  0  0  0  0  0  0  0  0  0
   10.5412   15.7502   20.2118 C   0  0  0  0  0  0  0  0  0  0  0  0
    9.6223   16.3118   19.6294 O   0  0  0  0  0  0  0  0  0  0  0  0
   10.7805   15.8794   21.6822 C   0  0  2  0  0  0  0  0  0  0  0  0
   11.8058   14.9014   22.2039 C   0  0  0  0  0  0  0  0  0  0  0  0
   11.4063   13.5574   21.9780 O   0  0  0  0  0  0  0  0  0  0  0  0
   10.1486   13.2343   22.5389 C   0  0  0  0  0  0  0  0  0  0  0  0
    9.0024   14.2251   22.3433 C   0  0  1  0  0  0  0  0  0  0  0  0
    8.1442   14.1076   23.4975 O   0  0  0  0  0  0  0  0  0  0  0  0
    7.0076   13.4040   23.4306 C   0  0  0  0  0  0  0  0  0  0  0  0
    6.5373   12.9465   22.4011 O   0  0  0  0  0  0  0  0  0  0  0  0
    6.4376   13.1575   24.8179 C   0  0  0  0  0  0  0  0  0  0  0  0
    6.9933   11.8323   25.3524 C   0  0  0  0  0  0  0  0  0  0  0  0
    8.4886   11.9210   25.6522 C   0  0  0  0  0  0  0  0  0  0  0  0
    8.8215   13.0868   26.4703 N   0  0  0  0  0  0  0  0  0  0  0  0
   10.2940   13.8912   26.4337 S   0  0  0  0  0  0  0  0  0  0  0  0
   10.3447   14.5876   27.6955 O   0  0  0  0  0  0  0  0  0  0  0  0
   10.4153   14.6452   25.2136 O   0  0  0  0  0  0  0  0  0  0  0  0
   11.5450   12.6989   26.4803 N   0  0  0  0  0  0  0  0  0  0  0  0
   11.9388   12.1058   25.1919 C   0  0  0  0  0  0  0  0  0  0  0  0
   13.1373   11.1422   25.2757 C   0  0  0  0  0  0  0  0  0  0  0  0
   14.2443   11.4530   26.2427 C   0  0  0  0  0  0  0  0  0  0  0  0
   14.0883   12.8802   26.6281 C   0  0  0  0  0  0  0  0  0  0  0  0
   12.7350   13.1174   27.2968 C   0  0  0  0  0  0  0  0  0  0  0  0
    7.6518   13.8975   26.9340 C   0  0  0  0  0  0  0  0  0  0  0  0
    6.7219   14.3039   25.7966 C   0  0  0  0  0  0  0  0  0  0  0  0
    9.4750   15.6596   22.3926 C   0  0  0  0  0  0  0  0  0  0  0  0
  1  2  1  0
  2  3  1  0
  3  4  2  0
  5  3  1  6
  5  6  1  0
  6  7  1  0
  7  8  1  0
  8  9  1  0
  9 10  1  1
 10 11  1  0
 11 12  2  0
 11 13  1  0
 13 14  1  0
 14 15  1  0
 15 16  1  0
 16 17  1  0
 17 18  2  0
 17 19  2  0
 17 20  1  0
 20 21  1  0
 21 22  1  0
 22 23  1  0
 23 24  1  0
 24 25  1  0
 16 26  1  0
 26 27  1  0
  9 28  1  0
 28  5  1  0
 27 13  1  0
 25 20  1  0
M  END
>  <energy_score>  (1802) 
-52.838558

>  <inchikey>  (1802) 
KCPWFTIDRJCHOT-UHFFFAOYSA-N

>  <smiles>  (1802) 
COC(=O)C1COCC(OC(=O)C2CCN(S(=O)(=O)N3CCCCC3)CC2)C1

>  <ref_pdb>  (1802) 
A0875a

>  <alias>  (1802) 
KCPWFTIDRJCHOT-UHFFFAOYSA-N-P439-P87-P439-601505

>  <HIPPO Pose ID>  (1802) 
508347

>  <name>  (1802) 
KCPWFTIDRJCHOT-UHFFFAOYSA-N-P439-P87-P439-601505

>  <HIPPO Compound ID>  (1802) 
314709

>  <ref_mols>  (1802) 
A4706a,A0875a

>  <distance_score>  (1802) 
1.603207

>  <inspiration_score>  (1802) 
None

$$$$
ZXBGYZGXRSGSRF-UHFFFAOYSA-N-P439-P87-P439-601505
     RDKit          3D

 28 30  0  0  0  0  0  0  0  0999 V2000
   11.2742   16.8503   22.0315 C   0  0  0  0  0  0  0  0  0  0  0  0
   10.0265   16.3235   22.3673 O   0  0  0  0  0  0  0  0  0  0  0  0
    9.0386   16.5632   21.4753 C   0  0  0  0  0  0  0  0  0  0  0  0
    8.8639   17.5647   20.8078 O   0  0  0  0  0  0  0  0  0  0  0  0
    8.2796   15.2782   21.4303 C   0  0  2  0  0  0  0  0  0  0  0  0
    7.7842   14.9609   22.7475 O   0  0  0  0  0  0  0  0  0  0  0  0
    6.9538   13.9103   22.8850 C   0  0  0  0  0  0  0  0  0  0  0  0
    6.4872   13.2548   21.9595 O   0  0  0  0  0  0  0  0  0  0  0  0
    6.7163   13.5181   24.3403 C   0  0  0  0  0  0  0  0  0  0  0  0
    7.5891   12.2679   24.5764 C   0  0  0  0  0  0  0  0  0  0  0  0
    8.1444   12.0960   25.9685 C   0  0  0  0  0  0  0  0  0  0  0  0
    8.6236   13.3730   26.5085 N   0  0  0  0  0  0  0  0  0  0  0  0
   10.0058   14.1254   25.8887 S   0  0  0  0  0  0  0  0  0  0  0  0
    9.8094   14.4041   24.4943 O   0  0  0  0  0  0  0  0  0  0  0  0
   10.3085   15.2002   26.7995 O   0  0  0  0  0  0  0  0  0  0  0  0
   11.1923   12.9509   26.0126 N   0  0  0  0  0  0  0  0  0  0  0  0
   11.4316   12.0632   24.8527 C   0  0  0  0  0  0  0  0  0  0  0  0
   12.4243   11.0083   25.3411 C   0  0  0  0  0  0  0  0  0  0  0  0
   13.8204   11.5122   25.5716 C   0  0  0  0  0  0  0  0  0  0  0  0
   13.7036   12.9442   26.0394 C   0  0  0  0  0  0  0  0  0  0  0  0
   12.4044   13.2273   26.8282 C   0  0  0  0  0  0  0  0  0  0  0  0
    7.4581   14.2826   26.6885 C   0  0  0  0  0  0  0  0  0  0  0  0
    6.8801   14.6825   25.3384 C   0  0  0  0  0  0  0  0  0  0  0  0
    9.3506   14.2812   20.8986 C   0  0  1  0  0  0  0  0  0  0  0  0
   10.2863   14.7532   19.7531 C   0  0  0  0  0  0  0  0  0  0  0  0
   11.6714   14.2772   20.1270 C   0  0  0  0  0  0  0  0  0  0  0  0
   11.5766   13.8008   21.5670 C   0  0  0  0  0  0  0  0  0  0  0  0
   10.1844   13.6707   21.9501 N   0  0  0  0  0  0  0  0  0  0  0  0
  1  2  1  0
  2  3  1  0
  3  4  2  0
  3  5  1  0
  5  6  1  1
  6  7  1  0
  7  8  2  0
  7  9  1  0
  9 10  1  0
 10 11  1  0
 11 12  1  0
 12 13  1  0
 13 14  2  0
 13 15  2  0
 13 16  1  0
 16 17  1  0
 17 18  1  0
 18 19  1  0
 19 20  1  0
 20 21  1  0
 12 22  1  0
 22 23  1  0
  5 24  1  0
 24 25  1  6
 25 26  1  0
 26 27  1  0
 27 28  1  0
 23  9  1  0
 28 24  1  0
 21 16  1  0
M  END
>  <energy_score>  (1803) 
-21.85716

>  <inchikey>  (1803) 
ZXBGYZGXRSGSRF-UHFFFAOYSA-N

>  <smiles>  (1803) 
COC(=O)C(OC(=O)C1CCN(S(=O)(=O)N2CCCCC2)CC1)C1CCCN1

>  <ref_pdb>  (1803) 
A0875a

>  <alias>  (1803) 
ZXBGYZGXRSGSRF-UHFFFAOYSA-N-P439-P87-P439-601505

>  <HIPPO Pose ID>  (1803) 
508349

>  <name>  (1803) 
ZXBGYZGXRSGSRF-UHFFFAOYSA-N-P439-P87-P439-601505

>  <HIPPO Compound ID>  (1803) 
314710

>  <ref_mols>  (1803) 
A4706a,A0875a

>  <distance_score>  (1803) 
1.368424

>  <inspiration_score>  (1803) 
None

$$$$
OYIMFXWEAIEQFK-UHFFFAOYSA-N-P439-P87-P439-601505
     RDKit          3D

 28 31  0  0  0  0  0  0  0  0999 V2000
    5.3911   14.8492   22.5391 O   0  0  0  0  0  0  0  0  0  0  0  0
    6.4032   14.3576   23.0021 C   0  0  0  0  0  0  0  0  0  0  0  0
    7.5550   14.0575   22.3214 O   0  0  0  0  0  0  0  0  0  0  0  0
    7.8327   14.8718   21.1827 C   0  0  0  0  0  0  0  0  0  0  0  0
    9.3399   15.1577   20.9988 C   0  0  1  0  0  0  0  0  0  0  0  0
    9.5650   15.7988   19.5978 C   0  0  0  0  0  0  0  0  0  0  0  0
   10.9067   15.8355   19.1386 O   0  0  0  0  0  0  0  0  0  0  0  0
   11.5416   14.5874   19.3448 C   0  0  0  0  0  0  0  0  0  0  0  0
   11.4611   14.2359   20.8207 C   0  0  1  0  0  0  0  0  0  0  0  0
   12.0117   15.3767   21.6873 C   0  0  0  0  0  0  0  0  0  0  0  0
   11.0885   15.7930   22.6721 O   0  0  0  0  0  0  0  0  0  0  0  0
    9.8148   16.0879   22.1088 C   0  0  0  0  0  0  0  0  0  0  0  0
   10.0766   13.9449   21.1154 O   0  0  0  0  0  0  0  0  0  0  0  0
    6.6976   14.0479   24.4363 C   0  0  0  0  0  0  0  0  0  0  0  0
    6.7310   12.5636   24.7641 C   0  0  0  0  0  0  0  0  0  0  0  0
    7.1423   12.3439   26.2154 C   0  0  0  0  0  0  0  0  0  0  0  0
    7.8071   13.5323   26.7686 N   0  0  0  0  0  0  0  0  0  0  0  0
    9.4174   13.9862   26.5129 S   0  0  0  0  0  0  0  0  0  0  0  0
    9.5482   14.7905   25.3239 O   0  0  0  0  0  0  0  0  0  0  0  0
    9.8295   14.5660   27.7690 O   0  0  0  0  0  0  0  0  0  0  0  0
   10.3568   12.5834   26.3121 N   0  0  0  0  0  0  0  0  0  0  0  0
   10.1379   11.7300   25.1191 C   0  0  0  0  0  0  0  0  0  0  0  0
   10.5731   12.4360   23.8672 C   0  0  0  0  0  0  0  0  0  0  0  0
   11.9590   13.0352   24.0480 C   0  0  0  0  0  0  0  0  0  0  0  0
   12.6738   12.5427   25.2909 C   0  0  0  0  0  0  0  0  0  0  0  0
   11.8270   12.9077   26.5004 C   0  0  0  0  0  0  0  0  0  0  0  0
    6.8490   14.6962   26.8414 C   0  0  0  0  0  0  0  0  0  0  0  0
    6.0219   14.8330   25.5421 C   0  0  0  0  0  0  0  0  0  0  0  0
  1  2  2  0
  2  3  1  0
  3  4  1  0
  5  4  1  1
  5  6  1  0
  6  7  1  0
  7  8  1  0
  9  8  1  6
  9 10  1  0
 10 11  1  0
 11 12  1  0
  9 13  1  0
  2 14  1  0
 14 15  1  0
 15 16  1  0
 16 17  1  0
 17 18  1  0
 18 19  2  0
 18 20  2  0
 18 21  1  0
 21 22  1  0
 22 23  1  0
 23 24  1  0
 24 25  1  0
 25 26  1  0
 17 27  1  0
 27 28  1  0
 12  5  1  0
 28 14  1  0
 13  5  1  0
 26 21  1  0
M  END
>  <energy_score>  (1804) 
-66.780177

>  <inchikey>  (1804) 
OYIMFXWEAIEQFK-UHFFFAOYSA-N

>  <smiles>  (1804) 
O=C(OCC12COCC(COC1)O2)C1CCN(S(=O)(=O)N2CCCCC2)CC1

>  <ref_pdb>  (1804) 
A0875a

>  <alias>  (1804) 
OYIMFXWEAIEQFK-UHFFFAOYSA-N-P439-P87-P439-601505

>  <HIPPO Pose ID>  (1804) 
508351

>  <name>  (1804) 
OYIMFXWEAIEQFK-UHFFFAOYSA-N-P439-P87-P439-601505

>  <HIPPO Compound ID>  (1804) 
314711

>  <ref_mols>  (1804) 
A4706a,A0875a

>  <distance_score>  (1804) 
1.578326

>  <inspiration_score>  (1804) 
None

$$$$
OCWLDEQIXHHTFQ-UHFFFAOYSA-N-P439-P87-P439-601505
     RDKit          3D

 28 30  0  0  0  0  0  0  0  0999 V2000
   11.4096   15.3486   18.3384 C   0  0  0  0  0  0  0  0  0  0  0  0
   10.5345   16.0438   19.2242 O   0  0  0  0  0  0  0  0  0  0  0  0
   10.0549   15.1282   20.0883 C   0  0  0  0  0  0  0  0  0  0  0  0
   10.0606   13.9386   19.8057 O   0  0  0  0  0  0  0  0  0  0  0  0
    9.6060   15.5699   21.4763 C   0  0  2  0  0  0  0  0  0  0  0  0
   10.7393   15.9090   22.3394 O   0  0  0  0  0  0  0  0  0  0  0  0
   11.8892   15.0836   22.2112 C   0  0  0  0  0  0  0  0  0  0  0  0
    8.7289   14.4266   22.0698 C   0  0  0  0  0  0  0  0  0  0  0  0
    7.9197   15.4896   22.8133 C   0  0  2  0  0  0  0  0  0  0  0  0
    6.5027   15.2953   23.0415 O   0  0  0  0  0  0  0  0  0  0  0  0
    6.1550   14.0503   23.4702 C   0  0  0  0  0  0  0  0  0  0  0  0
    6.1232   13.0920   22.7029 O   0  0  0  0  0  0  0  0  0  0  0  0
    5.7090   13.9954   24.9513 C   0  0  0  0  0  0  0  0  0  0  0  0
    5.8240   12.5691   25.5475 C   0  0  0  0  0  0  0  0  0  0  0  0
    6.9511   12.2803   26.5461 C   0  0  0  0  0  0  0  0  0  0  0  0
    7.9674   13.3539   26.5758 N   0  0  0  0  0  0  0  0  0  0  0  0
    9.0585   13.3465   25.3061 S   0  0  0  0  0  0  0  0  0  0  0  0
    9.6163   14.6642   25.1501 O   0  0  0  0  0  0  0  0  0  0  0  0
    8.3803   12.6477   24.2472 O   0  0  0  0  0  0  0  0  0  0  0  0
   10.2817   12.3232   25.8418 N   0  0  0  0  0  0  0  0  0  0  0  0
   11.5442   13.0140   26.2243 C   0  0  0  0  0  0  0  0  0  0  0  0
   12.6574   12.6583   25.2605 C   0  0  0  0  0  0  0  0  0  0  0  0
   12.9395   11.1766   25.4083 C   0  0  0  0  0  0  0  0  0  0  0  0
   11.6526   10.3172   25.2597 C   0  0  0  0  0  0  0  0  0  0  0  0
   10.4203   11.1388   24.9372 C   0  0  0  0  0  0  0  0  0  0  0  0
    7.3293   14.6421   26.9012 C   0  0  0  0  0  0  0  0  0  0  0  0
    6.2996   15.0830   25.8643 C   0  0  0  0  0  0  0  0  0  0  0  0
    8.3504   16.4375   21.6696 C   0  0  0  0  0  0  0  0  0  0  0  0
  1  2  1  0
  2  3  1  0
  3  4  2  0
  3  5  1  0
  5  6  1  1
  6  7  1  0
  5  8  1  0
  8  9  1  0
  9 10  1  6
 10 11  1  0
 11 12  2  0
 11 13  1  0
 13 14  1  0
 14 15  1  0
 15 16  1  0
 16 17  1  0
 17 18  2  0
 17 19  2  0
 17 20  1  0
 20 21  1  0
 21 22  1  0
 22 23  1  0
 23 24  1  0
 24 25  1  0
 16 26  1  0
 26 27  1  0
  9 28  1  0
 28  5  1  0
 27 13  1  0
 25 20  1  0
M  END
>  <energy_score>  (1805) 
-16.973872

>  <inchikey>  (1805) 
OCWLDEQIXHHTFQ-UHFFFAOYSA-N

>  <smiles>  (1805) 
COC(=O)C1(OC)CC(OC(=O)C2CCN(S(=O)(=O)N3CCCCC3)CC2)C1

>  <ref_pdb>  (1805) 
A0875a

>  <alias>  (1805) 
OCWLDEQIXHHTFQ-UHFFFAOYSA-N-P439-P87-P439-601505

>  <HIPPO Pose ID>  (1805) 
508359

>  <name>  (1805) 
OCWLDEQIXHHTFQ-UHFFFAOYSA-N-P439-P87-P439-601505

>  <HIPPO Compound ID>  (1805) 
314715

>  <ref_mols>  (1805) 
A4706a,A0875a

>  <distance_score>  (1805) 
1.576497

>  <inspiration_score>  (1805) 
None

$$$$
KJQVYWCKOWIHBD-UHFFFAOYSA-N-P439-P87-P439-601505
     RDKit          3D

 28 29  0  0  0  0  0  0  0  0999 V2000
    6.7843   16.2403   22.3445 N   0  0  0  0  0  0  0  0  0  0  0  0
    8.1466   16.1022   21.8142 C   0  0  0  0  0  0  0  0  0  0  0  0
    8.8873   14.7976   22.1558 C   0  0  1  0  0  0  0  0  0  0  0  0
   10.3607   15.1228   22.4660 C   0  0  0  0  0  0  0  0  0  0  0  0
   11.0640   15.7334   21.3887 O   0  0  0  0  0  0  0  0  0  0  0  0
   11.4172   14.8150   20.3593 C   0  0  0  0  0  0  0  0  0  0  0  0
   10.6847   15.0198   19.0416 C   0  0  0  0  0  0  0  0  0  0  0  0
   10.8442   13.9209   18.2760 F   0  0  0  0  0  0  0  0  0  0  0  0
   11.1489   16.0653   18.3439 F   0  0  0  0  0  0  0  0  0  0  0  0
    9.3634   15.2097   19.2179 F   0  0  0  0  0  0  0  0  0  0  0  0
    8.3009   14.1553   23.3044 O   0  0  0  0  0  0  0  0  0  0  0  0
    7.1543   13.4666   23.1067 C   0  0  0  0  0  0  0  0  0  0  0  0
    6.7234   13.1361   22.0057 O   0  0  0  0  0  0  0  0  0  0  0  0
    6.4488   13.0369   24.3848 C   0  0  0  0  0  0  0  0  0  0  0  0
    7.1694   11.8485   25.0500 C   0  0  0  0  0  0  0  0  0  0  0  0
    8.0336   12.2904   26.2293 C   0  0  0  0  0  0  0  0  0  0  0  0
    8.5800   13.5909   25.8576 N   0  0  0  0  0  0  0  0  0  0  0  0
   10.0674   14.1337   26.3324 S   0  0  0  0  0  0  0  0  0  0  0  0
   10.4927   15.1615   25.4175 O   0  0  0  0  0  0  0  0  0  0  0  0
    9.9567   14.4147   27.7419 O   0  0  0  0  0  0  0  0  0  0  0  0
   11.1440   12.8726   26.1874 N   0  0  0  0  0  0  0  0  0  0  0  0
   12.4670   13.1408   26.8559 C   0  0  0  0  0  0  0  0  0  0  0  0
   13.6626   12.8871   25.9194 C   0  0  0  0  0  0  0  0  0  0  0  0
   13.6987   11.4572   25.4199 C   0  0  0  0  0  0  0  0  0  0  0  0
   12.2694   10.9913   25.3066 C   0  0  0  0  0  0  0  0  0  0  0  0
   11.2645   12.0906   24.9426 C   0  0  0  0  0  0  0  0  0  0  0  0
    7.5367   14.6639   25.9774 C   0  0  0  0  0  0  0  0  0  0  0  0
    6.2326   14.2007   25.3453 C   0  0  0  0  0  0  0  0  0  0  0  0
  1  2  1  0
  3  2  1  1
  3  4  1  0
  4  5  1  0
  5  6  1  0
  6  7  1  0
  7  8  1  0
  7  9  1  0
  7 10  1  0
  3 11  1  0
 11 12  1  0
 12 13  2  0
 12 14  1  0
 14 15  1  0
 15 16  1  0
 16 17  1  0
 17 18  1  0
 18 19  2  0
 18 20  2  0
 18 21  1  0
 21 22  1  0
 22 23  1  0
 23 24  1  0
 24 25  1  0
 25 26  1  0
 17 27  1  0
 27 28  1  0
 28 14  1  0
 26 21  1  0
M  END
>  <energy_score>  (1806) 
-54.768846

>  <inchikey>  (1806) 
KJQVYWCKOWIHBD-UHFFFAOYSA-N

>  <smiles>  (1806) 
NCC(COCC(F)(F)F)OC(=O)C1CCN(S(=O)(=O)N2CCCCC2)CC1

>  <ref_pdb>  (1806) 
A0875a

>  <alias>  (1806) 
KJQVYWCKOWIHBD-UHFFFAOYSA-N-P439-P87-P439-601505

>  <HIPPO Pose ID>  (1806) 
508369

>  <name>  (1806) 
KJQVYWCKOWIHBD-UHFFFAOYSA-N-P439-P87-P439-601505

>  <HIPPO Compound ID>  (1806) 
314720

>  <ref_mols>  (1806) 
A4706a,A0875a

>  <distance_score>  (1806) 
1.339094

>  <inspiration_score>  (1806) 
None

$$$$
RLEJJHSYWDWLRR-UHFFFAOYSA-N-P439-P87-P439-601505
     RDKit          3D

 28 31  0  0  0  0  0  0  0  0999 V2000
    6.5275   13.0936   22.4555 O   0  0  0  0  0  0  0  0  0  0  0  0
    6.6027   13.9620   23.3226 C   0  0  0  0  0  0  0  0  0  0  0  0
    7.1155   15.2027   23.1228 O   0  0  0  0  0  0  0  0  0  0  0  0
    7.5412   15.5460   21.7813 C   0  0  0  0  0  0  0  0  0  0  0  0
    8.9005   14.9787   21.3416 C   0  0  1  0  0  0  0  0  0  0  0  0
    9.4485   15.5470   20.0037 C   0  0  0  0  0  0  0  0  0  0  0  0
   10.7939   15.0694   19.6436 N   0  0  0  0  0  0  0  0  0  0  0  0
   11.7099   15.2769   20.7690 C   0  0  0  0  0  0  0  0  0  0  0  0
   11.1464   14.7140   22.0586 C   0  0  0  0  0  0  0  0  0  0  0  0
   12.0852   14.7534   23.2264 C   0  0  0  0  0  0  0  0  0  0  0  0
   12.2034   13.3265   23.2902 O   0  0  0  0  0  0  0  0  0  0  0  0
   11.3341   13.2129   22.1438 C   0  0  0  0  0  0  0  0  0  0  0  0
    9.8632   15.3048   22.3342 O   0  0  0  0  0  0  0  0  0  0  0  0
    6.0232   13.7822   24.7380 C   0  0  0  0  0  0  0  0  0  0  0  0
    6.2134   12.3468   25.2575 C   0  0  0  0  0  0  0  0  0  0  0  0
    7.5754   12.0119   25.8619 C   0  0  0  0  0  0  0  0  0  0  0  0
    8.2449   13.2041   26.4401 N   0  0  0  0  0  0  0  0  0  0  0  0
    9.4504   13.8962   25.4686 S   0  0  0  0  0  0  0  0  0  0  0  0
    9.1076   13.5550   24.1179 O   0  0  0  0  0  0  0  0  0  0  0  0
    9.6297   15.2529   25.9199 O   0  0  0  0  0  0  0  0  0  0  0  0
   10.8113   13.0357   25.8751 N   0  0  0  0  0  0  0  0  0  0  0  0
   11.0078   11.6916   25.3467 C   0  0  0  0  0  0  0  0  0  0  0  0
   12.4606   11.2059   25.4319 C   0  0  0  0  0  0  0  0  0  0  0  0
   13.2846   11.6915   26.5975 C   0  0  0  0  0  0  0  0  0  0  0  0
   13.1643   13.1642   26.6226 C   0  0  0  0  0  0  0  0  0  0  0  0
   11.7333   13.6235   26.8385 C   0  0  0  0  0  0  0  0  0  0  0  0
    7.2477   14.1822   26.9519 C   0  0  0  0  0  0  0  0  0  0  0  0
    6.4521   14.8052   25.8044 C   0  0  0  0  0  0  0  0  0  0  0  0
  1  2  2  0
  2  3  1  0
  3  4  1  0
  5  4  1  1
  5  6  1  0
  6  7  1  0
  7  8  1  0
  8  9  1  0
  9 10  1  0
 10 11  1  0
 11 12  1  0
  9 13  1  0
  2 14  1  0
 14 15  1  0
 15 16  1  0
 16 17  1  0
 17 18  1  0
 18 19  2  0
 18 20  2  0
 18 21  1  0
 21 22  1  0
 22 23  1  0
 23 24  1  0
 24 25  1  0
 25 26  1  0
 17 27  1  0
 27 28  1  0
 13  5  1  0
 28 14  1  0
 12  9  1  0
 26 21  1  0
M  END
>  <energy_score>  (1807) 
-36.832277

>  <inchikey>  (1807) 
RLEJJHSYWDWLRR-UHFFFAOYSA-N

>  <smiles>  (1807) 
O=C(OCC1CNCC2(COC2)O1)C1CCN(S(=O)(=O)N2CCCCC2)CC1

>  <ref_pdb>  (1807) 
A0875a

>  <alias>  (1807) 
RLEJJHSYWDWLRR-UHFFFAOYSA-N-P439-P87-P439-601505

>  <HIPPO Pose ID>  (1807) 
508391

>  <name>  (1807) 
RLEJJHSYWDWLRR-UHFFFAOYSA-N-P439-P87-P439-601505

>  <HIPPO Compound ID>  (1807) 
314731

>  <ref_mols>  (1807) 
A4706a,A0875a

>  <distance_score>  (1807) 
1.574564

>  <inspiration_score>  (1807) 
None

$$$$
KCOZTYMWQXUSKU-UHFFFAOYSA-N-P439-P87-P439-601505
     RDKit          3D

 28 30  0  0  0  0  0  0  0  0999 V2000
    8.4051   18.3012   20.6053 C   0  0  0  0  0  0  0  0  0  0  0  0
    8.7052   17.0485   21.2032 O   0  0  0  0  0  0  0  0  0  0  0  0
    7.7108   16.2326   21.6350 C   0  0  0  0  0  0  0  0  0  0  0  0
    6.5817   16.5438   21.9919 O   0  0  0  0  0  0  0  0  0  0  0  0
    8.1307   14.7648   21.5265 C   0  0  2  0  0  0  0  0  0  0  0  0
    7.6746   13.7663   22.4466 O   0  0  0  0  0  0  0  0  0  0  0  0
    7.2490   14.1906   23.6686 C   0  0  0  0  0  0  0  0  0  0  0  0
    7.3604   15.3188   24.1251 O   0  0  0  0  0  0  0  0  0  0  0  0
    6.6305   13.0447   24.4525 C   0  0  0  0  0  0  0  0  0  0  0  0
    7.6015   11.8675   24.6055 C   0  0  0  0  0  0  0  0  0  0  0  0
    8.3196   11.8308   25.9398 C   0  0  0  0  0  0  0  0  0  0  0  0
    8.5685   13.1787   26.4567 N   0  0  0  0  0  0  0  0  0  0  0  0
    9.8523   14.0710   25.8484 S   0  0  0  0  0  0  0  0  0  0  0  0
    9.9861   15.2569   26.6548 O   0  0  0  0  0  0  0  0  0  0  0  0
    9.7511   14.1632   24.4179 O   0  0  0  0  0  0  0  0  0  0  0  0
   11.1682   13.0290   26.1667 N   0  0  0  0  0  0  0  0  0  0  0  0
   12.0155   13.5663   27.2543 C   0  0  0  0  0  0  0  0  0  0  0  0
   13.2620   12.7264   27.5211 C   0  0  0  0  0  0  0  0  0  0  0  0
   13.9963   12.2573   26.2833 C   0  0  0  0  0  0  0  0  0  0  0  0
   13.0239   11.6944   25.2782 C   0  0  0  0  0  0  0  0  0  0  0  0
   11.9353   12.6953   24.9355 C   0  0  0  0  0  0  0  0  0  0  0  0
    7.3196   13.9497   26.7333 C   0  0  0  0  0  0  0  0  0  0  0  0
    6.1610   13.5224   25.8297 C   0  0  0  0  0  0  0  0  0  0  0  0
    9.5976   14.6597   21.2247 C   0  0  0  0  0  0  0  0  0  0  0  0
   10.1255   14.5135   20.0230 N   0  0  0  0  0  0  0  0  0  0  0  0
   11.4634   14.7431   20.1687 C   0  0  0  0  0  0  0  0  0  0  0  0
   11.7590   15.0585   21.4739 C   0  0  0  0  0  0  0  0  0  0  0  0
   10.5710   14.9926   22.1292 N   0  0  0  0  0  0  0  0  0  0  0  0
  1  2  1  0
  2  3  1  0
  3  4  2  0
  3  5  1  0
  5  6  1  1
  6  7  1  0
  7  8  2  0
  7  9  1  0
  9 10  1  0
 10 11  1  0
 11 12  1  0
 12 13  1  0
 13 14  2  0
 13 15  2  0
 13 16  1  0
 16 17  1  0
 17 18  1  0
 18 19  1  0
 19 20  1  0
 20 21  1  0
 12 22  1  0
 22 23  1  0
  5 24  1  0
 24 25  2  0
 25 26  1  0
 26 27  2  0
 27 28  1  0
 23  9  1  0
 28 24  1  0
 21 16  1  0
M  END
>  <energy_score>  (1808) 
-48.716181

>  <inchikey>  (1808) 
KCOZTYMWQXUSKU-UHFFFAOYSA-N

>  <smiles>  (1808) 
COC(=O)C(OC(=O)C1CCN(S(=O)(=O)N2CCCCC2)CC1)c1ncc[nH]1

>  <ref_pdb>  (1808) 
A0875a

>  <alias>  (1808) 
KCOZTYMWQXUSKU-UHFFFAOYSA-N-P439-P87-P439-601505

>  <HIPPO Pose ID>  (1808) 
508393

>  <name>  (1808) 
KCOZTYMWQXUSKU-UHFFFAOYSA-N-P439-P87-P439-601505

>  <HIPPO Compound ID>  (1808) 
314732

>  <ref_mols>  (1808) 
A4706a,A0875a

>  <distance_score>  (1808) 
1.645506

>  <inspiration_score>  (1808) 
None

$$$$
USBAQURMGORQIP-UHFFFAOYSA-N-P87-P87-P439-601505
     RDKit          3D

 29 32  0  0  0  0  0  0  0  0999 V2000
   15.4249   10.8835   24.1075 O   0  0  0  0  0  0  0  0  0  0  0  0
   14.7418   10.7720   25.1125 C   0  0  0  0  0  0  0  0  0  0  0  0
   15.2099   10.4104   26.3364 O   0  0  0  0  0  0  0  0  0  0  0  0
   16.5746   10.8389   26.6126 C   0  0  1  0  0  0  0  0  0  0  0  0
   16.6332   12.3750   26.7132 C   0  0  0  0  0  0  0  0  0  0  0  0
   16.1697   12.8830   28.0821 C   0  0  0  0  0  0  0  0  0  0  0  0
   15.3541   11.9133   28.7355 O   0  0  0  0  0  0  0  0  0  0  0  0
   16.0889   10.7249   29.0712 C   0  0  0  0  0  0  0  0  0  0  0  0
   17.0683   10.2925   27.9642 C   0  0  1  0  0  0  0  0  0  0  0  0
   17.2556    8.8816   27.8743 O   0  0  0  0  0  0  0  0  0  0  0  0
   17.9510    8.2926   28.9723 C   0  0  0  0  0  0  0  0  0  0  0  0
   19.4238    8.4996   28.8186 C   0  0  0  0  0  0  0  0  0  0  0  0
   20.3551    8.1207   29.9420 C   0  0  0  0  0  0  0  0  0  0  0  0
   20.1502    9.5688   29.5962 C   0  0  0  0  0  0  0  0  0  0  0  0
   13.2675   11.1243   25.1897 C   0  0  0  0  0  0  0  0  0  0  0  0
   13.1885   12.4396   24.4477 C   0  0  0  0  0  0  0  0  0  0  0  0
   12.0636   13.2012   25.0355 C   0  0  0  0  0  0  0  0  0  0  0  0
   10.8388   12.3873   25.2126 N   0  0  0  0  0  0  0  0  0  0  0  0
    9.5955   13.5230   25.2844 S   0  0  0  0  0  0  0  0  0  0  0  0
    9.6158   14.2220   24.0216 O   0  0  0  0  0  0  0  0  0  0  0  0
    9.8843   14.1906   26.5326 O   0  0  0  0  0  0  0  0  0  0  0  0
    8.2143   12.6095   25.4031 N   0  0  0  0  0  0  0  0  0  0  0  0
    7.5803   12.3567   24.1360 C   0  0  0  0  0  0  0  0  0  0  0  0
    6.7220   13.5353   23.7146 C   0  0  0  0  0  0  0  0  0  0  0  0
    5.6328   13.8514   24.7231 C   0  0  0  0  0  0  0  0  0  0  0  0
    5.8608   13.3080   26.1298 C   0  0  0  0  0  0  0  0  0  0  0  0
    7.2132   12.6740   26.4763 C   0  0  0  0  0  0  0  0  0  0  0  0
   10.7981   11.1528   24.4003 C   0  0  0  0  0  0  0  0  0  0  0  0
   12.0231   10.2468   24.7959 C   0  0  0  0  0  0  0  0  0  0  0  0
  1  2  2  0
  2  3  1  0
  4  3  1  1
  4  5  1  0
  5  6  1  0
  6  7  1  0
  7  8  1  0
  8  9  1  0
  9 10  1  6
 10 11  1  0
 11 12  1  0
 12 13  1  0
 13 14  1  0
  2 15  1  0
 15 16  1  0
 16 17  1  0
 17 18  1  0
 18 19  1  0
 19 20  2  0
 19 21  2  0
 19 22  1  0
 22 23  1  0
 23 24  1  0
 24 25  1  0
 25 26  1  0
 26 27  1  0
 18 28  1  0
 28 29  1  0
  9  4  1  0
 14 12  1  0
 29 15  1  0
 27 22  1  0
M  END
>  <energy_score>  (1809) 
-26.169927

>  <inchikey>  (1809) 
USBAQURMGORQIP-UHFFFAOYSA-N

>  <smiles>  (1809) 
O=C(OC1CCOCC1OCC1CC1)C1CCN(S(=O)(=O)N2CCCCC2)CC1

>  <ref_pdb>  (1809) 
A0875a

>  <alias>  (1809) 
USBAQURMGORQIP-UHFFFAOYSA-N-P87-P87-P439-601505

>  <HIPPO Pose ID>  (1809) 
508400

>  <name>  (1809) 
USBAQURMGORQIP-UHFFFAOYSA-N-P87-P87-P439-601505

>  <HIPPO Compound ID>  (1809) 
314736

>  <ref_mols>  (1809) 
A4706a,A0875a

>  <distance_score>  (1809) 
1.687112

>  <inspiration_score>  (1809) 
None

$$$$
LJCDUTNORPNWGL-UHFFFAOYSA-N-P439-P87-P439-601505
     RDKit          3D

 29 31  0  0  0  0  0  0  0  0999 V2000
    5.2457   16.6751   23.9477 C   0  0  0  0  0  0  0  0  0  0  0  0
    6.5453   16.0981   23.9983 O   0  0  0  0  0  0  0  0  0  0  0  0
    7.0996   15.8153   22.7740 C   0  0  0  0  0  0  0  0  0  0  0  0
    6.5535   16.0382   21.7144 O   0  0  0  0  0  0  0  0  0  0  0  0
    8.4256   15.1003   22.9978 C   0  0  1  0  0  0  0  0  0  0  0  0
    8.2736   13.8106   23.6000 O   0  0  0  0  0  0  0  0  0  0  0  0
    7.1146   13.1808   23.3413 C   0  0  0  0  0  0  0  0  0  0  0  0
    6.5783   13.1555   22.2408 O   0  0  0  0  0  0  0  0  0  0  0  0
    6.5247   12.4678   24.5398 C   0  0  0  0  0  0  0  0  0  0  0  0
    7.4805   11.3966   25.0652 C   0  0  0  0  0  0  0  0  0  0  0  0
    8.2359   11.8886   26.2861 C   0  0  0  0  0  0  0  0  0  0  0  0
    8.3879   13.3324   26.1480 N   0  0  0  0  0  0  0  0  0  0  0  0
    9.7220   14.1752   26.6222 S   0  0  0  0  0  0  0  0  0  0  0  0
    9.9657   15.2312   25.6703 O   0  0  0  0  0  0  0  0  0  0  0  0
    9.5040   14.4905   28.0109 O   0  0  0  0  0  0  0  0  0  0  0  0
   11.0204   13.0847   26.5395 N   0  0  0  0  0  0  0  0  0  0  0  0
   11.5050   12.8484   25.1553 C   0  0  0  0  0  0  0  0  0  0  0  0
   12.6702   11.8773   25.1940 C   0  0  0  0  0  0  0  0  0  0  0  0
   13.8249   12.3273   26.0543 C   0  0  0  0  0  0  0  0  0  0  0  0
   13.3387   12.7230   27.4261 C   0  0  0  0  0  0  0  0  0  0  0  0
   12.1125   13.6233   27.4013 C   0  0  0  0  0  0  0  0  0  0  0  0
    7.1216   14.0557   26.4167 C   0  0  0  0  0  0  0  0  0  0  0  0
    6.0040   13.4064   25.6238 C   0  0  0  0  0  0  0  0  0  0  0  0
    9.5120   15.0928   21.9580 C   0  0  0  0  0  0  0  0  0  0  0  0
    9.3266   14.9392   20.5929 C   0  0  0  0  0  0  0  0  0  0  0  0
   10.4255   14.8613   19.7394 C   0  0  0  0  0  0  0  0  0  0  0  0
   11.6839   14.8790   20.3068 C   0  0  0  0  0  0  0  0  0  0  0  0
   11.9144   15.0504   21.6241 N   0  0  0  0  0  0  0  0  0  0  0  0
   10.8289   15.1887   22.3970 C   0  0  0  0  0  0  0  0  0  0  0  0
  1  2  1  0
  2  3  1  0
  3  4  2  0
  3  5  1  0
  5  6  1  6
  6  7  1  0
  7  8  2  0
  7  9  1  0
  9 10  1  0
 10 11  1  0
 11 12  1  0
 12 13  1  0
 13 14  2  0
 13 15  2  0
 13 16  1  0
 16 17  1  0
 17 18  1  0
 18 19  1  0
 19 20  1  0
 20 21  1  0
 12 22  1  0
 22 23  1  0
  5 24  1  0
 24 25  2  0
 25 26  1  0
 26 27  2  0
 27 28  1  0
 28 29  2  0
 23  9  1  0
 29 24  1  0
 21 16  1  0
M  END
>  <energy_score>  (1810) 
-35.446964

>  <inchikey>  (1810) 
LJCDUTNORPNWGL-UHFFFAOYSA-N

>  <smiles>  (1810) 
COC(=O)C(OC(=O)C1CCN(S(=O)(=O)N2CCCCC2)CC1)c1cccnc1

>  <ref_pdb>  (1810) 
A0875a

>  <alias>  (1810) 
LJCDUTNORPNWGL-UHFFFAOYSA-N-P439-P87-P439-601505

>  <HIPPO Pose ID>  (1810) 
508407

>  <name>  (1810) 
LJCDUTNORPNWGL-UHFFFAOYSA-N-P439-P87-P439-601505

>  <HIPPO Compound ID>  (1810) 
314739

>  <ref_mols>  (1810) 
A4706a,A0875a

>  <distance_score>  (1810) 
1.613795

>  <inspiration_score>  (1810) 
None

$$$$
DRKDFFAWICXPJY-UHFFFAOYSA-N-P439-P87-P439-601505
     RDKit          3D

 29 31  0  0  0  0  0  0  0  0999 V2000
    8.6706   18.8332   21.4375 N   0  0  0  0  0  0  0  0  0  0  0  0
    8.3472   17.6531   20.6849 C   0  0  0  0  0  0  0  0  0  0  0  0
    8.6026   16.2274   21.2698 C   0  0  2  0  0  0  0  0  0  0  0  0
    7.9152   15.9211   22.5178 O   0  0  0  0  0  0  0  0  0  0  0  0
    7.2989   14.7034   22.6001 C   0  0  0  0  0  0  0  0  0  0  0  0
    7.2160   13.9029   21.6656 O   0  0  0  0  0  0  0  0  0  0  0  0
    6.6497   14.3508   23.9655 C   0  0  0  0  0  0  0  0  0  0  0  0
    6.9613   12.8506   24.2819 C   0  0  0  0  0  0  0  0  0  0  0  0
    7.4781   12.4712   25.6650 C   0  0  0  0  0  0  0  0  0  0  0  0
    8.1999   13.5818   26.3045 N   0  0  0  0  0  0  0  0  0  0  0  0
    9.6811   14.0900   25.6399 S   0  0  0  0  0  0  0  0  0  0  0  0
   10.0431   15.2800   26.3730 O   0  0  0  0  0  0  0  0  0  0  0  0
    9.5248   14.1122   24.2148 O   0  0  0  0  0  0  0  0  0  0  0  0
   10.7796   12.8737   26.0228 N   0  0  0  0  0  0  0  0  0  0  0  0
   10.8900   11.7646   25.0376 C   0  0  0  0  0  0  0  0  0  0  0  0
   12.1158   10.9426   25.4014 C   0  0  0  0  0  0  0  0  0  0  0  0
   13.4436   11.6043   25.2343 C   0  0  0  0  0  0  0  0  0  0  0  0
   13.2651   13.0653   25.5667 C   0  0  0  0  0  0  0  0  0  0  0  0
   12.1046   13.3463   26.5393 C   0  0  0  0  0  0  0  0  0  0  0  0
    7.2219   14.7003   26.4670 C   0  0  0  0  0  0  0  0  0  0  0  0
    6.9066   15.3363   25.1165 C   0  0  0  0  0  0  0  0  0  0  0  0
   10.1128   16.0719   21.2717 C   0  0  1  0  0  0  0  0  0  0  0  0
   10.6510   15.2728   22.3076 O   0  0  0  0  0  0  0  0  0  0  0  0
   11.4897   14.3569   21.7745 C   0  0  0  0  0  0  0  0  0  0  0  0
   12.1007   13.5292   22.4236 O   0  0  0  0  0  0  0  0  0  0  0  0
   11.5162   14.5418   20.3132 C   0  0  0  0  0  0  0  0  0  0  0  0
   12.3739   13.9993   19.4138 O   0  0  0  0  0  0  0  0  0  0  0  0
   10.6072   15.4446   20.0212 C   0  0  0  0  0  0  0  0  0  0  0  0
   10.2598   15.8548   18.7644 O   0  0  0  0  0  0  0  0  0  0  0  0
  1  2  1  0
  3  2  1  1
  3  4  1  0
  4  5  1  0
  5  6  2  0
  5  7  1  0
  7  8  1  0
  8  9  1  0
  9 10  1  0
 10 11  1  0
 11 12  2  0
 11 13  2  0
 11 14  1  0
 14 15  1  0
 15 16  1  0
 16 17  1  0
 17 18  1  0
 18 19  1  0
 10 20  1  0
 20 21  1  0
  3 22  1  0
 22 23  1  1
 23 24  1  0
 24 25  2  0
 24 26  1  0
 26 27  1  0
 26 28  2  0
 28 29  1  0
 21  7  1  0
 28 22  1  0
 19 14  1  0
M  END
>  <energy_score>  (1811) 
-6.730218

>  <inchikey>  (1811) 
DRKDFFAWICXPJY-UHFFFAOYSA-N

>  <smiles>  (1811) 
NCC(OC(=O)C1CCN(S(=O)(=O)N2CCCCC2)CC1)C1OC(=O)C(O)=C1O

>  <ref_pdb>  (1811) 
A0875a

>  <alias>  (1811) 
DRKDFFAWICXPJY-UHFFFAOYSA-N-P439-P87-P439-601505

>  <HIPPO Pose ID>  (1811) 
508417

>  <name>  (1811) 
DRKDFFAWICXPJY-UHFFFAOYSA-N-P439-P87-P439-601505

>  <HIPPO Compound ID>  (1811) 
314744

>  <ref_mols>  (1811) 
A4706a,A0875a

>  <distance_score>  (1811) 
1.403372

>  <inspiration_score>  (1811) 
None

$$$$
MGHUWIQZIZWLEP-UHFFFAOYSA-N-P439-P87-P439-601505
     RDKit          3D

 29 30  0  0  0  0  0  0  0  0999 V2000
   11.1272   14.8766   18.4648 C   0  0  0  0  0  0  0  0  0  0  0  0
   10.6725   15.3068   19.8050 C   0  0  0  0  0  0  0  0  0  0  0  0
    9.9291   16.2469   20.0351 O   0  0  0  0  0  0  0  0  0  0  0  0
   11.2497   14.5156   20.7342 O   0  0  0  0  0  0  0  0  0  0  0  0
   11.4016   15.1044   22.0082 C   0  0  0  0  0  0  0  0  0  0  0  0
   10.1335   15.3901   22.8205 C   0  0  1  0  0  0  0  0  0  0  0  0
    9.0679   14.3020   22.5981 C   0  0  0  0  0  0  0  0  0  0  0  0
    8.0612   14.2973   23.6218 O   0  0  0  0  0  0  0  0  0  0  0  0
    7.1043   13.3706   23.4699 C   0  0  0  0  0  0  0  0  0  0  0  0
    6.8245   12.8706   22.3850 O   0  0  0  0  0  0  0  0  0  0  0  0
    6.4533   12.8903   24.7618 C   0  0  0  0  0  0  0  0  0  0  0  0
    6.8645   11.4593   25.0903 C   0  0  0  0  0  0  0  0  0  0  0  0
    8.3105   11.2582   25.4772 C   0  0  0  0  0  0  0  0  0  0  0  0
    8.7215   12.2043   26.5060 N   0  0  0  0  0  0  0  0  0  0  0  0
   10.1430   13.0357   26.2796 S   0  0  0  0  0  0  0  0  0  0  0  0
   10.1626   13.3609   24.8832 O   0  0  0  0  0  0  0  0  0  0  0  0
   10.1636   13.9882   27.3591 O   0  0  0  0  0  0  0  0  0  0  0  0
   11.5719   12.1591   26.4612 N   0  0  0  0  0  0  0  0  0  0  0  0
   12.6750   12.8082   27.2293 C   0  0  0  0  0  0  0  0  0  0  0  0
   14.0039   12.8297   26.5016 C   0  0  0  0  0  0  0  0  0  0  0  0
   14.4365   11.4358   26.2040 C   0  0  0  0  0  0  0  0  0  0  0  0
   13.4193   10.8733   25.2627 C   0  0  0  0  0  0  0  0  0  0  0  0
   12.0037   11.4693   25.2494 C   0  0  0  0  0  0  0  0  0  0  0  0
    7.5624   13.0742   27.0286 C   0  0  0  0  0  0  0  0  0  0  0  0
    6.6545   13.7315   25.9966 C   0  0  0  0  0  0  0  0  0  0  0  0
   10.7278   15.5914   24.1377 O   0  0  0  0  0  0  0  0  0  0  0  0
   10.0518   15.7736   25.2883 C   0  0  0  0  0  0  0  0  0  0  0  0
   11.0033   16.2193   26.3505 C   0  0  0  0  0  0  0  0  0  0  0  0
    8.8527   15.6945   25.4937 O   0  0  0  0  0  0  0  0  0  0  0  0
  1  2  1  0
  2  3  2  0
  2  4  1  0
  4  5  1  0
  6  5  1  6
  6  7  1  0
  7  8  1  0
  8  9  1  0
  9 10  2  0
  9 11  1  0
 11 12  1  0
 12 13  1  0
 13 14  1  0
 14 15  1  0
 15 16  2  0
 15 17  2  0
 15 18  1  0
 18 19  1  0
 19 20  1  0
 20 21  1  0
 21 22  1  0
 22 23  1  0
 14 24  1  0
 24 25  1  0
  6 26  1  0
 26 27  1  0
 27 28  1  0
 27 29  2  0
 25 11  1  0
 23 18  1  0
M  END
>  <energy_score>  (1812) 
-2.98651

>  <inchikey>  (1812) 
MGHUWIQZIZWLEP-UHFFFAOYSA-N

>  <smiles>  (1812) 
CC(=O)OCC(COC(=O)C1CCN(S(=O)(=O)N2CCCCC2)CC1)OC(C)=O

>  <ref_pdb>  (1812) 
A0875a

>  <alias>  (1812) 
MGHUWIQZIZWLEP-UHFFFAOYSA-N-P439-P87-P439-601505

>  <HIPPO Pose ID>  (1812) 
508433

>  <name>  (1812) 
MGHUWIQZIZWLEP-UHFFFAOYSA-N-P439-P87-P439-601505

>  <HIPPO Compound ID>  (1812) 
314752

>  <ref_mols>  (1812) 
A4706a,A0875a

>  <distance_score>  (1812) 
1.414259

>  <inspiration_score>  (1812) 
None

$$$$
ZIQVKJGEXNXQOV-UHFFFAOYSA-N-P87-P87-P439-601505
     RDKit          3D

 29 31  0  0  0  0  0  0  0  0999 V2000
   17.0791   14.9383   28.6404 C   0  0  0  0  0  0  0  0  0  0  0  0
   17.2307   13.7562   27.8517 O   0  0  0  0  0  0  0  0  0  0  0  0
   16.0456   13.1890   27.4773 C   0  0  0  0  0  0  0  0  0  0  0  0
   14.9418   13.5880   27.8245 O   0  0  0  0  0  0  0  0  0  0  0  0
   16.3144   11.9584   26.5861 C   0  0  2  0  0  0  0  0  0  0  0  0
   15.3175   11.7462   25.5341 O   0  0  0  0  0  0  0  0  0  0  0  0
   14.0568   11.4743   25.9366 C   0  0  0  0  0  0  0  0  0  0  0  0
   13.7979   11.1461   27.0784 O   0  0  0  0  0  0  0  0  0  0  0  0
   12.9819   11.7150   24.8935 C   0  0  0  0  0  0  0  0  0  0  0  0
   12.4337   13.0633   25.2890 C   0  0  0  0  0  0  0  0  0  0  0  0
   10.9679   13.0261   25.5189 C   0  0  0  0  0  0  0  0  0  0  0  0
   10.2931   12.6154   24.2989 N   0  0  0  0  0  0  0  0  0  0  0  0
    8.7120   13.0859   24.1953 S   0  0  0  0  0  0  0  0  0  0  0  0
    8.0145   12.1824   23.3352 O   0  0  0  0  0  0  0  0  0  0  0  0
    8.2932   13.2862   25.5625 O   0  0  0  0  0  0  0  0  0  0  0  0
    8.8308   14.4923   23.3598 N   0  0  0  0  0  0  0  0  0  0  0  0
    8.3639   14.6458   21.9770 C   0  0  0  0  0  0  0  0  0  0  0  0
    9.5345   14.4997   21.0179 C   0  0  0  0  0  0  0  0  0  0  0  0
   10.7449   15.3432   21.3191 C   0  0  0  0  0  0  0  0  0  0  0  0
   11.1227   15.0768   22.7271 C   0  0  0  0  0  0  0  0  0  0  0  0
    9.9214   15.3985   23.6084 C   0  0  0  0  0  0  0  0  0  0  0  0
   10.7554   11.3724   23.6705 C   0  0  0  0  0  0  0  0  0  0  0  0
   11.7849   10.7234   24.6201 C   0  0  0  0  0  0  0  0  0  0  0  0
   16.6497   10.6757   27.4130 C   0  0  2  0  0  0  0  0  0  0  0  0
   16.3489   10.7821   28.9282 C   0  0  0  0  0  0  0  0  0  0  0  0
   16.8492    9.5732   29.7145 C   0  0  0  0  0  0  0  0  0  0  0  0
   18.2969    9.2676   29.3734 C   0  0  0  0  0  0  0  0  0  0  0  0
   18.4454    9.1021   27.9663 O   0  0  0  0  0  0  0  0  0  0  0  0
   18.1270   10.2912   27.2444 C   0  0  0  0  0  0  0  0  0  0  0  0
  1  2  1  0
  2  3  1  0
  3  4  2  0
  3  5  1  0
  5  6  1  1
  6  7  1  0
  7  8  2  0
  7  9  1  0
  9 10  1  0
 10 11  1  0
 11 12  1  0
 12 13  1  0
 13 14  2  0
 13 15  2  0
 13 16  1  0
 16 17  1  0
 17 18  1  0
 18 19  1  0
 19 20  1  0
 20 21  1  0
 12 22  1  0
 22 23  1  0
  5 24  1  0
 24 25  1  1
 25 26  1  0
 26 27  1  0
 27 28  1  0
 28 29  1  0
 23  9  1  0
 29 24  1  0
 21 16  1  0
M  END
>  <energy_score>  (1813) 
-45.927507

>  <inchikey>  (1813) 
ZIQVKJGEXNXQOV-UHFFFAOYSA-N

>  <smiles>  (1813) 
COC(=O)C(OC(=O)C1CCN(S(=O)(=O)N2CCCCC2)CC1)C1CCCOC1

>  <ref_pdb>  (1813) 
A0875a

>  <alias>  (1813) 
ZIQVKJGEXNXQOV-UHFFFAOYSA-N-P87-P87-P439-601505

>  <HIPPO Pose ID>  (1813) 
508438

>  <name>  (1813) 
ZIQVKJGEXNXQOV-UHFFFAOYSA-N-P87-P87-P439-601505

>  <HIPPO Compound ID>  (1813) 
314755

>  <ref_mols>  (1813) 
A4706a,A0875a

>  <distance_score>  (1813) 
1.541381

>  <inspiration_score>  (1813) 
None

$$$$
QWMMEAYENZIBSB-UHFFFAOYSA-N-P87-P87-P439-601505
     RDKit          3D

 29 31  0  0  0  0  0  0  0  0999 V2000
    8.0050   17.2788   23.2308 C   0  0  0  0  0  0  0  0  0  0  0  0
    8.7233   16.1449   22.8508 O   0  0  0  0  0  0  0  0  0  0  0  0
    9.0437   16.1662   21.5485 C   0  0  0  0  0  0  0  0  0  0  0  0
    8.8635   17.0977   20.7801 O   0  0  0  0  0  0  0  0  0  0  0  0
    9.7626   14.8922   21.2012 C   0  0  2  0  0  0  0  0  0  0  0  0
    9.3852   13.7234   21.9358 O   0  0  0  0  0  0  0  0  0  0  0  0
    8.1056   13.5189   22.3094 C   0  0  0  0  0  0  0  0  0  0  0  0
    7.1167   13.9999   21.7848 O   0  0  0  0  0  0  0  0  0  0  0  0
    8.0463   12.5846   23.5090 C   0  0  0  0  0  0  0  0  0  0  0  0
    9.2112   11.5737   23.5376 C   0  0  0  0  0  0  0  0  0  0  0  0
    9.5451   11.0944   24.9101 C   0  0  0  0  0  0  0  0  0  0  0  0
    9.4592   12.2276   25.8128 N   0  0  0  0  0  0  0  0  0  0  0  0
   10.5571   13.5292   25.6520 S   0  0  0  0  0  0  0  0  0  0  0  0
   10.3670   14.3870   26.8009 O   0  0  0  0  0  0  0  0  0  0  0  0
   10.5262   14.0558   24.3237 O   0  0  0  0  0  0  0  0  0  0  0  0
   12.0042   12.6910   25.8587 N   0  0  0  0  0  0  0  0  0  0  0  0
   12.8463   13.2984   26.8960 C   0  0  0  0  0  0  0  0  0  0  0  0
   14.1362   12.5211   27.1424 C   0  0  0  0  0  0  0  0  0  0  0  0
   14.8445   12.0301   25.8905 C   0  0  0  0  0  0  0  0  0  0  0  0
   13.8714   11.4746   24.8783 C   0  0  0  0  0  0  0  0  0  0  0  0
   12.7406   12.4496   24.5977 C   0  0  0  0  0  0  0  0  0  0  0  0
    8.0475   12.6422   25.9435 C   0  0  0  0  0  0  0  0  0  0  0  0
    7.7217   13.4090   24.7044 C   0  0  0  0  0  0  0  0  0  0  0  0
   11.2162   15.1196   21.5306 C   0  0  0  0  0  0  0  0  0  0  0  0
   12.3013   14.3520   20.7822 C   0  0  0  0  0  0  0  0  0  0  0  0
   13.2105   15.5676   21.0925 C   0  0  0  0  0  0  0  0  0  0  0  0
   14.0775   15.9832   20.1489 F   0  0  0  0  0  0  0  0  0  0  0  0
   13.8714   15.4836   22.2602 F   0  0  0  0  0  0  0  0  0  0  0  0
   11.9571   16.4031   21.1509 C   0  0  0  0  0  0  0  0  0  0  0  0
  1  2  1  0
  2  3  1  0
  3  4  2  0
  3  5  1  0
  5  6  1  1
  6  7  1  0
  7  8  2  0
  7  9  1  0
  9 10  1  0
 10 11  1  0
 11 12  1  0
 12 13  1  0
 13 14  2  0
 13 15  2  0
 13 16  1  0
 16 17  1  0
 17 18  1  0
 18 19  1  0
 19 20  1  0
 20 21  1  0
 12 22  1  0
 22 23  1  0
  5 24  1  0
 24 25  1  0
 25 26  1  0
 26 27  1  0
 26 28  1  0
 26 29  1  0
 23  9  1  0
 29 24  1  0
 21 16  1  0
M  END
>  <energy_score>  (1814) 
-45.020542

>  <inchikey>  (1814) 
QWMMEAYENZIBSB-UHFFFAOYSA-N

>  <smiles>  (1814) 
COC(=O)C(OC(=O)C1CCN(S(=O)(=O)N2CCCCC2)CC1)C1CC(F)(F)C1

>  <ref_pdb>  (1814) 
A0875a

>  <alias>  (1814) 
QWMMEAYENZIBSB-UHFFFAOYSA-N-P87-P87-P439-601505

>  <HIPPO Pose ID>  (1814) 
508444

>  <name>  (1814) 
QWMMEAYENZIBSB-UHFFFAOYSA-N-P87-P87-P439-601505

>  <HIPPO Compound ID>  (1814) 
314758

>  <ref_mols>  (1814) 
A4706a,A0875a

>  <distance_score>  (1814) 
1.993235

>  <inspiration_score>  (1814) 
None

$$$$
XDPCGUWLAGRKBW-UHFFFAOYSA-N-P439-P87-P439-601505
     RDKit          3D

 29 31  0  0  0  0  0  0  0  0999 V2000
    8.3807   18.3500   20.4508 C   0  0  0  0  0  0  0  0  0  0  0  0
    8.8075   17.0288   20.7515 O   0  0  0  0  0  0  0  0  0  0  0  0
    8.0303   16.2552   21.5630 C   0  0  0  0  0  0  0  0  0  0  0  0
    7.0131   16.5931   22.1538 O   0  0  0  0  0  0  0  0  0  0  0  0
    8.5534   14.8135   21.5768 C   0  0  2  0  0  0  0  0  0  0  0  0
    8.1300   14.1827   22.8154 O   0  0  0  0  0  0  0  0  0  0  0  0
    6.8534   13.7344   22.8194 C   0  0  0  0  0  0  0  0  0  0  0  0
    6.2845   13.3556   21.7996 O   0  0  0  0  0  0  0  0  0  0  0  0
    6.1682   13.6088   24.1820 C   0  0  0  0  0  0  0  0  0  0  0  0
    6.5544   12.3066   24.9056 C   0  0  0  0  0  0  0  0  0  0  0  0
    7.3358   12.4083   26.2054 C   0  0  0  0  0  0  0  0  0  0  0  0
    7.7445   13.7687   26.4931 N   0  0  0  0  0  0  0  0  0  0  0  0
    9.2137   14.4500   26.1325 S   0  0  0  0  0  0  0  0  0  0  0  0
    9.0981   15.2346   24.9357 O   0  0  0  0  0  0  0  0  0  0  0  0
    9.6524   15.0927   27.3471 O   0  0  0  0  0  0  0  0  0  0  0  0
   10.3033   13.2347   25.8176 N   0  0  0  0  0  0  0  0  0  0  0  0
   11.7077   13.7290   25.9344 C   0  0  0  0  0  0  0  0  0  0  0  0
   12.6884   12.8283   25.1918 C   0  0  0  0  0  0  0  0  0  0  0  0
   12.2986   11.3898   25.4572 C   0  0  0  0  0  0  0  0  0  0  0  0
   10.8293   11.0947   25.0256 C   0  0  0  0  0  0  0  0  0  0  0  0
   10.1359   12.3858   24.6277 C   0  0  0  0  0  0  0  0  0  0  0  0
    6.6029   14.7000   26.4596 C   0  0  0  0  0  0  0  0  0  0  0  0
    6.1537   14.8926   25.0188 C   0  0  0  0  0  0  0  0  0  0  0  0
   10.0481   14.8545   21.5012 C   0  0  0  0  0  0  0  0  0  0  0  0
   10.9632   15.2107   22.4708 C   0  0  0  0  0  0  0  0  0  0  0  0
   12.1853   15.2762   21.8251 C   0  0  0  0  0  0  0  0  0  0  0  0
   12.0936   14.9406   20.5471 N   0  0  0  0  0  0  0  0  0  0  0  0
   10.7790   14.8391   20.3286 N   0  0  0  0  0  0  0  0  0  0  0  0
   10.3708   14.9306   18.9485 C   0  0  0  0  0  0  0  0  0  0  0  0
  1  2  1  0
  2  3  1  0
  3  4  2  0
  3  5  1  0
  5  6  1  1
  6  7  1  0
  7  8  2  0
  7  9  1  0
  9 10  1  0
 10 11  1  0
 11 12  1  0
 12 13  1  0
 13 14  2  0
 13 15  2  0
 13 16  1  0
 16 17  1  0
 17 18  1  0
 18 19  1  0
 19 20  1  0
 20 21  1  0
 12 22  1  0
 22 23  1  0
  5 24  1  0
 24 25  2  0
 25 26  1  0
 26 27  2  0
 27 28  1  0
 28 29  1  0
 23  9  1  0
 28 24  1  0
 21 16  1  0
M  END
>  <energy_score>  (1815) 
-33.69376

>  <inchikey>  (1815) 
XDPCGUWLAGRKBW-UHFFFAOYSA-N

>  <smiles>  (1815) 
COC(=O)C(OC(=O)C1CCN(S(=O)(=O)N2CCCCC2)CC1)c1ccnn1C

>  <ref_pdb>  (1815) 
A0875a

>  <alias>  (1815) 
XDPCGUWLAGRKBW-UHFFFAOYSA-N-P439-P87-P439-601505

>  <HIPPO Pose ID>  (1815) 
508447

>  <name>  (1815) 
XDPCGUWLAGRKBW-UHFFFAOYSA-N-P439-P87-P439-601505

>  <HIPPO Compound ID>  (1815) 
314759

>  <ref_mols>  (1815) 
A4706a,A0875a

>  <distance_score>  (1815) 
1.485493

>  <inspiration_score>  (1815) 
None

$$$$
PBDWVHQDMCXNLY-UHFFFAOYSA-N-P439-P87-P439-601505
     RDKit          3D

 29 32  0  0  0  0  0  0  0  0999 V2000
    7.2091   12.5208   23.0783 O   0  0  0  0  0  0  0  0  0  0  0  0
    7.0754   13.4177   23.9056 C   0  0  0  0  0  0  0  0  0  0  0  0
    7.6212   14.6506   23.7547 O   0  0  0  0  0  0  0  0  0  0  0  0
    7.6561   15.0815   22.3680 C   0  0  0  0  0  0  0  0  0  0  0  0
    9.1735   15.0218   21.5351 C   0  0  0  0  0  0  0  0  0  0  0  0
    9.2257   14.9551   20.1376 C   0  0  0  0  0  0  0  0  0  0  0  0
   10.3958   14.9103   19.3685 C   0  0  0  0  0  0  0  0  0  0  0  0
   11.6102   14.9359   19.9034 N   0  0  0  0  0  0  0  0  0  0  0  0
   11.6175   15.0741   21.2347 C   0  0  0  0  0  0  0  0  0  0  0  0
   10.4691   15.1378   22.0378 C   0  0  0  0  0  0  0  0  0  0  0  0
   10.8315   15.5400   23.7892 Br  0  0  0  0  0  0  0  0  0  0  0  0
    6.9338   16.4470   22.2286 C   0  0  0  0  0  0  0  0  0  0  0  0
    5.6974   15.8299   21.8027 O   0  0  0  0  0  0  0  0  0  0  0  0
    6.3669   14.5794   21.6079 C   0  0  0  0  0  0  0  0  0  0  0  0
    6.1932   13.2666   25.1254 C   0  0  0  0  0  0  0  0  0  0  0  0
    6.3381   11.8285   25.6328 C   0  0  0  0  0  0  0  0  0  0  0  0
    7.7523   11.5213   26.1017 C   0  0  0  0  0  0  0  0  0  0  0  0
    8.3505   12.7121   26.7292 N   0  0  0  0  0  0  0  0  0  0  0  0
    9.6302   13.4536   25.9570 S   0  0  0  0  0  0  0  0  0  0  0  0
    9.4886   13.1901   24.5530 O   0  0  0  0  0  0  0  0  0  0  0  0
    9.7148   14.7843   26.5118 O   0  0  0  0  0  0  0  0  0  0  0  0
   10.9999   12.5902   26.4444 N   0  0  0  0  0  0  0  0  0  0  0  0
   11.6213   11.7498   25.3778 C   0  0  0  0  0  0  0  0  0  0  0  0
   13.0415   12.1782   25.0823 C   0  0  0  0  0  0  0  0  0  0  0  0
   13.9604   12.2000   26.2777 C   0  0  0  0  0  0  0  0  0  0  0  0
   13.2557   12.7311   27.5054 C   0  0  0  0  0  0  0  0  0  0  0  0
   11.9559   13.4559   27.1822 C   0  0  0  0  0  0  0  0  0  0  0  0
    7.3411   13.6328   27.3318 C   0  0  0  0  0  0  0  0  0  0  0  0
    6.4741   14.2610   26.2526 C   0  0  0  0  0  0  0  0  0  0  0  0
  1  2  2  0
  2  3  1  0
  3  4  1  0
  4  5  1  0
  5  6  2  0
  6  7  1  0
  7  8  2  0
  8  9  1  0
  9 10  2  0
 10 11  1  0
  4 12  1  0
 12 13  1  0
 13 14  1  0
  2 15  1  0
 15 16  1  0
 16 17  1  0
 17 18  1  0
 18 19  1  0
 19 20  2  0
 19 21  2  0
 19 22  1  0
 22 23  1  0
 23 24  1  0
 24 25  1  0
 25 26  1  0
 26 27  1  0
 18 28  1  0
 28 29  1  0
 14  4  1  0
 29 15  1  0
 10  5  1  0
 27 22  1  0
M  END
>  <energy_score>  (1816) 
-43.879957

>  <inchikey>  (1816) 
PBDWVHQDMCXNLY-UHFFFAOYSA-N

>  <smiles>  (1816) 
O=C(OC1(c2ccncc2Br)COC1)C1CCN(S(=O)(=O)N2CCCCC2)CC1

>  <ref_pdb>  (1816) 
A0875a

>  <alias>  (1816) 
PBDWVHQDMCXNLY-UHFFFAOYSA-N-P439-P87-P439-601505

>  <HIPPO Pose ID>  (1816) 
508451

>  <name>  (1816) 
PBDWVHQDMCXNLY-UHFFFAOYSA-N-P439-P87-P439-601505

>  <HIPPO Compound ID>  (1816) 
314761

>  <ref_mols>  (1816) 
A4706a,A0875a

>  <distance_score>  (1816) 
1.685685

>  <inspiration_score>  (1816) 
None

$$$$
PIHBOMIHOZFJCH-UHFFFAOYSA-N-P439-P87-P439-601505
     RDKit          3D

 29 33  0  0  0  0  0  0  0  0999 V2000
   10.8201   14.8837   19.3689 N   0  0  0  0  0  0  0  0  0  0  0  0
   10.1574   15.2142   20.5910 C   0  0  1  0  0  0  0  0  0  0  0  0
    9.4543   16.5790   20.6742 C   0  0  0  0  0  0  0  0  0  0  0  0
    8.6675   15.7357   21.7967 C   0  0  1  0  0  0  0  0  0  0  0  0
    7.2553   16.0163   22.2760 C   0  0  0  0  0  0  0  0  0  0  0  0
    6.9374   15.4126   23.5518 O   0  0  0  0  0  0  0  0  0  0  0  0
    6.4243   14.1564   23.5740 C   0  0  0  0  0  0  0  0  0  0  0  0
    6.2943   13.4250   22.5945 O   0  0  0  0  0  0  0  0  0  0  0  0
    5.9300   13.7760   24.9848 C   0  0  0  0  0  0  0  0  0  0  0  0
    6.1727   12.2927   25.3050 C   0  0  0  0  0  0  0  0  0  0  0  0
    7.5278   11.9030   25.8929 C   0  0  0  0  0  0  0  0  0  0  0  0
    8.2739   13.0700   26.4159 N   0  0  0  0  0  0  0  0  0  0  0  0
    9.3383   13.8035   25.3136 S   0  0  0  0  0  0  0  0  0  0  0  0
    8.9218   13.3375   24.0165 O   0  0  0  0  0  0  0  0  0  0  0  0
    9.4484   15.1851   25.7045 O   0  0  0  0  0  0  0  0  0  0  0  0
   10.7931   13.0697   25.6470 N   0  0  0  0  0  0  0  0  0  0  0  0
   10.9728   11.6751   25.2802 C   0  0  0  0  0  0  0  0  0  0  0  0
   12.4430   11.2551   25.3729 C   0  0  0  0  0  0  0  0  0  0  0  0
   13.2216   11.7503   26.5653 C   0  0  0  0  0  0  0  0  0  0  0  0
   13.0332   13.2175   26.6152 C   0  0  0  0  0  0  0  0  0  0  0  0
   11.5777   13.6255   26.7431 C   0  0  0  0  0  0  0  0  0  0  0  0
    7.3549   14.0075   27.1130 C   0  0  0  0  0  0  0  0  0  0  0  0
    6.3849   14.6786   26.1446 C   0  0  0  0  0  0  0  0  0  0  0  0
    8.7538   14.6066   20.7335 C   0  0  0  0  0  0  0  0  0  0  0  0
    9.6387   15.4502   22.8491 O   0  0  0  0  0  0  0  0  0  0  0  0
   10.7099   14.9959   21.9729 C   0  0  2  0  0  0  0  0  0  0  0  0
   12.0646   15.5525   22.2696 C   0  0  0  0  0  0  0  0  0  0  0  0
   12.3621   14.3433   23.0573 O   0  0  0  0  0  0  0  0  0  0  0  0
   11.3833   13.6619   22.2073 C   0  0  0  0  0  0  0  0  0  0  0  0
  2  1  1  6
  2  3  1  0
  3  4  1  0
  4  5  1  1
  5  6  1  0
  6  7  1  0
  7  8  2  0
  7  9  1  0
  9 10  1  0
 10 11  1  0
 11 12  1  0
 12 13  1  0
 13 14  2  0
 13 15  2  0
 13 16  1  0
 16 17  1  0
 17 18  1  0
 18 19  1  0
 19 20  1  0
 20 21  1  0
 12 22  1  0
 22 23  1  0
  4 24  1  0
  4 25  1  0
 25 26  1  0
 26 27  1  6
 27 28  1  0
 28 29  1  0
 24  2  1  0
 29 26  1  0
 26  2  1  0
 23  9  1  0
 21 16  1  0
M  END
>  <energy_score>  (1817) 
-52.76337

>  <inchikey>  (1817) 
PIHBOMIHOZFJCH-UHFFFAOYSA-N

>  <smiles>  (1817) 
NC12CC(COC(=O)C3CCN(S(=O)(=O)N4CCCCC4)CC3)(C1)OC21COC1

>  <ref_pdb>  (1817) 
A0875a

>  <alias>  (1817) 
PIHBOMIHOZFJCH-UHFFFAOYSA-N-P439-P87-P439-601505

>  <HIPPO Pose ID>  (1817) 
508465

>  <name>  (1817) 
PIHBOMIHOZFJCH-UHFFFAOYSA-N-P439-P87-P439-601505

>  <HIPPO Compound ID>  (1817) 
314768

>  <ref_mols>  (1817) 
A4706a,A0875a

>  <distance_score>  (1817) 
1.736517

>  <inspiration_score>  (1817) 
None

$$$$
AGMCBECNZKFZMM-UHFFFAOYSA-N-P439-P87-P439-601505
     RDKit          3D

 29 31  0  0  0  0  0  0  0  0999 V2000
   11.0256   15.0377   18.7000 C   0  0  0  0  0  0  0  0  0  0  0  0
   10.1103   14.8156   19.7638 O   0  0  0  0  0  0  0  0  0  0  0  0
    9.4968   15.8797   20.3452 C   0  0  0  0  0  0  0  0  0  0  0  0
    9.4764   17.0063   19.8730 O   0  0  0  0  0  0  0  0  0  0  0  0
    8.9327   15.4749   21.7277 C   0  0  1  0  0  0  0  0  0  0  0  0
    7.5413   16.1332   21.9352 C   0  0  0  0  0  0  0  0  0  0  0  0
    7.0359   15.9984   23.2866 O   0  0  0  0  0  0  0  0  0  0  0  0
    6.1024   15.0350   23.5336 C   0  0  0  0  0  0  0  0  0  0  0  0
    5.1179   14.7876   22.8590 O   0  0  0  0  0  0  0  0  0  0  0  0
    6.5734   14.2644   24.7401 C   0  0  0  0  0  0  0  0  0  0  0  0
    6.4044   12.7536   24.7409 C   0  0  0  0  0  0  0  0  0  0  0  0
    7.6156   12.1327   25.4632 C   0  0  0  0  0  0  0  0  0  0  0  0
    8.0969   13.0075   26.5723 N   0  0  0  0  0  0  0  0  0  0  0  0
    9.5213   13.9219   26.3751 S   0  0  0  0  0  0  0  0  0  0  0  0
    9.6220   14.4627   25.0494 O   0  0  0  0  0  0  0  0  0  0  0  0
    9.5843   14.7980   27.5201 O   0  0  0  0  0  0  0  0  0  0  0  0
   10.8396   12.8462   26.5384 N   0  0  0  0  0  0  0  0  0  0  0  0
   12.0315   13.6696   26.9133 C   0  0  0  0  0  0  0  0  0  0  0  0
   13.3906   13.1067   26.5242 C   0  0  0  0  0  0  0  0  0  0  0  0
   13.3866   11.6356   26.5139 C   0  0  0  0  0  0  0  0  0  0  0  0
   12.4339   11.2571   25.4153 C   0  0  0  0  0  0  0  0  0  0  0  0
   11.0448   11.8993   25.4296 C   0  0  0  0  0  0  0  0  0  0  0  0
    6.9544   13.8194   27.1565 C   0  0  0  0  0  0  0  0  0  0  0  0
    6.3858   14.8211   26.1334 C   0  0  0  0  0  0  0  0  0  0  0  0
    8.7727   13.9569   21.8741 C   0  0  0  0  0  0  0  0  0  0  0  0
   10.0476   13.2377   22.1876 C   0  0  0  0  0  0  0  0  0  0  0  0
   11.1659   13.9183   22.4501 C   0  0  0  0  0  0  0  0  0  0  0  0
   11.1675   15.3961   22.5876 C   0  0  0  0  0  0  0  0  0  0  0  0
    9.8576   15.9308   22.7108 O   0  0  0  0  0  0  0  0  0  0  0  0
  1  2  1  0
  2  3  1  0
  3  4  2  0
  3  5  1  0
  5  6  1  1
  6  7  1  0
  7  8  1  0
  8  9  2  0
  8 10  1  0
 10 11  1  0
 11 12  1  0
 12 13  1  0
 13 14  1  0
 14 15  2  0
 14 16  2  0
 14 17  1  0
 17 18  1  0
 18 19  1  0
 19 20  1  0
 20 21  1  0
 21 22  1  0
 13 23  1  0
 23 24  1  0
  5 25  1  0
 25 26  1  0
 26 27  2  0
 27 28  1  0
 28 29  1  0
 29  5  1  0
 24 10  1  0
 22 17  1  0
M  END
>  <energy_score>  (1818) 
-29.093515

>  <inchikey>  (1818) 
AGMCBECNZKFZMM-UHFFFAOYSA-N

>  <smiles>  (1818) 
COC(=O)C1(COC(=O)C2CCN(S(=O)(=O)N3CCCCC3)CC2)CC=CCO1

>  <ref_pdb>  (1818) 
A0875a

>  <alias>  (1818) 
AGMCBECNZKFZMM-UHFFFAOYSA-N-P439-P87-P439-601505

>  <HIPPO Pose ID>  (1818) 
508467

>  <name>  (1818) 
AGMCBECNZKFZMM-UHFFFAOYSA-N-P439-P87-P439-601505

>  <HIPPO Compound ID>  (1818) 
314769

>  <ref_mols>  (1818) 
A4706a,A0875a

>  <distance_score>  (1818) 
1.831641

>  <inspiration_score>  (1818) 
None

$$$$
KVLWKWCKHCLDDU-UHFFFAOYSA-N-P439-P87-P439-601505
     RDKit          3D

 29 32  0  0  0  0  0  0  0  0999 V2000
    5.8543   12.5160   22.9418 O   0  0  0  0  0  0  0  0  0  0  0  0
    6.0074   13.3371   23.8165 C   0  0  0  0  0  0  0  0  0  0  0  0
    5.7271   14.6236   23.6957 O   0  0  0  0  0  0  0  0  0  0  0  0
    5.8712   14.9817   22.3214 C   0  0  0  0  0  0  0  0  0  0  0  0
    7.4106   14.9538   21.7746 C   0  0  0  0  0  0  0  0  0  0  0  0
    8.5326   15.4188   22.4215 C   0  0  0  0  0  0  0  0  0  0  0  0
    9.6075   15.2388   21.5223 C   0  0  0  0  0  0  0  0  0  0  0  0
   11.0302   15.6124   21.6318 C   0  0  0  0  0  0  0  0  0  0  0  0
   11.8396   14.5267   22.7612 Cl  0  0  0  0  0  0  0  0  0  0  0  0
    9.1702   14.6637   20.4032 N   0  0  0  0  0  0  0  0  0  0  0  0
    7.8210   14.4477   20.5866 O   0  0  0  0  0  0  0  0  0  0  0  0
    5.1824   16.2887   22.1155 C   0  0  0  0  0  0  0  0  0  0  0  0
    4.1718   15.7315   21.2428 O   0  0  0  0  0  0  0  0  0  0  0  0
    4.7708   14.4257   21.3753 C   0  0  0  0  0  0  0  0  0  0  0  0
    6.6097   13.1036   25.1045 C   0  0  0  0  0  0  0  0  0  0  0  0
    7.1366   11.7055   25.2618 C   0  0  0  0  0  0  0  0  0  0  0  0
    7.9549   11.7012   26.5144 C   0  0  0  0  0  0  0  0  0  0  0  0
    8.4459   13.0585   26.8541 N   0  0  0  0  0  0  0  0  0  0  0  0
    9.7784   13.7748   26.1104 S   0  0  0  0  0  0  0  0  0  0  0  0
   10.1964   14.8305   26.9991 O   0  0  0  0  0  0  0  0  0  0  0  0
    9.5038   14.0770   24.7325 O   0  0  0  0  0  0  0  0  0  0  0  0
   10.9382   12.5454   26.1283 N   0  0  0  0  0  0  0  0  0  0  0  0
   12.3058   13.1156   26.2451 C   0  0  0  0  0  0  0  0  0  0  0  0
   13.3462   12.0302   26.4401 C   0  0  0  0  0  0  0  0  0  0  0  0
   13.2183   10.9417   25.3871 C   0  0  0  0  0  0  0  0  0  0  0  0
   11.7654   10.4264   25.2467 C   0  0  0  0  0  0  0  0  0  0  0  0
   10.8505   11.6111   24.9672 C   0  0  0  0  0  0  0  0  0  0  0  0
    7.3229   13.9891   27.2459 C   0  0  0  0  0  0  0  0  0  0  0  0
    6.0859   13.7202   26.3772 C   0  0  0  0  0  0  0  0  0  0  0  0
  1  2  2  0
  2  3  1  0
  3  4  1  0
  4  5  1  0
  5  6  2  0
  6  7  1  0
  7  8  1  0
  8  9  1  0
  7 10  2  0
 10 11  1  0
  4 12  1  0
 12 13  1  0
 13 14  1  0
  2 15  1  0
 15 16  1  0
 16 17  1  0
 17 18  1  0
 18 19  1  0
 19 20  2  0
 19 21  2  0
 19 22  1  0
 22 23  1  0
 23 24  1  0
 24 25  1  0
 25 26  1  0
 26 27  1  0
 18 28  1  0
 28 29  1  0
 14  4  1  0
 29 15  1  0
 11  5  1  0
 27 22  1  0
M  END
>  <energy_score>  (1819) 
-29.262195

>  <inchikey>  (1819) 
KVLWKWCKHCLDDU-UHFFFAOYSA-N

>  <smiles>  (1819) 
O=C(OC1(c2cc(CCl)no2)COC1)C1CCN(S(=O)(=O)N2CCCCC2)CC1

>  <ref_pdb>  (1819) 
A0875a

>  <alias>  (1819) 
KVLWKWCKHCLDDU-UHFFFAOYSA-N-P439-P87-P439-601505

>  <HIPPO Pose ID>  (1819) 
508473

>  <name>  (1819) 
KVLWKWCKHCLDDU-UHFFFAOYSA-N-P439-P87-P439-601505

>  <HIPPO Compound ID>  (1819) 
314772

>  <ref_mols>  (1819) 
A4706a,A0875a

>  <distance_score>  (1819) 
1.867968

>  <inspiration_score>  (1819) 
None

$$$$
FKAHBMYZQJDILD-UHFFFAOYSA-N-P439-P87-P439-601505
     RDKit          3D

 29 30  0  0  0  0  0  0  0  0999 V2000
   14.5706    8.6242   31.7379 C   0  0  0  0  0  0  0  0  0  0  0  0
   15.6631    9.1040   31.5972 C   0  0  0  0  0  0  0  0  0  0  0  0
   17.0053    9.6977   31.4227 C   0  0  0  0  0  0  0  0  0  0  0  0
   17.2224   10.8538   32.4065 C   0  0  0  0  0  0  0  0  0  0  0  0
   18.0675    8.6210   31.6800 C   0  0  0  0  0  0  0  0  0  0  0  0
   17.2306   10.1425   30.0722 O   0  0  0  0  0  0  0  0  0  0  0  0
   16.2253   10.9822   29.5092 C   0  0  0  0  0  0  0  0  0  0  0  0
   16.7675   11.6420   28.2349 C   0  0  2  0  0  0  0  0  0  0  0  0
   17.8653   12.6622   28.5694 C   0  0  0  0  0  0  0  0  0  0  0  0
   17.3411   13.6676   29.4509 O   0  0  0  0  0  0  0  0  0  0  0  0
   18.3355   14.6341   29.7753 C   0  0  0  0  0  0  0  0  0  0  0  0
   15.6937   12.3540   27.5769 O   0  0  0  0  0  0  0  0  0  0  0  0
   14.9531   11.6638   26.6735 C   0  0  0  0  0  0  0  0  0  0  0  0
   15.1494   10.5207   26.2939 O   0  0  0  0  0  0  0  0  0  0  0  0
   13.8154   12.5299   26.1884 C   0  0  0  0  0  0  0  0  0  0  0  0
   12.9434   12.9480   27.3539 C   0  0  0  0  0  0  0  0  0  0  0  0
   11.6743   13.6947   26.9592 C   0  0  0  0  0  0  0  0  0  0  0  0
   10.9636   13.0870   25.8017 N   0  0  0  0  0  0  0  0  0  0  0  0
    9.6121   14.0332   25.3400 S   0  0  0  0  0  0  0  0  0  0  0  0
    9.2715   13.7539   23.9690 O   0  0  0  0  0  0  0  0  0  0  0  0
    9.8585   15.3794   25.7914 O   0  0  0  0  0  0  0  0  0  0  0  0
    8.4509   13.3590   26.3622 N   0  0  0  0  0  0  0  0  0  0  0  0
    7.2974   14.2418   26.6786 C   0  0  0  0  0  0  0  0  0  0  0  0
    6.3330   14.2962   25.5050 C   0  0  0  0  0  0  0  0  0  0  0  0
    5.8589   12.8957   25.1415 C   0  0  0  0  0  0  0  0  0  0  0  0
    7.0093   11.9162   24.9515 C   0  0  0  0  0  0  0  0  0  0  0  0
    8.0220   11.9725   26.0773 C   0  0  0  0  0  0  0  0  0  0  0  0
   11.8535   12.7660   24.6694 C   0  0  0  0  0  0  0  0  0  0  0  0
   12.9373   11.8196   25.1775 C   0  0  0  0  0  0  0  0  0  0  0  0
  1  2  3  0
  2  3  1  0
  3  4  1  0
  3  5  1  0
  3  6  1  0
  6  7  1  0
  8  7  1  1
  8  9  1  0
  9 10  1  0
 10 11  1  0
  8 12  1  0
 12 13  1  0
 13 14  2  0
 13 15  1  0
 15 16  1  0
 16 17  1  0
 17 18  1  0
 18 19  1  0
 19 20  2  0
 19 21  2  0
 19 22  1  0
 22 23  1  0
 23 24  1  0
 24 25  1  0
 25 26  1  0
 26 27  1  0
 18 28  1  0
 28 29  1  0
 29 15  1  0
 27 22  1  0
M  END
>  <energy_score>  (1820) 
-106.359552

>  <inchikey>  (1820) 
FKAHBMYZQJDILD-UHFFFAOYSA-N

>  <smiles>  (1820) 
C#CC(C)(C)OCC(COC)OC(=O)C1CCN(S(=O)(=O)N2CCCCC2)CC1

>  <ref_pdb>  (1820) 
A0875a

>  <alias>  (1820) 
FKAHBMYZQJDILD-UHFFFAOYSA-N-P439-P87-P439-601505

>  <HIPPO Pose ID>  (1820) 
508485

>  <name>  (1820) 
FKAHBMYZQJDILD-UHFFFAOYSA-N-P439-P87-P439-601505

>  <HIPPO Compound ID>  (1820) 
314778

>  <ref_mols>  (1820) 
A4706a,A0875a

>  <distance_score>  (1820) 
1.980429

>  <inspiration_score>  (1820) 
None

$$$$
VMAKZNCXFGGVOK-UHFFFAOYSA-N-P87-P87-P439-601505
     RDKit          3D

 29 30  0  0  0  0  0  0  0  0999 V2000
   18.9359   14.2823   33.2983 C   0  0  0  0  0  0  0  0  0  0  0  0
   18.3488   14.2776   31.8957 C   0  0  0  0  0  0  0  0  0  0  0  0
   16.9056   14.7840   31.8944 C   0  0  0  0  0  0  0  0  0  0  0  0
   16.3065   14.9100   30.4917 C   0  0  0  0  0  0  0  0  0  0  0  0
   16.1668   13.5730   29.7673 C   0  0  0  0  0  0  0  0  0  0  0  0
   15.3956   13.7281   28.4603 C   0  0  0  0  0  0  0  0  0  0  0  0
   15.3015   12.4617   27.8028 O   0  0  0  0  0  0  0  0  0  0  0  0
   16.3543   12.2570   26.8511 C   0  0  0  0  0  0  0  0  0  0  0  0
   16.4613   10.7503   26.5356 C   0  0  1  0  0  0  0  0  0  0  0  0
   17.0161   10.0320   27.7686 C   0  0  0  0  0  0  0  0  0  0  0  0
   17.8266    8.5109   27.2987 Cl  0  0  0  0  0  0  0  0  0  0  0  0
   15.1479   10.2313   26.1838 O   0  0  0  0  0  0  0  0  0  0  0  0
   14.6729   10.7437   25.0199 C   0  0  0  0  0  0  0  0  0  0  0  0
   15.3622   10.9631   24.0355 O   0  0  0  0  0  0  0  0  0  0  0  0
   13.2038   11.1104   25.1356 C   0  0  0  0  0  0  0  0  0  0  0  0
   13.1331   12.4378   24.4125 C   0  0  0  0  0  0  0  0  0  0  0  0
   12.0258   13.2031   25.0218 C   0  0  0  0  0  0  0  0  0  0  0  0
   10.7832   12.4084   25.1805 N   0  0  0  0  0  0  0  0  0  0  0  0
    9.5709   13.5711   25.2419 S   0  0  0  0  0  0  0  0  0  0  0  0
    9.6516   14.3136   24.0064 O   0  0  0  0  0  0  0  0  0  0  0  0
    9.8371   14.1811   26.5245 O   0  0  0  0  0  0  0  0  0  0  0  0
    8.1559   12.7267   25.2584 N   0  0  0  0  0  0  0  0  0  0  0  0
    7.5152   12.6030   23.9741 C   0  0  0  0  0  0  0  0  0  0  0  0
    6.5940   13.7645   23.6753 C   0  0  0  0  0  0  0  0  0  0  0  0
    5.5282   13.9391   24.7511 C   0  0  0  0  0  0  0  0  0  0  0  0
    5.8222   13.2770   26.1046 C   0  0  0  0  0  0  0  0  0  0  0  0
    7.1977   12.6352   26.3569 C   0  0  0  0  0  0  0  0  0  0  0  0
   10.7241   11.1834   24.3615 C   0  0  0  0  0  0  0  0  0  0  0  0
   11.9310   10.2560   24.7565 C   0  0  0  0  0  0  0  0  0  0  0  0
  1  2  1  0
  2  3  1  0
  3  4  1  0
  4  5  1  0
  5  6  1  0
  6  7  1  0
  7  8  1  0
  9  8  1  1
  9 10  1  0
 10 11  1  0
  9 12  1  0
 12 13  1  0
 13 14  2  0
 13 15  1  0
 15 16  1  0
 16 17  1  0
 17 18  1  0
 18 19  1  0
 19 20  2  0
 19 21  2  0
 19 22  1  0
 22 23  1  0
 23 24  1  0
 24 25  1  0
 25 26  1  0
 26 27  1  0
 18 28  1  0
 28 29  1  0
 29 15  1  0
 27 22  1  0
M  END
>  <energy_score>  (1821) 
-5.592944

>  <inchikey>  (1821) 
VMAKZNCXFGGVOK-UHFFFAOYSA-N

>  <smiles>  (1821) 
CCCCCCOCC(CCl)OC(=O)C1CCN(S(=O)(=O)N2CCCCC2)CC1

>  <ref_pdb>  (1821) 
A0875a

>  <alias>  (1821) 
VMAKZNCXFGGVOK-UHFFFAOYSA-N-P87-P87-P439-601505

>  <HIPPO Pose ID>  (1821) 
508506

>  <name>  (1821) 
VMAKZNCXFGGVOK-UHFFFAOYSA-N-P87-P87-P439-601505

>  <HIPPO Compound ID>  (1821) 
314789

>  <ref_mols>  (1821) 
A4706a,A0875a

>  <distance_score>  (1821) 
1.741409

>  <inspiration_score>  (1821) 
None

$$$$
HKYACQUNJVRYAR-UHFFFAOYSA-N-P439-P87-P439-601505
     RDKit          3D

 29 31  0  0  0  0  0  0  0  0999 V2000
   19.3393    9.9069   29.8637 C   0  0  0  0  0  0  0  0  0  0  0  0
   18.4948    9.7553   28.8424 C   0  0  0  0  0  0  0  0  0  0  0  0
   18.4331   10.3367   27.4527 C   0  0  0  0  0  0  0  0  0  0  0  0
   16.8995    9.9960   27.5341 C   0  0  0  0  0  0  0  0  0  0  0  0
   15.8496   11.0421   27.9977 C   0  0  1  0  0  0  0  0  0  0  0  0
   16.4392   12.4393   28.1562 C   0  0  0  0  0  0  0  0  0  0  0  0
   15.4586   13.3269   28.7531 O   0  0  0  0  0  0  0  0  0  0  0  0
   15.4253   13.6218   30.0791 C   0  0  0  0  0  0  0  0  0  0  0  0
   16.3703   12.8956   30.9881 C   0  0  0  0  0  0  0  0  0  0  0  0
   14.6504   14.4776   30.4947 O   0  0  0  0  0  0  0  0  0  0  0  0
   14.6008   11.0965   27.1833 O   0  0  0  0  0  0  0  0  0  0  0  0
   14.6327   11.3348   25.8537 C   0  0  0  0  0  0  0  0  0  0  0  0
   15.6410   11.2687   25.1761 O   0  0  0  0  0  0  0  0  0  0  0  0
   13.3217   11.8137   25.2412 C   0  0  0  0  0  0  0  0  0  0  0  0
   13.1451   13.2533   25.6447 C   0  0  0  0  0  0  0  0  0  0  0  0
   11.7098   13.7516   25.7998 C   0  0  0  0  0  0  0  0  0  0  0  0
   10.9080   13.1292   24.7379 N   0  0  0  0  0  0  0  0  0  0  0  0
    9.4589   13.9301   24.3943 S   0  0  0  0  0  0  0  0  0  0  0  0
    8.6035   13.0013   23.6968 O   0  0  0  0  0  0  0  0  0  0  0  0
    9.0277   14.5579   25.6224 O   0  0  0  0  0  0  0  0  0  0  0  0
    9.8962   15.1119   23.3027 N   0  0  0  0  0  0  0  0  0  0  0  0
   11.2611   15.2769   22.7785 C   0  0  0  0  0  0  0  0  0  0  0  0
   11.4756   14.5507   21.4727 C   0  0  0  0  0  0  0  0  0  0  0  0
   10.4257   14.9324   20.4486 C   0  0  0  0  0  0  0  0  0  0  0  0
    9.0445   14.7061   21.0330 C   0  0  0  0  0  0  0  0  0  0  0  0
    8.8646   15.5096   22.3069 C   0  0  0  0  0  0  0  0  0  0  0  0
   10.7512   11.6832   24.9792 C   0  0  0  0  0  0  0  0  0  0  0  0
   12.0535   11.1051   25.5649 C   0  0  0  0  0  0  0  0  0  0  0  0
   17.2520    8.9293   28.6392 C   0  0  0  0  0  0  0  0  0  0  0  0
  1  2  2  0
  2  3  1  0
  3  4  1  0
  4  5  1  0
  5  6  1  6
  6  7  1  0
  7  8  1  0
  8  9  1  0
  8 10  2  0
  5 11  1  0
 11 12  1  0
 12 13  2  0
 12 14  1  0
 14 15  1  0
 15 16  1  0
 16 17  1  0
 17 18  1  0
 18 19  2  0
 18 20  2  0
 18 21  1  0
 21 22  1  0
 22 23  1  0
 23 24  1  0
 24 25  1  0
 25 26  1  0
 17 27  1  0
 27 28  1  0
  4 29  1  0
 29  2  1  0
 28 14  1  0
 26 21  1  0
M  END
>  <energy_score>  (1822) 
-38.905037

>  <inchikey>  (1822) 
HKYACQUNJVRYAR-UHFFFAOYSA-N

>  <smiles>  (1822) 
C=C1CC(C(COC(C)=O)OC(=O)C2CCN(S(=O)(=O)N3CCCCC3)CC2)C1

>  <ref_pdb>  (1822) 
A0875a

>  <alias>  (1822) 
HKYACQUNJVRYAR-UHFFFAOYSA-N-P439-P87-P439-601505

>  <HIPPO Pose ID>  (1822) 
508515

>  <name>  (1822) 
HKYACQUNJVRYAR-UHFFFAOYSA-N-P439-P87-P439-601505

>  <HIPPO Compound ID>  (1822) 
314793

>  <ref_mols>  (1822) 
A4706a,A0875a

>  <distance_score>  (1822) 
1.413936

>  <inspiration_score>  (1822) 
None

$$$$
PDWTVEGUZPJCNS-UHFFFAOYSA-N-P87-P87-P439-601505
     RDKit          3D

 29 32  0  0  0  0  0  0  0  0999 V2000
   13.6688   11.4799   27.3324 O   0  0  0  0  0  0  0  0  0  0  0  0
   14.3084   11.3818   26.3055 C   0  0  0  0  0  0  0  0  0  0  0  0
   15.6511   11.5452   26.2779 O   0  0  0  0  0  0  0  0  0  0  0  0
   16.3770   11.8269   27.5679 C   0  0  2  0  0  0  0  0  0  0  0  0
   16.0328   13.2687   28.0798 C   0  0  0  0  0  0  0  0  0  0  0  0
   17.2133   14.1536   28.5364 C   0  0  0  0  0  0  0  0  0  0  0  0
   17.7160   13.8404   29.9483 C   0  0  0  0  0  0  0  0  0  0  0  0
   16.6613   13.4043   30.8593 N   0  0  0  0  0  0  0  0  0  0  0  0
   15.3622   13.9454   30.4865 C   0  0  0  0  0  0  0  0  0  0  0  0
   14.9184   13.3280   29.1592 C   0  0  0  0  0  0  0  0  0  0  0  0
   17.8480   11.6295   27.2274 C   0  0  0  0  0  0  0  0  0  0  0  0
   17.9534   10.1270   27.0810 C   0  0  0  0  0  0  0  0  0  0  0  0
   17.0340    9.5770   28.0315 O   0  0  0  0  0  0  0  0  0  0  0  0
   16.2458   10.6639   28.5652 C   0  0  0  0  0  0  0  0  0  0  0  0
   13.6192   11.0910   24.9618 C   0  0  0  0  0  0  0  0  0  0  0  0
   13.2560   12.4553   24.4295 C   0  0  0  0  0  0  0  0  0  0  0  0
   12.0799   13.0013   25.2017 C   0  0  0  0  0  0  0  0  0  0  0  0
   10.8270   12.2026   25.0439 N   0  0  0  0  0  0  0  0  0  0  0  0
    9.5894   13.2987   24.7229 S   0  0  0  0  0  0  0  0  0  0  0  0
    9.9523   14.0256   23.5287 O   0  0  0  0  0  0  0  0  0  0  0  0
    9.4964   13.9503   26.0040 O   0  0  0  0  0  0  0  0  0  0  0  0
    8.1215   12.5444   24.4261 N   0  0  0  0  0  0  0  0  0  0  0  0
    7.5940   11.6324   25.4372 C   0  0  0  0  0  0  0  0  0  0  0  0
    6.8178   12.3255   26.5338 C   0  0  0  0  0  0  0  0  0  0  0  0
    5.6948   13.2164   26.0647 C   0  0  0  0  0  0  0  0  0  0  0  0
    5.8067   13.7414   24.6482 C   0  0  0  0  0  0  0  0  0  0  0  0
    7.0906   13.4987   23.8502 C   0  0  0  0  0  0  0  0  0  0  0  0
   10.9912   10.9391   24.3424 C   0  0  0  0  0  0  0  0  0  0  0  0
   12.2930   10.1991   24.8489 C   0  0  0  0  0  0  0  0  0  0  0  0
  1  2  2  0
  2  3  1  0
  4  3  1  6
  4  5  1  0
  5  6  1  0
  6  7  1  0
  7  8  1  0
  8  9  1  0
  9 10  1  0
  4 11  1  0
 11 12  1  0
 12 13  1  0
 13 14  1  0
  2 15  1  0
 15 16  1  0
 16 17  1  0
 17 18  1  0
 18 19  1  0
 19 20  2  0
 19 21  2  0
 19 22  1  0
 22 23  1  0
 23 24  1  0
 24 25  1  0
 25 26  1  0
 26 27  1  0
 18 28  1  0
 28 29  1  0
 14  4  1  0
 29 15  1  0
 10  5  1  0
 27 22  1  0
M  END
>  <energy_score>  (1823) 
-25.711227

>  <inchikey>  (1823) 
PDWTVEGUZPJCNS-UHFFFAOYSA-N

>  <smiles>  (1823) 
O=C(OC1(C2CCNCC2)CCOC1)C1CCN(S(=O)(=O)N2CCCCC2)CC1

>  <ref_pdb>  (1823) 
A0875a

>  <alias>  (1823) 
PDWTVEGUZPJCNS-UHFFFAOYSA-N-P87-P87-P439-601505

>  <HIPPO Pose ID>  (1823) 
508546

>  <name>  (1823) 
PDWTVEGUZPJCNS-UHFFFAOYSA-N-P87-P87-P439-601505

>  <HIPPO Compound ID>  (1823) 
314810

>  <ref_mols>  (1823) 
A4706a,A0875a

>  <distance_score>  (1823) 
1.486239

>  <inspiration_score>  (1823) 
None

$$$$
ZJKVQNKMLMQWOD-UHFFFAOYSA-N-P439-P87-P439-601505
     RDKit          3D

 29 31  0  0  0  0  0  0  0  0999 V2000
   11.4117   14.7927   18.4811 C   0  0  0  0  0  0  0  0  0  0  0  0
   10.3407   14.2311   19.2216 O   0  0  0  0  0  0  0  0  0  0  0  0
   10.1763   14.9199   20.4374 C   0  0  0  0  0  0  0  0  0  0  0  0
   11.3254   14.8620   21.2634 O   0  0  0  0  0  0  0  0  0  0  0  0
   11.5044   13.6557   21.9512 C   0  0  0  0  0  0  0  0  0  0  0  0
    8.7516   14.7856   21.1446 C   0  0  1  0  0  0  0  0  0  0  0  0
    8.3977   13.7061   22.0807 O   0  0  0  0  0  0  0  0  0  0  0  0
    7.0700   13.6283   22.4138 C   0  0  0  0  0  0  0  0  0  0  0  0
    6.1748   13.8613   21.6051 O   0  0  0  0  0  0  0  0  0  0  0  0
    6.6951   13.2447   23.8681 C   0  0  0  0  0  0  0  0  0  0  0  0
    7.4323   12.0185   24.4363 C   0  0  0  0  0  0  0  0  0  0  0  0
    7.5591   11.9836   25.9458 C   0  0  0  0  0  0  0  0  0  0  0  0
    7.9991   13.2823   26.4590 N   0  0  0  0  0  0  0  0  0  0  0  0
    9.4731   13.9254   25.9219 S   0  0  0  0  0  0  0  0  0  0  0  0
    9.4118   13.9443   24.4906 O   0  0  0  0  0  0  0  0  0  0  0  0
    9.6749   15.1261   26.6933 O   0  0  0  0  0  0  0  0  0  0  0  0
   10.6471   12.7920   26.3090 N   0  0  0  0  0  0  0  0  0  0  0  0
   11.9572   13.4004   26.6998 C   0  0  0  0  0  0  0  0  0  0  0  0
   13.0560   13.2595   25.6440 C   0  0  0  0  0  0  0  0  0  0  0  0
   13.1322   11.9599   24.9091 C   0  0  0  0  0  0  0  0  0  0  0  0
   12.1464   11.0401   25.5133 C   0  0  0  0  0  0  0  0  0  0  0  0
   10.7677   11.6425   25.3665 C   0  0  0  0  0  0  0  0  0  0  0  0
    6.8681   14.2424   26.2659 C   0  0  0  0  0  0  0  0  0  0  0  0
    6.6327   14.4961   24.7756 C   0  0  0  0  0  0  0  0  0  0  0  0
    8.6885   16.0407   21.9672 C   0  0  0  0  0  0  0  0  0  0  0  0
    9.7670   16.0357   22.9344 C   0  0  0  0  0  0  0  0  0  0  0  0
   10.6818   16.0020   23.6570 N   0  0  0  0  0  0  0  0  0  0  0  0
    7.3187   16.6416   22.1428 C   0  0  0  0  0  0  0  0  0  0  0  0
    8.3478   17.3809   21.3312 C   0  0  0  0  0  0  0  0  0  0  0  0
  1  2  1  0
  2  3  1  0
  3  4  1  0
  4  5  1  0
  3  6  1  0
  6  7  1  1
  7  8  1  0
  8  9  2  0
  8 10  1  0
 10 11  1  0
 11 12  1  0
 12 13  1  0
 13 14  1  0
 14 15  2  0
 14 16  2  0
 14 17  1  0
 17 18  1  0
 18 19  1  0
 19 20  1  0
 20 21  1  0
 21 22  1  0
 13 23  1  0
 23 24  1  0
  6 25  1  0
 25 26  1  0
 26 27  3  0
 25 28  1  0
 28 29  1  0
 24 10  1  0
 29 25  1  0
 22 17  1  0
M  END
>  <energy_score>  (1824) 
-2.657778

>  <inchikey>  (1824) 
ZJKVQNKMLMQWOD-UHFFFAOYSA-N

>  <smiles>  (1824) 
COC(OC)C(OC(=O)C1CCN(S(=O)(=O)N2CCCCC2)CC1)C1(C#N)CC1

>  <ref_pdb>  (1824) 
A0875a

>  <alias>  (1824) 
ZJKVQNKMLMQWOD-UHFFFAOYSA-N-P439-P87-P439-601505

>  <HIPPO Pose ID>  (1824) 
508553

>  <name>  (1824) 
ZJKVQNKMLMQWOD-UHFFFAOYSA-N-P439-P87-P439-601505

>  <HIPPO Compound ID>  (1824) 
314813

>  <ref_mols>  (1824) 
A4706a,A0875a

>  <distance_score>  (1824) 
1.140574

>  <inspiration_score>  (1824) 
None

$$$$
PANRWVDCWLWUPA-UHFFFAOYSA-N-P439-P87-P439-601505
     RDKit          3D

 30 32  0  0  0  0  0  0  0  0999 V2000
    9.3938   10.2921   23.4449 C   0  0  0  0  0  0  0  0  0  0  0  0
    8.7706   11.5474   23.1523 O   0  0  0  0  0  0  0  0  0  0  0  0
    9.5889   12.5516   22.7174 C   0  0  0  0  0  0  0  0  0  0  0  0
   10.7924   12.4121   22.5713 O   0  0  0  0  0  0  0  0  0  0  0  0
    8.8184   13.8659   22.5480 C   0  0  2  0  0  0  0  0  0  0  0  0
    9.8035   15.0511   22.5053 C   0  0  0  0  0  0  0  0  0  0  0  0
   10.4214   15.1636   21.1678 C   0  0  0  0  0  0  0  0  0  0  0  0
    9.6004   15.4349   20.0988 C   0  0  0  0  0  0  0  0  0  0  0  0
   10.0851   15.2404   18.8331 C   0  0  0  0  0  0  0  0  0  0  0  0
   11.3338   14.8410   18.5730 N   0  0  0  0  0  0  0  0  0  0  0  0
   12.1246   14.6805   19.6442 C   0  0  0  0  0  0  0  0  0  0  0  0
   11.7390   14.8492   20.9493 C   0  0  0  0  0  0  0  0  0  0  0  0
    7.9613   14.0669   23.6802 O   0  0  0  0  0  0  0  0  0  0  0  0
    6.7732   13.4391   23.7057 C   0  0  0  0  0  0  0  0  0  0  0  0
    6.2215   12.9752   22.7193 O   0  0  0  0  0  0  0  0  0  0  0  0
    6.2758   13.2970   25.1347 C   0  0  0  0  0  0  0  0  0  0  0  0
    7.0010   12.1049   25.7714 C   0  0  0  0  0  0  0  0  0  0  0  0
    8.4630   12.4309   26.0966 C   0  0  0  0  0  0  0  0  0  0  0  0
    8.6522   13.6926   26.8351 N   0  0  0  0  0  0  0  0  0  0  0  0
    9.8578   14.8116   26.4158 S   0  0  0  0  0  0  0  0  0  0  0  0
    9.9373   15.7049   27.5408 O   0  0  0  0  0  0  0  0  0  0  0  0
    9.5373   15.3444   25.1269 O   0  0  0  0  0  0  0  0  0  0  0  0
   11.3440   14.0282   26.3077 N   0  0  0  0  0  0  0  0  0  0  0  0
   11.8012   13.3970   27.5134 C   0  0  0  0  0  0  0  0  0  0  0  0
   13.2474   12.9142   27.5204 C   0  0  0  0  0  0  0  0  0  0  0  0
   13.7374   12.3348   26.2111 C   0  0  0  0  0  0  0  0  0  0  0  0
   12.5929   12.1378   25.2535 C   0  0  0  0  0  0  0  0  0  0  0  0
   11.7498   13.3874   25.0671 C   0  0  0  0  0  0  0  0  0  0  0  0
    7.3533   14.3492   27.1996 C   0  0  0  0  0  0  0  0  0  0  0  0
    6.4556   14.5659   25.9789 C   0  0  0  0  0  0  0  0  0  0  0  0
  1  2  1  0
  2  3  1  0
  3  4  2  0
  3  5  1  0
  5  6  1  1
  6  7  1  0
  7  8  2  0
  8  9  1  0
  9 10  2  0
 10 11  1  0
 11 12  2  0
  5 13  1  0
 13 14  1  0
 14 15  2  0
 14 16  1  0
 16 17  1  0
 17 18  1  0
 18 19  1  0
 19 20  1  0
 20 21  2  0
 20 22  2  0
 20 23  1  0
 23 24  1  0
 24 25  1  0
 25 26  1  0
 26 27  1  0
 27 28  1  0
 19 29  1  0
 29 30  1  0
 12  7  1  0
 30 16  1  0
 28 23  1  0
M  END
>  <energy_score>  (1825) 
-39.080788

>  <inchikey>  (1825) 
PANRWVDCWLWUPA-UHFFFAOYSA-N

>  <smiles>  (1825) 
COC(=O)C(Cc1ccncc1)OC(=O)C1CCN(S(=O)(=O)N2CCCCC2)CC1

>  <ref_pdb>  (1825) 
A0875a

>  <alias>  (1825) 
PANRWVDCWLWUPA-UHFFFAOYSA-N-P439-P87-P439-601505

>  <HIPPO Pose ID>  (1825) 
508579

>  <name>  (1825) 
PANRWVDCWLWUPA-UHFFFAOYSA-N-P439-P87-P439-601505

>  <HIPPO Compound ID>  (1825) 
314826

>  <ref_mols>  (1825) 
A4706a,A0875a

>  <distance_score>  (1825) 
1.658002

>  <inspiration_score>  (1825) 
None

$$$$
YQHDYVKSXOVWBM-UHFFFAOYSA-N-P439-P87-P439-601505
     RDKit          3D

 30 32  0  0  0  0  0  0  0  0999 V2000
    4.4734   15.1500   22.4081 C   0  0  0  0  0  0  0  0  0  0  0  0
    5.6651   15.4492   21.7048 O   0  0  0  0  0  0  0  0  0  0  0  0
    6.6723   16.1737   22.4408 C   0  0  0  0  0  0  0  0  0  0  0  0
    7.7913   15.2367   22.9909 C   0  0  1  0  0  0  0  0  0  0  0  0
    7.1439   14.0388   23.4827 O   0  0  0  0  0  0  0  0  0  0  0  0
    6.4470   14.2750   24.6294 C   0  0  0  0  0  0  0  0  0  0  0  0
    6.2580   15.3920   25.1065 O   0  0  0  0  0  0  0  0  0  0  0  0
    5.8720   13.0414   25.3027 C   0  0  0  0  0  0  0  0  0  0  0  0
    6.6577   11.7404   25.1276 C   0  0  0  0  0  0  0  0  0  0  0  0
    7.6797   11.4730   26.2204 C   0  0  0  0  0  0  0  0  0  0  0  0
    8.2330   12.7383   26.7155 N   0  0  0  0  0  0  0  0  0  0  0  0
    9.4118   13.4265   25.7375 S   0  0  0  0  0  0  0  0  0  0  0  0
    9.4613   14.8344   26.0388 O   0  0  0  0  0  0  0  0  0  0  0  0
    9.1655   12.9182   24.4135 O   0  0  0  0  0  0  0  0  0  0  0  0
   10.8396   12.6841   26.2809 N   0  0  0  0  0  0  0  0  0  0  0  0
   11.7155   13.5788   27.0751 C   0  0  0  0  0  0  0  0  0  0  0  0
   13.0258   12.8974   27.4809 C   0  0  0  0  0  0  0  0  0  0  0  0
   13.8044   12.2993   26.3331 C   0  0  0  0  0  0  0  0  0  0  0  0
   12.9812   12.2546   25.0765 C   0  0  0  0  0  0  0  0  0  0  0  0
   11.5339   11.8587   25.2614 C   0  0  0  0  0  0  0  0  0  0  0  0
    7.2063   13.6340   27.3456 C   0  0  0  0  0  0  0  0  0  0  0  0
    5.8032   13.3555   26.7985 C   0  0  0  0  0  0  0  0  0  0  0  0
    8.9338   15.0149   21.9735 C   0  0  0  0  0  0  0  0  0  0  0  0
    8.5891   14.8868   20.6431 C   0  0  0  0  0  0  0  0  0  0  0  0
    9.5112   15.0289   19.6144 C   0  0  0  0  0  0  0  0  0  0  0  0
   10.8423   14.9714   19.8991 C   0  0  0  0  0  0  0  0  0  0  0  0
   11.8787   14.7495   18.5924 Cl  0  0  0  0  0  0  0  0  0  0  0  0
   11.2699   15.0078   21.2020 C   0  0  0  0  0  0  0  0  0  0  0  0
   10.3145   15.0936   22.2157 C   0  0  0  0  0  0  0  0  0  0  0  0
   10.9862   15.3421   23.7418 Cl  0  0  0  0  0  0  0  0  0  0  0  0
  1  2  1  0
  2  3  1  0
  4  3  1  6
  4  5  1  0
  5  6  1  0
  6  7  2  0
  6  8  1  0
  8  9  1  0
  9 10  1  0
 10 11  1  0
 11 12  1  0
 12 13  2  0
 12 14  2  0
 12 15  1  0
 15 16  1  0
 16 17  1  0
 17 18  1  0
 18 19  1  0
 19 20  1  0
 11 21  1  0
 21 22  1  0
  4 23  1  0
 23 24  2  0
 24 25  1  0
 25 26  2  0
 26 27  1  0
 26 28  1  0
 28 29  2  0
 29 30  1  0
 22  8  1  0
 29 23  1  0
 20 15  1  0
M  END
>  <energy_score>  (1826) 
-18.548722

>  <inchikey>  (1826) 
YQHDYVKSXOVWBM-UHFFFAOYSA-N

>  <smiles>  (1826) 
COCC(OC(=O)C1CCN(S(=O)(=O)N2CCCCC2)CC1)c1ccc(Cl)cc1Cl

>  <ref_pdb>  (1826) 
A0875a

>  <alias>  (1826) 
YQHDYVKSXOVWBM-UHFFFAOYSA-N-P439-P87-P439-601505

>  <HIPPO Pose ID>  (1826) 
508583

>  <name>  (1826) 
YQHDYVKSXOVWBM-UHFFFAOYSA-N-P439-P87-P439-601505

>  <HIPPO Compound ID>  (1826) 
314828

>  <ref_mols>  (1826) 
A4706a,A0875a

>  <distance_score>  (1826) 
1.959982

>  <inspiration_score>  (1826) 
None

$$$$
VIFWCNKARRJLCT-UHFFFAOYSA-N-P439-P87-P439-601505
     RDKit          3D

 30 32  0  0  0  0  0  0  0  0999 V2000
    4.4727   13.7184   20.9339 C   0  0  0  0  0  0  0  0  0  0  0  0
    5.8407   14.0708   21.1945 O   0  0  0  0  0  0  0  0  0  0  0  0
    5.9903   15.2505   21.8526 C   0  0  0  0  0  0  0  0  0  0  0  0
    5.0343   15.9979   22.0636 O   0  0  0  0  0  0  0  0  0  0  0  0
    7.3972   15.5221   22.4025 C   0  0  1  0  0  0  0  0  0  0  0  0
    7.2252   15.0060   23.7394 O   0  0  0  0  0  0  0  0  0  0  0  0
    6.9448   13.6839   23.8328 C   0  0  0  0  0  0  0  0  0  0  0  0
    7.2977   12.8259   23.0298 O   0  0  0  0  0  0  0  0  0  0  0  0
    6.0308   13.3702   25.0078 C   0  0  0  0  0  0  0  0  0  0  0  0
    6.3618   11.9658   25.5142 C   0  0  0  0  0  0  0  0  0  0  0  0
    7.7891   11.9067   26.0258 C   0  0  0  0  0  0  0  0  0  0  0  0
    8.1304   13.1250   26.7700 N   0  0  0  0  0  0  0  0  0  0  0  0
    9.4709   14.0428   26.3836 S   0  0  0  0  0  0  0  0  0  0  0  0
    9.3799   14.5307   25.0399 O   0  0  0  0  0  0  0  0  0  0  0  0
    9.6569   14.9630   27.4757 O   0  0  0  0  0  0  0  0  0  0  0  0
   10.7247   12.8999   26.4337 N   0  0  0  0  0  0  0  0  0  0  0  0
   11.0188   12.2530   25.1199 C   0  0  0  0  0  0  0  0  0  0  0  0
   12.3605   12.7348   24.6160 C   0  0  0  0  0  0  0  0  0  0  0  0
   13.4678   12.2397   25.5347 C   0  0  0  0  0  0  0  0  0  0  0  0
   13.1491   12.5975   26.9777 C   0  0  0  0  0  0  0  0  0  0  0  0
   11.9211   13.4896   27.1040 C   0  0  0  0  0  0  0  0  0  0  0  0
    6.9705   13.8726   27.3024 C   0  0  0  0  0  0  0  0  0  0  0  0
    6.0981   14.3764   26.1636 C   0  0  0  0  0  0  0  0  0  0  0  0
    8.7357   15.2150   21.7096 C   0  0  0  0  0  0  0  0  0  0  0  0
    8.8171   14.9049   20.3665 C   0  0  0  0  0  0  0  0  0  0  0  0
   10.0083   14.8859   19.6262 C   0  0  0  0  0  0  0  0  0  0  0  0
   11.2024   15.0547   20.2743 C   0  0  0  0  0  0  0  0  0  0  0  0
   11.1974   15.2921   21.6361 C   0  0  0  0  0  0  0  0  0  0  0  0
   12.4039   15.5843   22.2580 N   0  0  0  0  0  0  0  0  0  0  0  0
    9.9782   15.4369   22.3187 C   0  0  0  0  0  0  0  0  0  0  0  0
  1  2  1  0
  2  3  1  0
  3  4  2  0
  3  5  1  0
  5  6  1  1
  6  7  1  0
  7  8  2  0
  7  9  1  0
  9 10  1  0
 10 11  1  0
 11 12  1  0
 12 13  1  0
 13 14  2  0
 13 15  2  0
 13 16  1  0
 16 17  1  0
 17 18  1  0
 18 19  1  0
 19 20  1  0
 20 21  1  0
 12 22  1  0
 22 23  1  0
  5 24  1  0
 24 25  2  0
 25 26  1  0
 26 27  2  0
 27 28  1  0
 28 29  1  0
 28 30  2  0
 23  9  1  0
 30 24  1  0
 21 16  1  0
M  END
>  <energy_score>  (1827) 
-22.276164

>  <inchikey>  (1827) 
VIFWCNKARRJLCT-UHFFFAOYSA-N

>  <smiles>  (1827) 
COC(=O)C(OC(=O)C1CCN(S(=O)(=O)N2CCCCC2)CC1)c1cccc(N)c1

>  <ref_pdb>  (1827) 
A0875a

>  <alias>  (1827) 
VIFWCNKARRJLCT-UHFFFAOYSA-N-P439-P87-P439-601505

>  <HIPPO Pose ID>  (1827) 
508633

>  <name>  (1827) 
VIFWCNKARRJLCT-UHFFFAOYSA-N-P439-P87-P439-601505

>  <HIPPO Compound ID>  (1827) 
314853

>  <ref_mols>  (1827) 
A4706a,A0875a

>  <distance_score>  (1827) 
1.639847

>  <inspiration_score>  (1827) 
None

$$$$
UKXNDOPIMLXVHO-UHFFFAOYSA-N-P439-P87-P439-601505
     RDKit          3D

 30 32  0  0  0  0  0  0  0  0999 V2000
    7.8091   19.4551   19.2316 C   0  0  0  0  0  0  0  0  0  0  0  0
    8.1986   18.1641   19.6609 O   0  0  0  0  0  0  0  0  0  0  0  0
    8.3429   18.0667   21.0103 C   0  0  0  0  0  0  0  0  0  0  0  0
    8.5272   19.0509   21.7024 O   0  0  0  0  0  0  0  0  0  0  0  0
    8.2464   16.5886   21.4768 C   0  0  2  0  0  0  0  0  0  0  0  0
    7.5188   16.2673   22.6930 O   0  0  0  0  0  0  0  0  0  0  0  0
    6.9881   15.0191   22.8145 C   0  0  0  0  0  0  0  0  0  0  0  0
    7.1821   14.0868   22.0339 O   0  0  0  0  0  0  0  0  0  0  0  0
    5.9979   14.8902   23.9936 C   0  0  0  0  0  0  0  0  0  0  0  0
    5.7473   13.4052   24.3223 C   0  0  0  0  0  0  0  0  0  0  0  0
    6.9415   12.7637   25.0271 C   0  0  0  0  0  0  0  0  0  0  0  0
    7.4947   13.6004   26.1357 N   0  0  0  0  0  0  0  0  0  0  0  0
    9.0710   14.1974   25.9599 S   0  0  0  0  0  0  0  0  0  0  0  0
    9.1943   14.6701   24.6095 O   0  0  0  0  0  0  0  0  0  0  0  0
    9.3299   15.0850   27.0667 O   0  0  0  0  0  0  0  0  0  0  0  0
   10.1419   12.8887   26.1350 N   0  0  0  0  0  0  0  0  0  0  0  0
   11.5294   13.4598   26.2651 C   0  0  0  0  0  0  0  0  0  0  0  0
   12.6026   12.4000   26.3778 C   0  0  0  0  0  0  0  0  0  0  0  0
   12.4663   11.4165   25.2442 C   0  0  0  0  0  0  0  0  0  0  0  0
   11.0474   10.8304   25.1075 C   0  0  0  0  0  0  0  0  0  0  0  0
   10.0140   11.9109   25.0389 C   0  0  0  0  0  0  0  0  0  0  0  0
    6.5465   14.7023   26.4927 C   0  0  0  0  0  0  0  0  0  0  0  0
    6.3388   15.6392   25.2918 C   0  0  0  0  0  0  0  0  0  0  0  0
    9.6125   15.9672   21.3375 C   0  0  0  0  0  0  0  0  0  0  0  0
   10.0246   15.4475   20.1102 C   0  0  0  0  0  0  0  0  0  0  0  0
   11.1059   14.6015   20.0940 C   0  0  0  0  0  0  0  0  0  0  0  0
   11.7115   14.2917   21.3121 C   0  0  0  0  0  0  0  0  0  0  0  0
   11.9012   12.9358   21.6639 N   0  0  0  0  0  0  0  0  0  0  0  0
   11.5630   15.0851   22.4165 C   0  0  0  0  0  0  0  0  0  0  0  0
   10.4628   15.8838   22.4304 C   0  0  0  0  0  0  0  0  0  0  0  0
  1  2  1  0
  2  3  1  0
  3  4  2  0
  3  5  1  0
  5  6  1  1
  6  7  1  0
  7  8  2  0
  7  9  1  0
  9 10  1  0
 10 11  1  0
 11 12  1  0
 12 13  1  0
 13 14  2  0
 13 15  2  0
 13 16  1  0
 16 17  1  0
 17 18  1  0
 18 19  1  0
 19 20  1  0
 20 21  1  0
 12 22  1  0
 22 23  1  0
  5 24  1  0
 24 25  2  0
 25 26  1  0
 26 27  2  0
 27 28  1  0
 27 29  1  0
 29 30  2  0
 23  9  1  0
 30 24  1  0
 21 16  1  0
M  END
>  <energy_score>  (1828) 
-13.235555

>  <inchikey>  (1828) 
UKXNDOPIMLXVHO-UHFFFAOYSA-N

>  <smiles>  (1828) 
COC(=O)C(OC(=O)C1CCN(S(=O)(=O)N2CCCCC2)CC1)c1ccc(N)cc1

>  <ref_pdb>  (1828) 
A0875a

>  <alias>  (1828) 
UKXNDOPIMLXVHO-UHFFFAOYSA-N-P439-P87-P439-601505

>  <HIPPO Pose ID>  (1828) 
508637

>  <name>  (1828) 
UKXNDOPIMLXVHO-UHFFFAOYSA-N-P439-P87-P439-601505

>  <HIPPO Compound ID>  (1828) 
314855

>  <ref_mols>  (1828) 
A4706a,A0875a

>  <distance_score>  (1828) 
1.70431

>  <inspiration_score>  (1828) 
None

$$$$
XUESOAMUKWESFA-UHFFFAOYSA-N-P439-P87-P439-601505
     RDKit          3D

 30 33  0  0  0  0  0  0  0  0999 V2000
   11.7970   13.5421   21.9683 C   0  0  0  0  0  0  0  0  0  0  0  0
   10.3459   13.9164   21.8899 C   0  0  0  0  0  0  0  0  0  0  0  0
    9.5176   12.8459   22.4152 O   0  0  0  0  0  0  0  0  0  0  0  0
    8.1869   13.1218   22.6632 C   0  0  0  0  0  0  0  0  0  0  0  0
    7.3065   13.2797   21.8340 O   0  0  0  0  0  0  0  0  0  0  0  0
    7.9608   13.0951   24.1235 C   0  0  0  0  0  0  0  0  0  0  0  0
    7.8196   11.7056   24.7073 C   0  0  0  0  0  0  0  0  0  0  0  0
    8.2085   11.7795   26.1740 C   0  0  0  0  0  0  0  0  0  0  0  0
    8.1585   13.1707   26.6638 N   0  0  0  0  0  0  0  0  0  0  0  0
    9.5121   14.1574   26.8693 S   0  0  0  0  0  0  0  0  0  0  0  0
    9.6125   15.1023   25.7865 O   0  0  0  0  0  0  0  0  0  0  0  0
    9.3987   14.6438   28.2199 O   0  0  0  0  0  0  0  0  0  0  0  0
   10.9009   13.1236   26.7943 N   0  0  0  0  0  0  0  0  0  0  0  0
   12.0045   13.7660   27.5833 C   0  0  0  0  0  0  0  0  0  0  0  0
   13.2540   12.8833   27.6381 C   0  0  0  0  0  0  0  0  0  0  0  0
   13.7389   12.3929   26.2952 C   0  0  0  0  0  0  0  0  0  0  0  0
   12.5932   11.9078   25.4361 C   0  0  0  0  0  0  0  0  0  0  0  0
   11.4017   12.8533   25.4199 C   0  0  0  0  0  0  0  0  0  0  0  0
    6.9203   13.8932   26.2420 C   0  0  0  0  0  0  0  0  0  0  0  0
    6.9070   14.0289   24.7118 C   0  0  0  0  0  0  0  0  0  0  0  0
    9.9942   14.2686   20.4559 C   0  0  0  0  0  0  0  0  0  0  0  0
   10.5957   15.4908   20.1274 O   0  0  0  0  0  0  0  0  0  0  0  0
    9.6872   16.4329   20.4564 C   0  0  0  0  0  0  0  0  0  0  0  0
    9.5917   17.4257   19.5406 C   0  0  0  0  0  0  0  0  0  0  0  0
    8.7943   18.5164   19.7297 C   0  0  0  0  0  0  0  0  0  0  0  0
    8.1995   18.6228   20.9244 C   0  0  0  0  0  0  0  0  0  0  0  0
    8.0112   17.4881   21.6895 C   0  0  0  0  0  0  0  0  0  0  0  0
    8.8861   16.4606   21.5668 C   0  0  0  0  0  0  0  0  0  0  0  0
    8.9609   15.6530   22.6516 O   0  0  0  0  0  0  0  0  0  0  0  0
   10.2670   15.1481   22.7786 C   0  0  0  0  0  0  0  0  0  0  0  0
  1  2  1  0
  2  3  1  0
  3  4  1  0
  4  5  2  0
  4  6  1  0
  6  7  1  0
  7  8  1  0
  8  9  1  0
  9 10  1  0
 10 11  2  0
 10 12  2  0
 10 13  1  0
 13 14  1  0
 14 15  1  0
 15 16  1  0
 16 17  1  0
 17 18  1  0
  9 19  1  0
 19 20  1  0
  2 21  1  0
 21 22  1  0
 22 23  1  0
 23 24  2  0
 24 25  1  0
 25 26  2  0
 26 27  1  0
 27 28  2  0
 28 29  1  0
 29 30  1  0
 30  2  1  0
 20  6  1  0
 28 23  1  0
 18 13  1  0
M  END
>  <energy_score>  (1829) 
-6.337184

>  <inchikey>  (1829) 
XUESOAMUKWESFA-UHFFFAOYSA-N

>  <smiles>  (1829) 
CC1(OC(=O)C2CCN(S(=O)(=O)N3CCCCC3)CC2)COc2ccccc2OC1

>  <ref_pdb>  (1829) 
A0875a

>  <alias>  (1829) 
XUESOAMUKWESFA-UHFFFAOYSA-N-P439-P87-P439-601505

>  <HIPPO Pose ID>  (1829) 
508653

>  <name>  (1829) 
XUESOAMUKWESFA-UHFFFAOYSA-N-P439-P87-P439-601505

>  <HIPPO Compound ID>  (1829) 
314863

>  <ref_mols>  (1829) 
A4706a,A0875a

>  <distance_score>  (1829) 
1.99478

>  <inspiration_score>  (1829) 
None

$$$$
NEIOCROZIHOHKL-UHFFFAOYSA-N-P87-P87-P439-601505
     RDKit          3D

 30 32  0  0  0  0  0  0  0  0999 V2000
   15.0528   13.5817   28.6827 C   0  0  0  0  0  0  0  0  0  0  0  0
   15.4612   12.2555   28.0162 C   0  0  0  0  0  0  0  0  0  0  0  0
   16.8844   12.4210   27.4637 C   0  0  0  0  0  0  0  0  0  0  0  0
   15.3734   11.1180   29.0629 C   0  0  0  0  0  0  0  0  0  0  0  0
   16.1777   11.4215   30.2040 O   0  0  0  0  0  0  0  0  0  0  0  0
   16.1015   10.5607   31.2590 C   0  0  0  0  0  0  0  0  0  0  0  0
   15.3446    9.3983   31.3327 C   0  0  0  0  0  0  0  0  0  0  0  0
   15.3850    8.6274   32.4965 C   0  0  0  0  0  0  0  0  0  0  0  0
   16.1751    9.0432   33.5585 C   0  0  0  0  0  0  0  0  0  0  0  0
   16.2545    8.2857   34.7226 N   0  0  0  0  0  0  0  0  0  0  0  0
   16.9192   10.1577   33.5155 N   0  0  0  0  0  0  0  0  0  0  0  0
   16.8667   10.8863   32.3728 C   0  0  0  0  0  0  0  0  0  0  0  0
   14.5016   12.0630   26.9231 O   0  0  0  0  0  0  0  0  0  0  0  0
   14.6166   11.0080   26.0884 C   0  0  0  0  0  0  0  0  0  0  0  0
   15.3832   10.0690   26.2530 O   0  0  0  0  0  0  0  0  0  0  0  0
   13.6380   11.0001   24.9183 C   0  0  0  0  0  0  0  0  0  0  0  0
   13.3365   12.4020   24.4805 C   0  0  0  0  0  0  0  0  0  0  0  0
   12.1700   12.9142   25.2527 C   0  0  0  0  0  0  0  0  0  0  0  0
   10.9494   12.2043   24.9055 N   0  0  0  0  0  0  0  0  0  0  0  0
    9.5939   13.1534   24.6970 S   0  0  0  0  0  0  0  0  0  0  0  0
   10.0015   14.4749   25.0709 O   0  0  0  0  0  0  0  0  0  0  0  0
    8.4988   12.5118   25.3809 O   0  0  0  0  0  0  0  0  0  0  0  0
    9.3027   13.1738   23.0373 N   0  0  0  0  0  0  0  0  0  0  0  0
    8.1543   14.0788   22.6551 C   0  0  0  0  0  0  0  0  0  0  0  0
    8.5794   15.2275   21.7487 C   0  0  0  0  0  0  0  0  0  0  0  0
    9.8637   15.8568   22.2229 C   0  0  0  0  0  0  0  0  0  0  0  0
   10.9985   14.8497   22.2158 C   0  0  0  0  0  0  0  0  0  0  0  0
   10.4689   13.4295   22.1525 C   0  0  0  0  0  0  0  0  0  0  0  0
   10.9877   10.8081   24.5100 C   0  0  0  0  0  0  0  0  0  0  0  0
   12.3296   10.1117   24.8796 C   0  0  0  0  0  0  0  0  0  0  0  0
  1  2  1  0
  2  3  1  0
  2  4  1  0
  4  5  1  0
  5  6  1  0
  6  7  2  0
  7  8  1  0
  8  9  2  0
  9 10  1  0
  9 11  1  0
 11 12  2  0
  2 13  1  0
 13 14  1  0
 14 15  2  0
 14 16  1  0
 16 17  1  0
 17 18  1  0
 18 19  1  0
 19 20  1  0
 20 21  2  0
 20 22  2  0
 20 23  1  0
 23 24  1  0
 24 25  1  0
 25 26  1  0
 26 27  1  0
 27 28  1  0
 19 29  1  0
 29 30  1  0
 12  6  1  0
 30 16  1  0
 28 23  1  0
M  END
>  <energy_score>  (1830) 
-72.491303

>  <inchikey>  (1830) 
NEIOCROZIHOHKL-UHFFFAOYSA-N

>  <smiles>  (1830) 
CC(C)(COc1ccc(N)nc1)OC(=O)C1CCN(S(=O)(=O)N2CCCCC2)CC1

>  <ref_pdb>  (1830) 
A0875a

>  <alias>  (1830) 
NEIOCROZIHOHKL-UHFFFAOYSA-N-P87-P87-P439-601505

>  <HIPPO Pose ID>  (1830) 
508654

>  <name>  (1830) 
NEIOCROZIHOHKL-UHFFFAOYSA-N-P87-P87-P439-601505

>  <HIPPO Compound ID>  (1830) 
314864

>  <ref_mols>  (1830) 
A4706a,A0875a

>  <distance_score>  (1830) 
1.938733

>  <inspiration_score>  (1830) 
None

$$$$
MDOQPYBZPKQZOK-UHFFFAOYSA-N-P439-P87-P439-601505
     RDKit          3D

 30 33  0  0  0  0  0  0  0  0999 V2000
    9.6064   15.8797   19.6307 C   0  0  0  0  0  0  0  0  0  0  0  0
    9.9617   15.2599   20.8791 N   0  0  0  0  0  0  0  0  0  0  0  0
    9.3034   15.2836   22.1098 C   0  0  0  0  0  0  0  0  0  0  0  0
    7.8058   15.1456   22.3763 C   0  0  1  0  0  0  0  0  0  0  0  0
    7.5180   14.7267   23.7601 O   0  0  0  0  0  0  0  0  0  0  0  0
    6.7271   13.6475   24.0333 C   0  0  0  0  0  0  0  0  0  0  0  0
    6.5292   12.6870   23.2973 O   0  0  0  0  0  0  0  0  0  0  0  0
    6.0309   13.6956   25.3793 C   0  0  0  0  0  0  0  0  0  0  0  0
    6.0567   12.2635   25.9460 C   0  0  0  0  0  0  0  0  0  0  0  0
    7.4920   11.7803   26.1628 C   0  0  0  0  0  0  0  0  0  0  0  0
    8.3383   12.9071   26.6188 N   0  0  0  0  0  0  0  0  0  0  0  0
    9.5711   13.4515   25.6183 S   0  0  0  0  0  0  0  0  0  0  0  0
    9.7179   14.8528   25.9171 O   0  0  0  0  0  0  0  0  0  0  0  0
    9.3282   12.9667   24.2872 O   0  0  0  0  0  0  0  0  0  0  0  0
   10.9142   12.6362   26.2442 N   0  0  0  0  0  0  0  0  0  0  0  0
   11.6055   11.7722   25.2656 C   0  0  0  0  0  0  0  0  0  0  0  0
   13.0321   12.2079   25.0379 C   0  0  0  0  0  0  0  0  0  0  0  0
   13.8842   12.2754   26.2768 C   0  0  0  0  0  0  0  0  0  0  0  0
   13.0989   12.8115   27.4518 C   0  0  0  0  0  0  0  0  0  0  0  0
   11.7996   13.5094   27.0539 C   0  0  0  0  0  0  0  0  0  0  0  0
    7.5802   13.9650   27.3425 C   0  0  0  0  0  0  0  0  0  0  0  0
    6.6202   14.6727   26.3951 C   0  0  0  0  0  0  0  0  0  0  0  0
    6.9437   16.3734   22.2543 C   0  0  0  0  0  0  0  0  0  0  0  0
    5.5602   15.7564   22.1057 C   0  0  0  0  0  0  0  0  0  0  0  0
    5.7267   14.5314   21.3847 O   0  0  0  0  0  0  0  0  0  0  0  0
    7.1396   14.2675   21.3416 C   0  0  0  0  0  0  0  0  0  0  0  0
   10.3962   15.3921   22.9587 C   0  0  0  0  0  0  0  0  0  0  0  0
   11.5759   15.0185   22.3732 N   0  0  0  0  0  0  0  0  0  0  0  0
   11.2394   14.8656   21.1236 C   0  0  0  0  0  0  0  0  0  0  0  0
   12.1798   14.3645   19.8150 Cl  0  0  0  0  0  0  0  0  0  0  0  0
  1  2  1  0
  2  3  1  0
  3  4  1  0
  4  5  1  1
  5  6  1  0
  6  7  2  0
  6  8  1  0
  8  9  1  0
  9 10  1  0
 10 11  1  0
 11 12  1  0
 12 13  2  0
 12 14  2  0
 12 15  1  0
 15 16  1  0
 16 17  1  0
 17 18  1  0
 18 19  1  0
 19 20  1  0
 11 21  1  0
 21 22  1  0
  4 23  1  0
 23 24  1  0
 24 25  1  0
 25 26  1  0
  3 27  2  0
 27 28  1  0
 28 29  2  0
 29 30  1  0
 29  2  1  0
 26  4  1  0
 22  8  1  0
 20 15  1  0
M  END
>  <energy_score>  (1831) 
-24.906

>  <inchikey>  (1831) 
MDOQPYBZPKQZOK-UHFFFAOYSA-N

>  <smiles>  (1831) 
Cn1c(C2(OC(=O)C3CCN(S(=O)(=O)N4CCCCC4)CC3)CCOC2)cnc1Cl

>  <ref_pdb>  (1831) 
A0875a

>  <alias>  (1831) 
MDOQPYBZPKQZOK-UHFFFAOYSA-N-P439-P87-P439-601505

>  <HIPPO Pose ID>  (1831) 
508665

>  <name>  (1831) 
MDOQPYBZPKQZOK-UHFFFAOYSA-N-P439-P87-P439-601505

>  <HIPPO Compound ID>  (1831) 
314869

>  <ref_mols>  (1831) 
A4706a,A0875a

>  <distance_score>  (1831) 
1.801096

>  <inspiration_score>  (1831) 
None

$$$$
BSHJZHKTHJUYIQ-UHFFFAOYSA-N-P439-P87-P439-601505
     RDKit          3D

 30 32  0  0  0  0  0  0  0  0999 V2000
    9.7005   10.2356   22.4866 N   0  0  0  0  0  0  0  0  0  0  0  0
    9.4787   11.3744   23.3309 C   0  0  0  0  0  0  0  0  0  0  0  0
    9.6488   12.8228   22.7326 C   0  0  2  0  0  0  0  0  0  0  0  0
   11.1303   13.2433   22.5955 C   0  0  0  0  0  0  0  0  0  0  0  0
   11.4332   14.6310   22.5930 O   0  0  0  0  0  0  0  0  0  0  0  0
   11.0201   15.1448   21.4056 C   0  0  0  0  0  0  0  0  0  0  0  0
   11.5157   14.6934   20.1824 C   0  0  0  0  0  0  0  0  0  0  0  0
   10.8355   14.9891   19.0274 C   0  0  0  0  0  0  0  0  0  0  0  0
    9.7368   15.8200   19.1254 C   0  0  0  0  0  0  0  0  0  0  0  0
    9.4138   16.4602   20.3203 C   0  0  0  0  0  0  0  0  0  0  0  0
    8.5023   17.4380   20.3651 F   0  0  0  0  0  0  0  0  0  0  0  0
   10.0063   16.0679   21.4835 C   0  0  0  0  0  0  0  0  0  0  0  0
    8.7938   13.6675   23.5315 O   0  0  0  0  0  0  0  0  0  0  0  0
    7.4679   13.4907   23.2336 C   0  0  0  0  0  0  0  0  0  0  0  0
    7.0416   13.0733   22.1600 O   0  0  0  0  0  0  0  0  0  0  0  0
    6.5152   13.7424   24.3772 C   0  0  0  0  0  0  0  0  0  0  0  0
    6.6462   12.6358   25.4387 C   0  0  0  0  0  0  0  0  0  0  0  0
    7.8583   12.7920   26.3759 C   0  0  0  0  0  0  0  0  0  0  0  0
    8.4927   14.0951   26.1426 N   0  0  0  0  0  0  0  0  0  0  0  0
    9.8754   14.5934   26.9215 S   0  0  0  0  0  0  0  0  0  0  0  0
   10.4175   15.6615   26.1153 O   0  0  0  0  0  0  0  0  0  0  0  0
    9.4832   14.7949   28.2927 O   0  0  0  0  0  0  0  0  0  0  0  0
   11.0583   13.3500   26.9358 N   0  0  0  0  0  0  0  0  0  0  0  0
   11.5897   13.1203   25.5966 C   0  0  0  0  0  0  0  0  0  0  0  0
   12.6186   12.0012   25.5646 C   0  0  0  0  0  0  0  0  0  0  0  0
   13.8110   12.3299   26.4279 C   0  0  0  0  0  0  0  0  0  0  0  0
   13.3726   12.8001   27.8022 C   0  0  0  0  0  0  0  0  0  0  0  0
   12.1894   13.7808   27.8298 C   0  0  0  0  0  0  0  0  0  0  0  0
    7.4544   15.1744   26.2043 C   0  0  0  0  0  0  0  0  0  0  0  0
    6.6522   15.1506   24.9235 C   0  0  0  0  0  0  0  0  0  0  0  0
  1  2  1  0
  3  2  1  1
  3  4  1  0
  4  5  1  0
  5  6  1  0
  6  7  2  0
  7  8  1  0
  8  9  2  0
  9 10  1  0
 10 11  1  0
 10 12  2  0
  3 13  1  0
 13 14  1  0
 14 15  2  0
 14 16  1  0
 16 17  1  0
 17 18  1  0
 18 19  1  0
 19 20  1  0
 20 21  2  0
 20 22  2  0
 20 23  1  0
 23 24  1  0
 24 25  1  0
 25 26  1  0
 26 27  1  0
 27 28  1  0
 19 29  1  0
 29 30  1  0
 12  6  1  0
 30 16  1  0
 28 23  1  0
M  END
>  <energy_score>  (1832) 
-33.152935

>  <inchikey>  (1832) 
BSHJZHKTHJUYIQ-UHFFFAOYSA-N

>  <smiles>  (1832) 
NCC(COc1cccc(F)c1)OC(=O)C1CCN(S(=O)(=O)N2CCCCC2)CC1

>  <ref_pdb>  (1832) 
A0875a

>  <alias>  (1832) 
BSHJZHKTHJUYIQ-UHFFFAOYSA-N-P439-P87-P439-601505

>  <HIPPO Pose ID>  (1832) 
508671

>  <name>  (1832) 
BSHJZHKTHJUYIQ-UHFFFAOYSA-N-P439-P87-P439-601505

>  <HIPPO Compound ID>  (1832) 
314872

>  <ref_mols>  (1832) 
A4706a,A0875a

>  <distance_score>  (1832) 
1.998099

>  <inspiration_score>  (1832) 
None

$$$$
RSGSAXZTPQLTSG-UHFFFAOYSA-N-P87-P87-P439-601505
     RDKit          3D

 30 31  0  0  0  0  0  0  0  0999 V2000
   18.5635   17.5805   27.9033 C   0  0  0  0  0  0  0  0  0  0  0  0
   19.2021   16.5593   28.8263 C   0  0  0  0  0  0  0  0  0  0  0  0
   18.1972   15.6942   29.3756 O   0  0  0  0  0  0  0  0  0  0  0  0
   17.8638   14.6144   28.6111 C   0  0  0  0  0  0  0  0  0  0  0  0
   18.3628   14.3377   27.5272 O   0  0  0  0  0  0  0  0  0  0  0  0
   16.7725   13.7911   29.3060 C   0  0  1  0  0  0  0  0  0  0  0  0
   15.4975   14.6118   29.4331 C   0  0  0  0  0  0  0  0  0  0  0  0
   16.4286   12.6239   28.5420 O   0  0  0  0  0  0  0  0  0  0  0  0
   17.3953   11.6562   28.5204 C   0  0  0  0  0  0  0  0  0  0  0  0
   18.3749   11.6456   29.2536 O   0  0  0  0  0  0  0  0  0  0  0  0
   17.0410   10.5742   27.4994 C   0  0  2  0  0  0  0  0  0  0  0  0
   18.2914    9.8428   27.0369 C   0  0  0  0  0  0  0  0  0  0  0  0
   16.3642   11.2088   26.3937 O   0  0  0  0  0  0  0  0  0  0  0  0
   15.5035   10.4536   25.6887 C   0  0  0  0  0  0  0  0  0  0  0  0
   15.4424    9.2333   25.7348 O   0  0  0  0  0  0  0  0  0  0  0  0
   14.5238   11.2527   24.8442 C   0  0  0  0  0  0  0  0  0  0  0  0
   14.2768   12.6631   25.3016 C   0  0  0  0  0  0  0  0  0  0  0  0
   13.0835   12.8084   26.3030 C   0  0  0  0  0  0  0  0  0  0  0  0
   11.7510   12.4751   25.6678 N   0  0  0  0  0  0  0  0  0  0  0  0
   10.6961   13.7892   25.4171 S   0  0  0  0  0  0  0  0  0  0  0  0
   11.0647   14.3904   24.1594 O   0  0  0  0  0  0  0  0  0  0  0  0
   10.7077   14.5018   26.6785 O   0  0  0  0  0  0  0  0  0  0  0  0
    9.1443   13.2745   25.2441 N   0  0  0  0  0  0  0  0  0  0  0  0
    8.3460   13.8586   24.1425 C   0  0  0  0  0  0  0  0  0  0  0  0
    8.6028   13.0563   22.8997 C   0  0  0  0  0  0  0  0  0  0  0  0
    8.9757   11.6394   23.3297 C   0  0  0  0  0  0  0  0  0  0  0  0
    8.2206   11.1776   24.5633 C   0  0  0  0  0  0  0  0  0  0  0  0
    8.6569   12.0087   25.7249 C   0  0  0  0  0  0  0  0  0  0  0  0
   11.9509   11.5102   24.5800 C   0  0  0  0  0  0  0  0  0  0  0  0
   13.1545   10.6244   24.9041 C   0  0  0  0  0  0  0  0  0  0  0  0
  1  2  1  0
  2  3  1  0
  3  4  1  0
  4  5  2  0
  4  6  1  0
  6  7  1  6
  6  8  1  0
  8  9  1  0
  9 10  2  0
  9 11  1  0
 11 12  1  6
 11 13  1  0
 13 14  1  0
 14 15  2  0
 14 16  1  0
 16 17  1  0
 17 18  1  0
 18 19  1  0
 19 20  1  0
 20 21  2  0
 20 22  2  0
 20 23  1  0
 23 24  1  0
 24 25  1  0
 25 26  1  0
 26 27  1  0
 27 28  1  0
 19 29  1  0
 29 30  1  0
 30 16  1  0
 28 23  1  0
M  END
>  <energy_score>  (1833) 
-28.903435

>  <inchikey>  (1833) 
RSGSAXZTPQLTSG-UHFFFAOYSA-N

>  <smiles>  (1833) 
CCOC(=O)C(C)OC(=O)C(C)OC(=O)C1CCN(S(=O)(=O)N2CCCCC2)CC1

>  <ref_pdb>  (1833) 
A0875a

>  <alias>  (1833) 
RSGSAXZTPQLTSG-UHFFFAOYSA-N-P87-P87-P439-601505

>  <HIPPO Pose ID>  (1833) 
508684

>  <name>  (1833) 
RSGSAXZTPQLTSG-UHFFFAOYSA-N-P87-P87-P439-601505

>  <HIPPO Compound ID>  (1833) 
314879

>  <ref_mols>  (1833) 
A4706a,A0875a

>  <distance_score>  (1833) 
1.949784

>  <inspiration_score>  (1833) 
None

$$$$
UILMXVIVNUZVFT-UHFFFAOYSA-N-P439-P87-P439-601505
     RDKit          3D

 30 32  0  0  0  0  0  0  0  0999 V2000
    8.3852   18.3373   21.0061 C   0  0  0  0  0  0  0  0  0  0  0  0
    8.2864   16.9240   21.1608 O   0  0  0  0  0  0  0  0  0  0  0  0
    7.5196   16.3359   22.0988 C   0  0  0  0  0  0  0  0  0  0  0  0
    6.6808   16.8628   22.8205 O   0  0  0  0  0  0  0  0  0  0  0  0
    7.8191   14.8444   22.1540 C   0  0  1  0  0  0  0  0  0  0  0  0
    9.3275   14.4250   21.9856 C   0  0  0  0  0  0  0  0  0  0  0  0
    9.7785   14.7618   20.5811 C   0  0  0  0  0  0  0  0  0  0  0  0
   10.7259   14.1848   19.4783 C   0  0  0  0  0  0  0  0  0  0  0  0
   10.8021   15.6325   19.0317 C   0  0  0  0  0  0  0  0  0  0  0  0
   11.8386   15.8721   18.2354 F   0  0  0  0  0  0  0  0  0  0  0  0
    9.7097   16.1296   18.4098 F   0  0  0  0  0  0  0  0  0  0  0  0
   10.8509   15.8783   20.5677 C   0  0  0  0  0  0  0  0  0  0  0  0
    7.2832   14.5261   23.4611 O   0  0  0  0  0  0  0  0  0  0  0  0
    6.2818   13.6215   23.5017 C   0  0  0  0  0  0  0  0  0  0  0  0
    5.9026   12.9893   22.5226 O   0  0  0  0  0  0  0  0  0  0  0  0
    5.7438   13.3858   24.9130 C   0  0  0  0  0  0  0  0  0  0  0  0
    6.2458   12.0580   25.4953 C   0  0  0  0  0  0  0  0  0  0  0  0
    7.2882   12.1868   26.6004 C   0  0  0  0  0  0  0  0  0  0  0  0
    8.1290   13.3965   26.4663 N   0  0  0  0  0  0  0  0  0  0  0  0
    9.2765   13.3815   25.2389 S   0  0  0  0  0  0  0  0  0  0  0  0
    8.6841   12.6311   24.1601 O   0  0  0  0  0  0  0  0  0  0  0  0
    9.8155   14.7112   25.0750 O   0  0  0  0  0  0  0  0  0  0  0  0
   10.5232   12.3734   25.8279 N   0  0  0  0  0  0  0  0  0  0  0  0
   10.6050   11.1763   24.9290 C   0  0  0  0  0  0  0  0  0  0  0  0
   11.7603   10.2662   25.2679 C   0  0  0  0  0  0  0  0  0  0  0  0
   13.0867   11.0418   25.4313 C   0  0  0  0  0  0  0  0  0  0  0  0
   12.9510   12.2191   26.3785 C   0  0  0  0  0  0  0  0  0  0  0  0
   11.8098   13.1213   25.9430 C   0  0  0  0  0  0  0  0  0  0  0  0
    7.3159   14.6428   26.5498 C   0  0  0  0  0  0  0  0  0  0  0  0
    5.9411   14.5416   25.8910 C   0  0  0  0  0  0  0  0  0  0  0  0
  1  2  1  0
  2  3  1  0
  3  4  2  0
  3  5  1  0
  5  6  1  1
  6  7  1  0
  7  8  1  0
  8  9  1  0
  9 10  1  0
  9 11  1  0
  9 12  1  0
  5 13  1  0
 13 14  1  0
 14 15  2  0
 14 16  1  0
 16 17  1  0
 17 18  1  0
 18 19  1  0
 19 20  1  0
 20 21  2  0
 20 22  2  0
 20 23  1  0
 23 24  1  0
 24 25  1  0
 25 26  1  0
 26 27  1  0
 27 28  1  0
 19 29  1  0
 29 30  1  0
 12  7  1  0
 30 16  1  0
 28 23  1  0
M  END
>  <energy_score>  (1834) 
-30.38943

>  <inchikey>  (1834) 
UILMXVIVNUZVFT-UHFFFAOYSA-N

>  <smiles>  (1834) 
COC(=O)C(CC1CC(F)(F)C1)OC(=O)C1CCN(S(=O)(=O)N2CCCCC2)CC1

>  <ref_pdb>  (1834) 
A0875a

>  <alias>  (1834) 
UILMXVIVNUZVFT-UHFFFAOYSA-N-P439-P87-P439-601505

>  <HIPPO Pose ID>  (1834) 
508693

>  <name>  (1834) 
UILMXVIVNUZVFT-UHFFFAOYSA-N-P439-P87-P439-601505

>  <HIPPO Compound ID>  (1834) 
314883

>  <ref_mols>  (1834) 
A4706a,A0875a

>  <distance_score>  (1834) 
1.499758

>  <inspiration_score>  (1834) 
None

$$$$
ABUCCZDQFXUAQQ-UHFFFAOYSA-N-P439-P87-P439-601505
     RDKit          3D

 30 32  0  0  0  0  0  0  0  0999 V2000
    5.4953   17.3088   25.4118 C   0  0  0  0  0  0  0  0  0  0  0  0
    6.4917   16.7057   24.5855 O   0  0  0  0  0  0  0  0  0  0  0  0
    6.0234   16.2773   23.3714 C   0  0  0  0  0  0  0  0  0  0  0  0
    5.0422   16.7711   22.8247 O   0  0  0  0  0  0  0  0  0  0  0  0
    6.7624   15.0605   22.8134 C   0  0  2  0  0  0  0  0  0  0  0  0
    5.7069   14.3748   21.9053 C   0  0  0  0  0  0  0  0  0  0  0  0
    6.7499   14.3760   24.1184 O   0  0  0  0  0  0  0  0  0  0  0  0
    6.7000   13.0501   24.1807 C   0  0  0  0  0  0  0  0  0  0  0  0
    6.9936   12.3207   23.2537 O   0  0  0  0  0  0  0  0  0  0  0  0
    6.1512   12.5612   25.5055 C   0  0  0  0  0  0  0  0  0  0  0  0
    6.9149   11.3370   25.9568 C   0  0  0  0  0  0  0  0  0  0  0  0
    8.3927   11.6373   26.0157 C   0  0  0  0  0  0  0  0  0  0  0  0
    8.7410   13.0317   26.3971 N   0  0  0  0  0  0  0  0  0  0  0  0
    9.9097   13.7397   25.4005 S   0  0  0  0  0  0  0  0  0  0  0  0
   10.1214   15.1069   25.8092 O   0  0  0  0  0  0  0  0  0  0  0  0
    9.6245   13.3240   24.0556 O   0  0  0  0  0  0  0  0  0  0  0  0
   11.2815   12.8609   25.8961 N   0  0  0  0  0  0  0  0  0  0  0  0
   12.2396   12.6877   24.7852 C   0  0  0  0  0  0  0  0  0  0  0  0
   13.2553   11.6498   25.2373 C   0  0  0  0  0  0  0  0  0  0  0  0
   14.0855   12.2128   26.3662 C   0  0  0  0  0  0  0  0  0  0  0  0
   13.1961   12.6943   27.4987 C   0  0  0  0  0  0  0  0  0  0  0  0
   11.9357   13.4594   27.0810 C   0  0  0  0  0  0  0  0  0  0  0  0
    7.7052   13.9756   26.9023 C   0  0  0  0  0  0  0  0  0  0  0  0
    6.2694   13.5703   26.6325 C   0  0  0  0  0  0  0  0  0  0  0  0
    8.1792   15.2459   22.2102 C   0  0  0  0  0  0  0  0  0  0  0  0
    8.5013   14.8566   20.9082 C   0  0  0  0  0  0  0  0  0  0  0  0
    9.8066   14.9419   20.3961 C   0  0  0  0  0  0  0  0  0  0  0  0
   10.8184   15.3671   21.2225 C   0  0  0  0  0  0  0  0  0  0  0  0
   10.4557   15.7219   22.4979 C   0  0  0  0  0  0  0  0  0  0  0  0
    9.1851   15.6900   22.9930 N   0  0  0  0  0  0  0  0  0  0  0  0
  1  2  1  0
  2  3  1  0
  3  4  2  0
  3  5  1  0
  5  6  1  6
  5  7  1  0
  7  8  1  0
  8  9  2  0
  8 10  1  0
 10 11  1  0
 11 12  1  0
 12 13  1  0
 13 14  1  0
 14 15  2  0
 14 16  2  0
 14 17  1  0
 17 18  1  0
 18 19  1  0
 19 20  1  0
 20 21  1  0
 21 22  1  0
 13 23  1  0
 23 24  1  0
  5 25  1  0
 25 26  2  0
 26 27  1  0
 27 28  2  0
 28 29  1  0
 29 30  2  0
 24 10  1  0
 30 25  1  0
 22 17  1  0
M  END
>  <energy_score>  (1835) 
-26.372682

>  <inchikey>  (1835) 
ABUCCZDQFXUAQQ-UHFFFAOYSA-N

>  <smiles>  (1835) 
COC(=O)C(C)(OC(=O)C1CCN(S(=O)(=O)N2CCCCC2)CC1)c1ccccn1

>  <ref_pdb>  (1835) 
A0875a

>  <alias>  (1835) 
ABUCCZDQFXUAQQ-UHFFFAOYSA-N-P439-P87-P439-601505

>  <HIPPO Pose ID>  (1835) 
508701

>  <name>  (1835) 
ABUCCZDQFXUAQQ-UHFFFAOYSA-N-P439-P87-P439-601505

>  <HIPPO Compound ID>  (1835) 
314887

>  <ref_mols>  (1835) 
A4706a,A0875a

>  <distance_score>  (1835) 
1.987474

>  <inspiration_score>  (1835) 
None

$$$$
FOGGRGANSBDVIF-UHFFFAOYSA-N-P439-P87-P439-601505
     RDKit          3D

 30 32  0  0  0  0  0  0  0  0999 V2000
    7.8359   19.4221   19.3015 C   0  0  0  0  0  0  0  0  0  0  0  0
    8.2020   18.1221   19.7341 O   0  0  0  0  0  0  0  0  0  0  0  0
    8.2818   17.9891   21.0869 C   0  0  0  0  0  0  0  0  0  0  0  0
    8.4405   18.9600   21.8008 O   0  0  0  0  0  0  0  0  0  0  0  0
    8.1932   16.4825   21.5239 C   0  0  2  0  0  0  0  0  0  0  0  0
    7.6224   16.0172   22.7802 O   0  0  0  0  0  0  0  0  0  0  0  0
    7.1037   14.7491   22.8014 C   0  0  0  0  0  0  0  0  0  0  0  0
    7.0191   14.0161   21.8147 O   0  0  0  0  0  0  0  0  0  0  0  0
    6.5547   14.2727   24.1754 C   0  0  0  0  0  0  0  0  0  0  0  0
    6.9419   12.7727   24.4052 C   0  0  0  0  0  0  0  0  0  0  0  0
    7.6617   12.3481   25.6919 C   0  0  0  0  0  0  0  0  0  0  0  0
    8.2859   13.4918   26.3822 N   0  0  0  0  0  0  0  0  0  0  0  0
    9.6810   14.1162   25.6515 S   0  0  0  0  0  0  0  0  0  0  0  0
    9.9408   15.3924   26.2705 O   0  0  0  0  0  0  0  0  0  0  0  0
    9.4823   13.9959   24.2311 O   0  0  0  0  0  0  0  0  0  0  0  0
   10.9208   13.0139   26.1321 N   0  0  0  0  0  0  0  0  0  0  0  0
   11.7875   13.6306   27.1846 C   0  0  0  0  0  0  0  0  0  0  0  0
   13.0568   12.8266   27.4942 C   0  0  0  0  0  0  0  0  0  0  0  0
   13.8167   12.3294   26.2869 C   0  0  0  0  0  0  0  0  0  0  0  0
   12.8636   11.7078   25.3044 C   0  0  0  0  0  0  0  0  0  0  0  0
   11.7336   12.6517   24.9444 C   0  0  0  0  0  0  0  0  0  0  0  0
    7.2311   14.5088   26.6500 C   0  0  0  0  0  0  0  0  0  0  0  0
    6.8156   15.2108   25.3626 C   0  0  0  0  0  0  0  0  0  0  0  0
    9.5746   15.9422   21.3213 C   0  0  0  0  0  0  0  0  0  0  0  0
   10.0189   15.4944   20.0775 C   0  0  0  0  0  0  0  0  0  0  0  0
   11.2106   14.8208   20.0332 C   0  0  0  0  0  0  0  0  0  0  0  0
   11.8068   14.5987   21.2703 C   0  0  0  0  0  0  0  0  0  0  0  0
   11.8119   13.1786   21.6982 C   0  0  0  0  0  0  0  0  0  0  0  0
   11.6460   15.3571   22.3569 N   0  0  0  0  0  0  0  0  0  0  0  0
   10.4586   15.9304   22.3833 C   0  0  0  0  0  0  0  0  0  0  0  0
  1  2  1  0
  2  3  1  0
  3  4  2  0
  3  5  1  0
  5  6  1  1
  6  7  1  0
  7  8  2  0
  7  9  1  0
  9 10  1  0
 10 11  1  0
 11 12  1  0
 12 13  1  0
 13 14  2  0
 13 15  2  0
 13 16  1  0
 16 17  1  0
 17 18  1  0
 18 19  1  0
 19 20  1  0
 20 21  1  0
 12 22  1  0
 22 23  1  0
  5 24  1  0
 24 25  2  0
 25 26  1  0
 26 27  2  0
 27 28  1  0
 27 29  1  0
 29 30  2  0
 23  9  1  0
 30 24  1  0
 21 16  1  0
M  END
>  <energy_score>  (1836) 
-13.603528

>  <inchikey>  (1836) 
FOGGRGANSBDVIF-UHFFFAOYSA-N

>  <smiles>  (1836) 
COC(=O)C(OC(=O)C1CCN(S(=O)(=O)N2CCCCC2)CC1)c1ccc(C)nc1

>  <ref_pdb>  (1836) 
A0875a

>  <alias>  (1836) 
FOGGRGANSBDVIF-UHFFFAOYSA-N-P439-P87-P439-601505

>  <HIPPO Pose ID>  (1836) 
508721

>  <name>  (1836) 
FOGGRGANSBDVIF-UHFFFAOYSA-N-P439-P87-P439-601505

>  <HIPPO Compound ID>  (1836) 
314897

>  <ref_mols>  (1836) 
A4706a,A0875a

>  <distance_score>  (1836) 
1.625036

>  <inspiration_score>  (1836) 
None

$$$$
VNCJTYYWTUPAKB-UHFFFAOYSA-N-P439-P87-P439-601505
     RDKit          3D

 31 33  0  0  0  0  0  0  0  0999 V2000
    7.9757   19.1206   19.8861 C   0  0  0  0  0  0  0  0  0  0  0  0
    7.6523   17.8520   20.4575 O   0  0  0  0  0  0  0  0  0  0  0  0
    8.6465   17.2498   21.0965 C   0  0  0  0  0  0  0  0  0  0  0  0
    9.7540   17.7742   21.1661 O   0  0  0  0  0  0  0  0  0  0  0  0
    8.3376   15.7893   21.6461 C   0  0  2  0  0  0  0  0  0  0  0  0
    7.2450   14.8160   21.2001 C   0  0  0  0  0  0  0  0  0  0  0  0
    8.3452   15.6940   23.0729 O   0  0  0  0  0  0  0  0  0  0  0  0
    7.2011   15.4401   23.7773 C   0  0  0  0  0  0  0  0  0  0  0  0
    6.0629   15.7974   23.5463 O   0  0  0  0  0  0  0  0  0  0  0  0
    7.6409   14.5231   24.8641 C   0  0  0  0  0  0  0  0  0  0  0  0
    8.0280   13.1388   24.2869 C   0  0  0  0  0  0  0  0  0  0  0  0
    8.4932   12.1710   25.3639 C   0  0  0  0  0  0  0  0  0  0  0  0
    8.9538   12.9381   26.5265 N   0  0  0  0  0  0  0  0  0  0  0  0
   10.4224   13.8178   26.4276 S   0  0  0  0  0  0  0  0  0  0  0  0
   10.4899   14.5542   27.6630 O   0  0  0  0  0  0  0  0  0  0  0  0
   10.5303   14.5025   25.1631 O   0  0  0  0  0  0  0  0  0  0  0  0
   11.6790   12.6481   26.4485 N   0  0  0  0  0  0  0  0  0  0  0  0
   12.8393   12.9969   27.3416 C   0  0  0  0  0  0  0  0  0  0  0  0
   14.2198   12.7908   26.7196 C   0  0  0  0  0  0  0  0  0  0  0  0
   14.3672   11.4177   26.1614 C   0  0  0  0  0  0  0  0  0  0  0  0
   13.2364   11.1776   25.1960 C   0  0  0  0  0  0  0  0  0  0  0  0
   12.1278   12.2375   25.1064 C   0  0  0  0  0  0  0  0  0  0  0  0
    7.7535   13.6981   27.1427 C   0  0  0  0  0  0  0  0  0  0  0  0
    6.8131   14.3177   26.0957 C   0  0  0  0  0  0  0  0  0  0  0  0
    9.6252   15.1272   21.1225 C   0  0  0  0  0  0  0  0  0  0  0  0
    9.7754   15.0236   19.7164 C   0  0  0  0  0  0  0  0  0  0  0  0
   10.9746   14.7377   19.1449 C   0  0  0  0  0  0  0  0  0  0  0  0
   12.0365   14.6472   19.9945 C   0  0  0  0  0  0  0  0  0  0  0  0
   13.2005   14.4633   19.4117 F   0  0  0  0  0  0  0  0  0  0  0  0
   11.9560   14.8236   21.3720 C   0  0  0  0  0  0  0  0  0  0  0  0
   10.7359   15.0241   21.9511 C   0  0  0  0  0  0  0  0  0  0  0  0
  1  2  1  0
  2  3  1  0
  3  4  2  0
  3  5  1  0
  5  6  1  6
  5  7  1  0
  7  8  1  0
  8  9  2  0
  8 10  1  0
 10 11  1  0
 11 12  1  0
 12 13  1  0
 13 14  1  0
 14 15  2  0
 14 16  2  0
 14 17  1  0
 17 18  1  0
 18 19  1  0
 19 20  1  0
 20 21  1  0
 21 22  1  0
 13 23  1  0
 23 24  1  0
  5 25  1  0
 25 26  2  0
 26 27  1  0
 27 28  2  0
 28 29  1  0
 28 30  1  0
 30 31  2  0
 24 10  1  0
 31 25  1  0
 22 17  1  0
M  END
>  <energy_score>  (1837) 
-6.484764

>  <inchikey>  (1837) 
VNCJTYYWTUPAKB-UHFFFAOYSA-N

>  <smiles>  (1837) 
COC(=O)C(C)(OC(=O)C1CCN(S(=O)(=O)N2CCCCC2)CC1)c1ccc(F)cc1

>  <ref_pdb>  (1837) 
A0875a

>  <alias>  (1837) 
VNCJTYYWTUPAKB-UHFFFAOYSA-N-P439-P87-P439-601505

>  <HIPPO Pose ID>  (1837) 
508747

>  <name>  (1837) 
VNCJTYYWTUPAKB-UHFFFAOYSA-N-P439-P87-P439-601505

>  <HIPPO Compound ID>  (1837) 
314910

>  <ref_mols>  (1837) 
A4706a,A0875a

>  <distance_score>  (1837) 
1.759697

>  <inspiration_score>  (1837) 
None

$$$$
AUPZGZNEFLCXSJ-UHFFFAOYSA-N-P439-P87-P439-601505
     RDKit          3D

 31 33  0  0  0  0  0  0  0  0999 V2000
    7.8347   19.4456   19.2876 C   0  0  0  0  0  0  0  0  0  0  0  0
    8.2228   18.1459   19.6956 O   0  0  0  0  0  0  0  0  0  0  0  0
    8.3557   17.9967   21.0421 C   0  0  0  0  0  0  0  0  0  0  0  0
    8.5114   18.9629   21.7629 O   0  0  0  0  0  0  0  0  0  0  0  0
    8.2662   16.4930   21.4619 C   0  0  2  0  0  0  0  0  0  0  0  0
    7.7145   16.1603   22.7682 O   0  0  0  0  0  0  0  0  0  0  0  0
    6.8544   15.1105   22.8912 C   0  0  0  0  0  0  0  0  0  0  0  0
    6.5981   14.3165   21.9896 O   0  0  0  0  0  0  0  0  0  0  0  0
    6.1324   15.0749   24.2627 C   0  0  0  0  0  0  0  0  0  0  0  0
    5.5914   13.6679   24.6331 C   0  0  0  0  0  0  0  0  0  0  0  0
    6.1240   13.1414   25.9734 C   0  0  0  0  0  0  0  0  0  0  0  0
    7.5949   13.3636   26.0623 N   0  0  0  0  0  0  0  0  0  0  0  0
    8.4427   12.4957   24.9025 S   0  0  0  0  0  0  0  0  0  0  0  0
    8.7943   13.3652   23.8141 O   0  0  0  0  0  0  0  0  0  0  0  0
    7.6586   11.3106   24.6503 O   0  0  0  0  0  0  0  0  0  0  0  0
    9.8701   11.9446   25.6475 N   0  0  0  0  0  0  0  0  0  0  0  0
   10.3624   10.8524   24.7586 C   0  0  0  0  0  0  0  0  0  0  0  0
   11.6485   10.2518   25.2561 C   0  0  0  0  0  0  0  0  0  0  0  0
   12.7426   11.2987   25.4982 C   0  0  0  0  0  0  0  0  0  0  0  0
   12.2585   12.4635   26.3361 C   0  0  0  0  0  0  0  0  0  0  0  0
   10.8751   12.9901   25.9630 C   0  0  0  0  0  0  0  0  0  0  0  0
    7.8975   14.8068   26.1650 C   0  0  0  0  0  0  0  0  0  0  0  0
    6.8565   15.6894   25.4683 C   0  0  0  0  0  0  0  0  0  0  0  0
    9.5565   15.7972   21.0643 C   0  0  0  0  0  0  0  0  0  0  0  0
    9.8639   15.6229   19.6922 C   0  0  0  0  0  0  0  0  0  0  0  0
   10.9772   14.9282   19.2582 C   0  0  0  0  0  0  0  0  0  0  0  0
   11.7362   14.2873   20.2070 C   0  0  0  0  0  0  0  0  0  0  0  0
   11.4121   14.4107   21.5520 C   0  0  0  0  0  0  0  0  0  0  0  0
   11.9908   13.3032   22.7043 Cl  0  0  0  0  0  0  0  0  0  0  0  0
   10.4467   15.2904   21.9820 C   0  0  0  0  0  0  0  0  0  0  0  0
   10.4468   15.6842   23.6413 Cl  0  0  0  0  0  0  0  0  0  0  0  0
  1  2  1  0
  2  3  1  0
  3  4  2  0
  3  5  1  0
  5  6  1  1
  6  7  1  0
  7  8  2  0
  7  9  1  0
  9 10  1  0
 10 11  1  0
 11 12  1  0
 12 13  1  0
 13 14  2  0
 13 15  2  0
 13 16  1  0
 16 17  1  0
 17 18  1  0
 18 19  1  0
 19 20  1  0
 20 21  1  0
 12 22  1  0
 22 23  1  0
  5 24  1  0
 24 25  2  0
 25 26  1  0
 26 27  2  0
 27 28  1  0
 28 29  1  0
 28 30  2  0
 30 31  1  0
 23  9  1  0
 30 24  1  0
 21 16  1  0
M  END
>  <energy_score>  (1838) 
-33.130783

>  <inchikey>  (1838) 
AUPZGZNEFLCXSJ-UHFFFAOYSA-N

>  <smiles>  (1838) 
COC(=O)C(OC(=O)C1CCN(S(=O)(=O)N2CCCCC2)CC1)c1cccc(Cl)c1Cl

>  <ref_pdb>  (1838) 
A0875a

>  <alias>  (1838) 
AUPZGZNEFLCXSJ-UHFFFAOYSA-N-P439-P87-P439-601505

>  <HIPPO Pose ID>  (1838) 
508753

>  <name>  (1838) 
AUPZGZNEFLCXSJ-UHFFFAOYSA-N-P439-P87-P439-601505

>  <HIPPO Compound ID>  (1838) 
314913

>  <ref_mols>  (1838) 
A4706a,A0875a

>  <distance_score>  (1838) 
1.772542

>  <inspiration_score>  (1838) 
None

$$$$
OFPBKUPPXCGZBC-UHFFFAOYSA-N-P439-P87-P439-601505
     RDKit          3D

 31 33  0  0  0  0  0  0  0  0999 V2000
    4.4472   13.7323   20.9293 C   0  0  0  0  0  0  0  0  0  0  0  0
    5.8119   14.1191   21.1486 O   0  0  0  0  0  0  0  0  0  0  0  0
    5.9522   15.2495   21.8875 C   0  0  0  0  0  0  0  0  0  0  0  0
    4.9920   15.9745   22.1559 O   0  0  0  0  0  0  0  0  0  0  0  0
    7.3664   15.5022   22.4599 C   0  0  1  0  0  0  0  0  0  0  0  0
    7.2176   15.1675   23.8552 O   0  0  0  0  0  0  0  0  0  0  0  0
    6.6252   13.9664   24.1051 C   0  0  0  0  0  0  0  0  0  0  0  0
    6.5801   13.0246   23.3220 O   0  0  0  0  0  0  0  0  0  0  0  0
    5.9225   13.9676   25.4478 C   0  0  0  0  0  0  0  0  0  0  0  0
    5.8634   12.5379   25.9956 C   0  0  0  0  0  0  0  0  0  0  0  0
    6.9196   12.2805   27.0509 C   0  0  0  0  0  0  0  0  0  0  0  0
    8.1644   13.0558   26.7937 N   0  0  0  0  0  0  0  0  0  0  0  0
    9.1607   12.4442   25.6058 S   0  0  0  0  0  0  0  0  0  0  0  0
    9.1350   13.3150   24.4702 O   0  0  0  0  0  0  0  0  0  0  0  0
    8.8358   11.0518   25.4578 O   0  0  0  0  0  0  0  0  0  0  0  0
   10.7380   12.4425   26.1842 N   0  0  0  0  0  0  0  0  0  0  0  0
   11.3693   13.6011   26.8167 C   0  0  0  0  0  0  0  0  0  0  0  0
   12.7377   13.1837   27.3980 C   0  0  0  0  0  0  0  0  0  0  0  0
   13.6564   12.4494   26.4408 C   0  0  0  0  0  0  0  0  0  0  0  0
   13.0016   12.2630   25.1054 C   0  0  0  0  0  0  0  0  0  0  0  0
   11.5816   11.7627   25.1731 C   0  0  0  0  0  0  0  0  0  0  0  0
    7.9595   14.5120   26.8921 C   0  0  0  0  0  0  0  0  0  0  0  0
    6.5481   14.9203   26.4696 C   0  0  0  0  0  0  0  0  0  0  0  0
    8.7055   15.1558   21.7537 C   0  0  0  0  0  0  0  0  0  0  0  0
    8.6981   14.9127   20.3852 C   0  0  0  0  0  0  0  0  0  0  0  0
    9.8069   14.9666   19.5249 C   0  0  0  0  0  0  0  0  0  0  0  0
   11.0429   15.0982   20.0615 C   0  0  0  0  0  0  0  0  0  0  0  0
   11.1176   15.2612   21.4266 C   0  0  0  0  0  0  0  0  0  0  0  0
   12.6692   15.5315   22.0211 Cl  0  0  0  0  0  0  0  0  0  0  0  0
    9.9949   15.3117   22.2843 C   0  0  0  0  0  0  0  0  0  0  0  0
   10.3068   15.5100   23.7265 C   0  0  0  0  0  0  0  0  0  0  0  0
  1  2  1  0
  2  3  1  0
  3  4  2  0
  3  5  1  0
  5  6  1  1
  6  7  1  0
  7  8  2  0
  7  9  1  0
  9 10  1  0
 10 11  1  0
 11 12  1  0
 12 13  1  0
 13 14  2  0
 13 15  2  0
 13 16  1  0
 16 17  1  0
 17 18  1  0
 18 19  1  0
 19 20  1  0
 20 21  1  0
 12 22  1  0
 22 23  1  0
  5 24  1  0
 24 25  2  0
 25 26  1  0
 26 27  2  0
 27 28  1  0
 28 29  1  0
 28 30  2  0
 30 31  1  0
 23  9  1  0
 30 24  1  0
 21 16  1  0
M  END
>  <energy_score>  (1839) 
-24.768544

>  <inchikey>  (1839) 
OFPBKUPPXCGZBC-UHFFFAOYSA-N

>  <smiles>  (1839) 
COC(=O)C(OC(=O)C1CCN(S(=O)(=O)N2CCCCC2)CC1)c1cccc(Cl)c1C

>  <ref_pdb>  (1839) 
A0875a

>  <alias>  (1839) 
OFPBKUPPXCGZBC-UHFFFAOYSA-N-P439-P87-P439-601505

>  <HIPPO Pose ID>  (1839) 
508791

>  <name>  (1839) 
OFPBKUPPXCGZBC-UHFFFAOYSA-N-P439-P87-P439-601505

>  <HIPPO Compound ID>  (1839) 
314932

>  <ref_mols>  (1839) 
A4706a,A0875a

>  <distance_score>  (1839) 
1.949042

>  <inspiration_score>  (1839) 
None

$$$$
WBPJSKAMZLILML-UHFFFAOYSA-M-P87-P87-P439-601505
     RDKit          3D

 31 34  0  0  0  0  0  0  0  0999 V2000
   12.7282   12.8211   22.4490 O   0  0  0  0  0  0  0  0  0  0  0  0
   12.7803   14.0356   22.0957 C   0  0  0  0  0  0  0  0  0  0  0  0
   13.2571   14.9775   22.7686 O   0  0  0  0  0  0  0  0  0  0  0  0
   12.3455   14.4318   20.7253 C   0  0  0  0  0  0  0  0  0  0  0  0
   10.9776   14.6819   20.9839 N   0  0  0  0  0  0  0  0  0  0  0  0
   10.4036   15.8044   21.4629 C   0  0  0  0  0  0  0  0  0  0  0  0
    9.0848   15.4456   21.4818 C   0  0  0  0  0  0  0  0  0  0  0  0
    7.9226   16.1438   22.1777 C   0  0  0  0  0  0  0  0  0  0  0  0
    6.7105   15.3082   22.2154 O   0  0  0  0  0  0  0  0  0  0  0  0
    6.2033   14.9083   23.4193 C   0  0  0  0  0  0  0  0  0  0  0  0
    5.3791   15.5109   24.0963 O   0  0  0  0  0  0  0  0  0  0  0  0
    6.6551   13.5485   23.8553 C   0  0  0  0  0  0  0  0  0  0  0  0
    7.9693   13.1738   23.2949 C   0  0  0  0  0  0  0  0  0  0  0  0
    8.6055   12.0089   23.9602 C   0  0  0  0  0  0  0  0  0  0  0  0
    8.8982   12.4470   25.3148 N   0  0  0  0  0  0  0  0  0  0  0  0
   10.2785   13.4329   25.4428 S   0  0  0  0  0  0  0  0  0  0  0  0
   10.5468   14.0683   24.1915 O   0  0  0  0  0  0  0  0  0  0  0  0
   10.2479   14.2129   26.6609 O   0  0  0  0  0  0  0  0  0  0  0  0
   11.4331   12.1888   25.6860 N   0  0  0  0  0  0  0  0  0  0  0  0
   12.7779   12.7973   25.7570 C   0  0  0  0  0  0  0  0  0  0  0  0
   13.8778   11.7986   26.0590 C   0  0  0  0  0  0  0  0  0  0  0  0
   13.8625   10.6656   25.0491 C   0  0  0  0  0  0  0  0  0  0  0  0
   12.4585   10.0462   24.8905 C   0  0  0  0  0  0  0  0  0  0  0  0
   11.3766   11.0960   24.6843 C   0  0  0  0  0  0  0  0  0  0  0  0
    7.6659   12.6185   26.0867 C   0  0  0  0  0  0  0  0  0  0  0  0
    6.4443   13.1427   25.3181 C   0  0  0  0  0  0  0  0  0  0  0  0
    7.9358   17.6259   21.7195 C   0  0  0  0  0  0  0  0  0  0  0  0
    8.7880   17.9598   22.8555 O   0  0  0  0  0  0  0  0  0  0  0  0
    8.3911   16.7374   23.4710 C   0  0  0  0  0  0  0  0  0  0  0  0
    8.9017   14.2399   20.9422 N   0  0  0  0  0  0  0  0  0  0  0  0
   10.0870   13.7173   20.7980 N   0  0  0  0  0  0  0  0  0  0  0  0
  1  2  2  0
  2  3  1  0
  2  4  1  0
  4  5  1  0
  5  6  1  0
  6  7  2  0
  7  8  1  0
  8  9  1  0
  9 10  1  0
 10 11  2  0
 10 12  1  0
 12 13  1  0
 13 14  1  0
 14 15  1  0
 15 16  1  0
 16 17  2  0
 16 18  2  0
 16 19  1  0
 19 20  1  0
 20 21  1  0
 21 22  1  0
 22 23  1  0
 23 24  1  0
 15 25  1  0
 25 26  1  0
  8 27  1  0
 27 28  1  0
 28 29  1  0
  7 30  1  0
 30 31  2  0
 31  5  1  0
 29  8  1  0
 26 12  1  0
 24 19  1  0
M  CHG  1   3  -1
M  END
>  <energy_score>  (1840) 
-18.963707

>  <inchikey>  (1840) 
WBPJSKAMZLILML-UHFFFAOYSA-M

>  <smiles>  (1840) 
O=C([O-])Cn1cc(C2(OC(=O)C3CCN(S(=O)(=O)N4CCCCC4)CC3)COC2)nn1

>  <ref_pdb>  (1840) 
A0875a

>  <alias>  (1840) 
WBPJSKAMZLILML-UHFFFAOYSA-M-P87-P87-P439-601505

>  <HIPPO Pose ID>  (1840) 
508792

>  <name>  (1840) 
WBPJSKAMZLILML-UHFFFAOYSA-M-P87-P87-P439-601505

>  <HIPPO Compound ID>  (1840) 
314933

>  <ref_mols>  (1840) 
A4706a,A0875a

>  <distance_score>  (1840) 
1.920958

>  <inspiration_score>  (1840) 
None

$$$$
DFRRHUHJZYDKSI-UHFFFAOYSA-N-P439-P87-P439-601505
     RDKit          3D

 31 33  0  0  0  0  0  0  0  0999 V2000
    9.2695   10.1185   23.5210 C   0  0  0  0  0  0  0  0  0  0  0  0
    8.7001   11.4107   23.2745 O   0  0  0  0  0  0  0  0  0  0  0  0
    9.5732   12.3709   22.8717 C   0  0  0  0  0  0  0  0  0  0  0  0
   10.7600   12.1478   22.7123 O   0  0  0  0  0  0  0  0  0  0  0  0
    8.9484   13.7517   22.7503 C   0  0  2  0  0  0  0  0  0  0  0  0
   10.0692   14.8130   22.9011 C   0  0  0  0  0  0  0  0  0  0  0  0
   10.5764   15.1331   21.5395 C   0  0  0  0  0  0  0  0  0  0  0  0
   11.7375   14.5470   21.0998 C   0  0  0  0  0  0  0  0  0  0  0  0
   12.0217   14.5208   19.7507 C   0  0  0  0  0  0  0  0  0  0  0  0
   11.1377   15.0316   18.8268 C   0  0  0  0  0  0  0  0  0  0  0  0
   10.0016   15.6701   19.2785 C   0  0  0  0  0  0  0  0  0  0  0  0
    9.7713   15.7938   20.6344 C   0  0  0  0  0  0  0  0  0  0  0  0
    8.3534   16.8162   21.2923 Br  0  0  0  0  0  0  0  0  0  0  0  0
    7.9908   13.9644   23.7885 O   0  0  0  0  0  0  0  0  0  0  0  0
    6.7504   13.4770   23.5844 C   0  0  0  0  0  0  0  0  0  0  0  0
    6.3424   13.0445   22.5151 O   0  0  0  0  0  0  0  0  0  0  0  0
    5.9671   13.4365   24.8791 C   0  0  0  0  0  0  0  0  0  0  0  0
    6.3617   12.1534   25.6181 C   0  0  0  0  0  0  0  0  0  0  0  0
    7.7641   12.2280   26.2163 C   0  0  0  0  0  0  0  0  0  0  0  0
    8.0333   13.4948   26.8959 N   0  0  0  0  0  0  0  0  0  0  0  0
    9.4959   14.3183   26.8183 S   0  0  0  0  0  0  0  0  0  0  0  0
    9.5561   15.0671   28.0475 O   0  0  0  0  0  0  0  0  0  0  0  0
    9.6069   15.0127   25.5656 O   0  0  0  0  0  0  0  0  0  0  0  0
   10.7575   13.1519   26.8908 N   0  0  0  0  0  0  0  0  0  0  0  0
   11.9660   13.7505   27.5400 C   0  0  0  0  0  0  0  0  0  0  0  0
   13.1915   12.8289   27.4574 C   0  0  0  0  0  0  0  0  0  0  0  0
   13.5451   12.3817   26.0495 C   0  0  0  0  0  0  0  0  0  0  0  0
   12.4680   12.8063   25.0833 C   0  0  0  0  0  0  0  0  0  0  0  0
   11.0850   12.4882   25.6136 C   0  0  0  0  0  0  0  0  0  0  0  0
    6.8430   14.3619   27.0855 C   0  0  0  0  0  0  0  0  0  0  0  0
    6.1724   14.6806   25.7524 C   0  0  0  0  0  0  0  0  0  0  0  0
  1  2  1  0
  2  3  1  0
  3  4  2  0
  3  5  1  0
  5  6  1  1
  6  7  1  0
  7  8  2  0
  8  9  1  0
  9 10  2  0
 10 11  1  0
 11 12  2  0
 12 13  1  0
  5 14  1  0
 14 15  1  0
 15 16  2  0
 15 17  1  0
 17 18  1  0
 18 19  1  0
 19 20  1  0
 20 21  1  0
 21 22  2  0
 21 23  2  0
 21 24  1  0
 24 25  1  0
 25 26  1  0
 26 27  1  0
 27 28  1  0
 28 29  1  0
 20 30  1  0
 30 31  1  0
 12  7  1  0
 31 17  1  0
 29 24  1  0
M  END
>  <energy_score>  (1841) 
-51.838555

>  <inchikey>  (1841) 
DFRRHUHJZYDKSI-UHFFFAOYSA-N

>  <smiles>  (1841) 
COC(=O)C(Cc1ccccc1Br)OC(=O)C1CCN(S(=O)(=O)N2CCCCC2)CC1

>  <ref_pdb>  (1841) 
A0875a

>  <alias>  (1841) 
DFRRHUHJZYDKSI-UHFFFAOYSA-N-P439-P87-P439-601505

>  <HIPPO Pose ID>  (1841) 
508799

>  <name>  (1841) 
DFRRHUHJZYDKSI-UHFFFAOYSA-N-P439-P87-P439-601505

>  <HIPPO Compound ID>  (1841) 
314936

>  <ref_mols>  (1841) 
A4706a,A0875a

>  <distance_score>  (1841) 
1.651331

>  <inspiration_score>  (1841) 
None

$$$$
NQUBPLOWYTYIAZ-UHFFFAOYSA-N-P439-P87-P439-601505
     RDKit          3D

 31 33  0  0  0  0  0  0  0  0999 V2000
    9.3138   17.7896   20.0554 C   0  0  0  0  0  0  0  0  0  0  0  0
    8.1255   18.0651   20.8885 C   0  0  0  0  0  0  0  0  0  0  0  0
    8.1070   17.0366   21.8663 O   0  0  0  0  0  0  0  0  0  0  0  0
    7.0972   16.1543   21.9731 C   0  0  0  0  0  0  0  0  0  0  0  0
    5.9068   16.3965   22.1420 O   0  0  0  0  0  0  0  0  0  0  0  0
    7.6352   14.7515   21.9656 C   0  0  2  0  0  0  0  0  0  0  0  0
    7.5093   14.3926   23.3470 O   0  0  0  0  0  0  0  0  0  0  0  0
    6.5277   13.5060   23.5927 C   0  0  0  0  0  0  0  0  0  0  0  0
    6.0019   12.8352   22.7144 O   0  0  0  0  0  0  0  0  0  0  0  0
    6.1243   13.3741   25.0520 C   0  0  0  0  0  0  0  0  0  0  0  0
    6.4135   11.9588   25.5693 C   0  0  0  0  0  0  0  0  0  0  0  0
    7.8472   11.6930   26.0095 C   0  0  0  0  0  0  0  0  0  0  0  0
    8.4915   12.9032   26.5734 N   0  0  0  0  0  0  0  0  0  0  0  0
    9.7053   13.5777   25.6469 S   0  0  0  0  0  0  0  0  0  0  0  0
    9.8717   14.9520   26.0593 O   0  0  0  0  0  0  0  0  0  0  0  0
    9.4347   13.2196   24.2796 O   0  0  0  0  0  0  0  0  0  0  0  0
   11.1273   12.7504   26.0719 N   0  0  0  0  0  0  0  0  0  0  0  0
   11.8959   13.4619   27.1283 C   0  0  0  0  0  0  0  0  0  0  0  0
   13.1843   12.7189   27.4979 C   0  0  0  0  0  0  0  0  0  0  0  0
   14.0102   12.2327   26.3203 C   0  0  0  0  0  0  0  0  0  0  0  0
   13.1312   11.6012   25.2690 C   0  0  0  0  0  0  0  0  0  0  0  0
   12.0043   12.5396   24.8826 C   0  0  0  0  0  0  0  0  0  0  0  0
    7.4998   13.8726   27.1194 C   0  0  0  0  0  0  0  0  0  0  0  0
    6.6411   14.4569   26.0052 C   0  0  0  0  0  0  0  0  0  0  0  0
    9.0406   14.6710   21.4243 C   0  0  0  0  0  0  0  0  0  0  0  0
    9.2869   14.4132   20.1529 N   0  0  0  0  0  0  0  0  0  0  0  0
   10.6167   14.6118   19.9123 C   0  0  0  0  0  0  0  0  0  0  0  0
   11.1846   15.0229   21.0693 C   0  0  0  0  0  0  0  0  0  0  0  0
   12.6914   15.6417   21.4230 Cl  0  0  0  0  0  0  0  0  0  0  0  0
   10.2162   15.0507   22.0156 N   0  0  0  0  0  0  0  0  0  0  0  0
   10.4299   15.6099   23.3053 C   0  0  0  0  0  0  0  0  0  0  0  0
  1  2  1  0
  2  3  1  0
  3  4  1  0
  4  5  2  0
  4  6  1  0
  6  7  1  1
  7  8  1  0
  8  9  2  0
  8 10  1  0
 10 11  1  0
 11 12  1  0
 12 13  1  0
 13 14  1  0
 14 15  2  0
 14 16  2  0
 14 17  1  0
 17 18  1  0
 18 19  1  0
 19 20  1  0
 20 21  1  0
 21 22  1  0
 13 23  1  0
 23 24  1  0
  6 25  1  0
 25 26  2  0
 26 27  1  0
 27 28  2  0
 28 29  1  0
 28 30  1  0
 30 31  1  0
 24 10  1  0
 30 25  1  0
 22 17  1  0
M  END
>  <energy_score>  (1842) 
-26.75306

>  <inchikey>  (1842) 
NQUBPLOWYTYIAZ-UHFFFAOYSA-N

>  <smiles>  (1842) 
CCOC(=O)C(OC(=O)C1CCN(S(=O)(=O)N2CCCCC2)CC1)c1ncc(Cl)n1C

>  <ref_pdb>  (1842) 
A0875a

>  <alias>  (1842) 
NQUBPLOWYTYIAZ-UHFFFAOYSA-N-P439-P87-P439-601505

>  <HIPPO Pose ID>  (1842) 
508815

>  <name>  (1842) 
NQUBPLOWYTYIAZ-UHFFFAOYSA-N-P439-P87-P439-601505

>  <HIPPO Compound ID>  (1842) 
314944

>  <ref_mols>  (1842) 
A4706a,A0875a

>  <distance_score>  (1842) 
1.630744

>  <inspiration_score>  (1842) 
None

$$$$
KTPHXWKBJKZNLH-UHFFFAOYSA-N-P439-P87-P439-601505
     RDKit          3D

 31 33  0  0  0  0  0  0  0  0999 V2000
    7.9160   19.2149   19.8025 C   0  0  0  0  0  0  0  0  0  0  0  0
    8.4749   18.5866   21.0533 C   0  0  0  0  0  0  0  0  0  0  0  0
    8.3840   17.1754   21.0170 O   0  0  0  0  0  0  0  0  0  0  0  0
    7.6261   16.4836   21.9038 C   0  0  0  0  0  0  0  0  0  0  0  0
    6.6322   16.8302   22.5275 O   0  0  0  0  0  0  0  0  0  0  0  0
    8.2422   15.1314   22.1586 C   0  0  1  0  0  0  0  0  0  0  0  0
    7.3263   14.0581   21.8897 O   0  0  0  0  0  0  0  0  0  0  0  0
    6.3314   13.7924   22.7821 C   0  0  0  0  0  0  0  0  0  0  0  0
    5.2012   13.5326   22.3989 O   0  0  0  0  0  0  0  0  0  0  0  0
    6.7418   13.7336   24.2332 C   0  0  0  0  0  0  0  0  0  0  0  0
    6.4913   12.4021   24.9407 C   0  0  0  0  0  0  0  0  0  0  0  0
    7.2317   12.3625   26.2865 C   0  0  0  0  0  0  0  0  0  0  0  0
    7.6526   13.7142   26.7096 N   0  0  0  0  0  0  0  0  0  0  0  0
    9.1775   14.3929   26.4947 S   0  0  0  0  0  0  0  0  0  0  0  0
    9.2205   15.1895   25.2916 O   0  0  0  0  0  0  0  0  0  0  0  0
    9.5102   15.0068   27.7532 O   0  0  0  0  0  0  0  0  0  0  0  0
   10.2632   13.1352   26.2396 N   0  0  0  0  0  0  0  0  0  0  0  0
   11.6683   13.6138   26.4535 C   0  0  0  0  0  0  0  0  0  0  0  0
   12.6534   12.4564   26.4254 C   0  0  0  0  0  0  0  0  0  0  0  0
   12.4005   11.5287   25.2524 C   0  0  0  0  0  0  0  0  0  0  0  0
   10.9110   11.2106   25.0094 C   0  0  0  0  0  0  0  0  0  0  0  0
   10.1727   12.5084   24.9033 C   0  0  0  0  0  0  0  0  0  0  0  0
    6.5319   14.6833   26.5738 C   0  0  0  0  0  0  0  0  0  0  0  0
    6.2131   14.8870   25.0881 C   0  0  0  0  0  0  0  0  0  0  0  0
    9.5550   14.9449   21.4460 C   0  0  0  0  0  0  0  0  0  0  0  0
    9.5691   14.8724   20.0522 C   0  0  0  0  0  0  0  0  0  0  0  0
   10.7361   14.7578   19.3427 C   0  0  0  0  0  0  0  0  0  0  0  0
   11.9003   14.7667   20.0621 C   0  0  0  0  0  0  0  0  0  0  0  0
   13.0199   14.5792   19.3832 F   0  0  0  0  0  0  0  0  0  0  0  0
   11.9376   14.9896   21.4354 C   0  0  0  0  0  0  0  0  0  0  0  0
   10.7582   15.0662   22.1381 C   0  0  0  0  0  0  0  0  0  0  0  0
  1  2  1  0
  2  3  1  0
  3  4  1  0
  4  5  2  0
  4  6  1  0
  6  7  1  6
  7  8  1  0
  8  9  2  0
  8 10  1  0
 10 11  1  0
 11 12  1  0
 12 13  1  0
 13 14  1  0
 14 15  2  0
 14 16  2  0
 14 17  1  0
 17 18  1  0
 18 19  1  0
 19 20  1  0
 20 21  1  0
 21 22  1  0
 13 23  1  0
 23 24  1  0
  6 25  1  0
 25 26  2  0
 26 27  1  0
 27 28  2  0
 28 29  1  0
 28 30  1  0
 30 31  2  0
 24 10  1  0
 31 25  1  0
 22 17  1  0
M  END
>  <energy_score>  (1843) 
-35.509276

>  <inchikey>  (1843) 
KTPHXWKBJKZNLH-UHFFFAOYSA-N

>  <smiles>  (1843) 
CCOC(=O)C(OC(=O)C1CCN(S(=O)(=O)N2CCCCC2)CC1)c1ccc(F)cc1

>  <ref_pdb>  (1843) 
A0875a

>  <alias>  (1843) 
KTPHXWKBJKZNLH-UHFFFAOYSA-N-P439-P87-P439-601505

>  <HIPPO Pose ID>  (1843) 
508839

>  <name>  (1843) 
KTPHXWKBJKZNLH-UHFFFAOYSA-N-P439-P87-P439-601505

>  <HIPPO Compound ID>  (1843) 
314956

>  <ref_mols>  (1843) 
A4706a,A0875a

>  <distance_score>  (1843) 
1.510303

>  <inspiration_score>  (1843) 
None

$$$$
YYGRANIUQYXKDJ-UHFFFAOYSA-N-P439-P87-P439-601505
     RDKit          3D

 31 33  0  0  0  0  0  0  0  0999 V2000
    3.2684   14.2683   22.2133 C   0  0  0  0  0  0  0  0  0  0  0  0
    4.5101   14.7822   22.7044 O   0  0  0  0  0  0  0  0  0  0  0  0
    5.5985   14.5272   21.8913 C   0  0  0  0  0  0  0  0  0  0  0  0
    5.4880   13.9084   20.8473 O   0  0  0  0  0  0  0  0  0  0  0  0
    6.9082   15.1146   22.5404 C   0  0  1  0  0  0  0  0  0  0  0  0
    6.5880   16.6045   22.6836 C   0  0  0  0  0  0  0  0  0  0  0  0
    7.0041   14.6772   23.9102 O   0  0  0  0  0  0  0  0  0  0  0  0
    6.5086   13.4529   24.1856 C   0  0  0  0  0  0  0  0  0  0  0  0
    6.4205   12.5450   23.3738 O   0  0  0  0  0  0  0  0  0  0  0  0
    5.9695   13.3629   25.5965 C   0  0  0  0  0  0  0  0  0  0  0  0
    6.3032   11.9895   26.1716 C   0  0  0  0  0  0  0  0  0  0  0  0
    7.8062   11.7618   26.2132 C   0  0  0  0  0  0  0  0  0  0  0  0
    8.5399   13.0234   26.5046 N   0  0  0  0  0  0  0  0  0  0  0  0
    9.6538   13.5306   25.3588 S   0  0  0  0  0  0  0  0  0  0  0  0
    9.8433   14.9554   25.4790 O   0  0  0  0  0  0  0  0  0  0  0  0
    9.2859   12.8978   24.1199 O   0  0  0  0  0  0  0  0  0  0  0  0
   11.0845   12.7831   25.8965 N   0  0  0  0  0  0  0  0  0  0  0  0
   11.7607   13.5128   26.9993 C   0  0  0  0  0  0  0  0  0  0  0  0
   13.0565   12.8036   27.4342 C   0  0  0  0  0  0  0  0  0  0  0  0
   13.9435   12.2828   26.3153 C   0  0  0  0  0  0  0  0  0  0  0  0
   13.1123   11.6390   25.2326 C   0  0  0  0  0  0  0  0  0  0  0  0
   12.0385   12.6102   24.7749 C   0  0  0  0  0  0  0  0  0  0  0  0
    7.7710   14.0546   27.2408 C   0  0  0  0  0  0  0  0  0  0  0  0
    6.4989   14.4639   26.5188 C   0  0  0  0  0  0  0  0  0  0  0  0
    8.2731   15.0221   21.8047 C   0  0  0  0  0  0  0  0  0  0  0  0
    8.3829   14.7851   20.4501 C   0  0  0  0  0  0  0  0  0  0  0  0
    9.5256   15.0124   19.6540 C   0  0  0  0  0  0  0  0  0  0  0  0
   10.7097   15.2139   20.2689 C   0  0  0  0  0  0  0  0  0  0  0  0
   10.6693   15.3200   21.6362 C   0  0  0  0  0  0  0  0  0  0  0  0
   12.2993   15.3448   22.4506 Br  0  0  0  0  0  0  0  0  0  0  0  0
    9.4879   15.3455   22.3810 C   0  0  0  0  0  0  0  0  0  0  0  0
  1  2  1  0
  2  3  1  0
  3  4  2  0
  3  5  1  0
  5  6  1  1
  5  7  1  0
  7  8  1  0
  8  9  2  0
  8 10  1  0
 10 11  1  0
 11 12  1  0
 12 13  1  0
 13 14  1  0
 14 15  2  0
 14 16  2  0
 14 17  1  0
 17 18  1  0
 18 19  1  0
 19 20  1  0
 20 21  1  0
 21 22  1  0
 13 23  1  0
 23 24  1  0
  5 25  1  0
 25 26  2  0
 26 27  1  0
 27 28  2  0
 28 29  1  0
 29 30  1  0
 29 31  2  0
 24 10  1  0
 31 25  1  0
 22 17  1  0
M  END
>  <energy_score>  (1844) 
-46.95697

>  <inchikey>  (1844) 
YYGRANIUQYXKDJ-UHFFFAOYSA-N

>  <smiles>  (1844) 
COC(=O)C(C)(OC(=O)C1CCN(S(=O)(=O)N2CCCCC2)CC1)c1cccc(Br)c1

>  <ref_pdb>  (1844) 
A0875a

>  <alias>  (1844) 
YYGRANIUQYXKDJ-UHFFFAOYSA-N-P439-P87-P439-601505

>  <HIPPO Pose ID>  (1844) 
508841

>  <name>  (1844) 
YYGRANIUQYXKDJ-UHFFFAOYSA-N-P439-P87-P439-601505

>  <HIPPO Compound ID>  (1844) 
314957

>  <ref_mols>  (1844) 
A4706a,A0875a

>  <distance_score>  (1844) 
1.906858

>  <inspiration_score>  (1844) 
None

$$$$
KCFBIEGMIVAYEL-UHFFFAOYSA-N-P87-P87-P439-601505
     RDKit          3D

 31 33  0  0  0  0  0  0  0  0999 V2000
   19.7768   13.2326   27.3632 C   0  0  0  0  0  0  0  0  0  0  0  0
   18.4851   13.8932   26.9226 C   0  0  0  0  0  0  0  0  0  0  0  0
   17.3962   13.2287   27.5751 O   0  0  0  0  0  0  0  0  0  0  0  0
   16.4160   12.6978   26.7963 C   0  0  0  0  0  0  0  0  0  0  0  0
   16.2931   12.8056   25.5845 O   0  0  0  0  0  0  0  0  0  0  0  0
   15.4107   11.9498   27.6537 C   0  0  1  0  0  0  0  0  0  0  0  0
   14.1387   11.7775   26.9475 O   0  0  0  0  0  0  0  0  0  0  0  0
   14.0211   11.1258   25.7640 C   0  0  0  0  0  0  0  0  0  0  0  0
   14.7104   10.1683   25.4426 O   0  0  0  0  0  0  0  0  0  0  0  0
   12.8677   11.6314   24.9098 C   0  0  0  0  0  0  0  0  0  0  0  0
   12.3741   12.9881   25.3490 C   0  0  0  0  0  0  0  0  0  0  0  0
   10.9004   12.9804   25.5234 C   0  0  0  0  0  0  0  0  0  0  0  0
   10.2424   12.6073   24.2806 N   0  0  0  0  0  0  0  0  0  0  0  0
    8.6694   13.1096   24.1740 S   0  0  0  0  0  0  0  0  0  0  0  0
    7.9549   12.2304   23.3037 O   0  0  0  0  0  0  0  0  0  0  0  0
    8.2533   13.2983   25.5442 O   0  0  0  0  0  0  0  0  0  0  0  0
    8.8229   14.5186   23.3520 N   0  0  0  0  0  0  0  0  0  0  0  0
    9.9362   15.3947   23.6063 C   0  0  0  0  0  0  0  0  0  0  0  0
   11.1377   15.0510   22.7330 C   0  0  0  0  0  0  0  0  0  0  0  0
   10.7744   15.3173   21.3196 C   0  0  0  0  0  0  0  0  0  0  0  0
    9.5433   14.5054   21.0141 C   0  0  0  0  0  0  0  0  0  0  0  0
    8.3710   14.6857   21.9647 C   0  0  0  0  0  0  0  0  0  0  0  0
   10.6617   11.3488   23.6520 C   0  0  0  0  0  0  0  0  0  0  0  0
   11.6625   10.6607   24.5909 C   0  0  0  0  0  0  0  0  0  0  0  0
   16.0127   10.6596   28.2622 C   0  0  1  0  0  0  0  0  0  0  0  0
   16.8356    9.9067   27.3054 N   0  0  0  0  0  0  0  0  0  0  0  0
   16.8614   10.9520   29.5209 C   0  0  0  0  0  0  0  0  0  0  0  0
   16.9745    9.7141   30.4217 C   0  0  0  0  0  0  0  0  0  0  0  0
   17.6761    9.9597   31.7838 C   0  0  0  0  0  0  0  0  0  0  0  0
   16.2821   10.1253   32.4168 C   0  0  0  0  0  0  0  0  0  0  0  0
   15.7145    9.3133   31.2381 C   0  0  0  0  0  0  0  0  0  0  0  0
  1  2  1  0
  2  3  1  0
  3  4  1  0
  4  5  2  0
  4  6  1  0
  6  7  1  6
  7  8  1  0
  8  9  2  0
  8 10  1  0
 10 11  1  0
 11 12  1  0
 12 13  1  0
 13 14  1  0
 14 15  2  0
 14 16  2  0
 14 17  1  0
 17 18  1  0
 18 19  1  0
 19 20  1  0
 20 21  1  0
 21 22  1  0
 13 23  1  0
 23 24  1  0
  6 25  1  0
 25 26  1  6
 25 27  1  0
 27 28  1  0
 28 29  1  0
 29 30  1  0
 30 31  1  0
 24 10  1  0
 31 28  1  0
 22 17  1  0
M  END
>  <energy_score>  (1845) 
-48.546435

>  <inchikey>  (1845) 
KCFBIEGMIVAYEL-UHFFFAOYSA-N

>  <smiles>  (1845) 
CCOC(=O)C(OC(=O)C1CCN(S(=O)(=O)N2CCCCC2)CC1)C(N)CC1CCC1

>  <ref_pdb>  (1845) 
A0875a

>  <alias>  (1845) 
KCFBIEGMIVAYEL-UHFFFAOYSA-N-P87-P87-P439-601505

>  <HIPPO Pose ID>  (1845) 
508844

>  <name>  (1845) 
KCFBIEGMIVAYEL-UHFFFAOYSA-N-P87-P87-P439-601505

>  <HIPPO Compound ID>  (1845) 
314959

>  <ref_mols>  (1845) 
A4706a,A0875a

>  <distance_score>  (1845) 
1.434407

>  <inspiration_score>  (1845) 
None

$$$$
VGEKHXAHLXDZIR-UHFFFAOYSA-N-P439-P87-P439-601505
     RDKit          3D

 32 34  0  0  0  0  0  0  0  0999 V2000
    8.6387   19.2117   21.0251 C   0  0  0  0  0  0  0  0  0  0  0  0
    8.3679   17.8522   20.5360 C   0  0  0  0  0  0  0  0  0  0  0  0
    8.5246   16.9109   21.5890 O   0  0  0  0  0  0  0  0  0  0  0  0
    7.4984   16.0617   21.8503 C   0  0  0  0  0  0  0  0  0  0  0  0
    6.3960   16.3792   22.2819 O   0  0  0  0  0  0  0  0  0  0  0  0
    7.9123   14.6024   21.6337 C   0  0  2  0  0  0  0  0  0  0  0  0
    7.6279   13.9616   22.9052 O   0  0  0  0  0  0  0  0  0  0  0  0
    6.3413   13.5715   23.0600 C   0  0  0  0  0  0  0  0  0  0  0  0
    5.6370   13.2539   22.1107 O   0  0  0  0  0  0  0  0  0  0  0  0
    5.8933   13.4596   24.5111 C   0  0  0  0  0  0  0  0  0  0  0  0
    6.3748   12.1516   25.1451 C   0  0  0  0  0  0  0  0  0  0  0  0
    7.8113   12.2350   25.6073 C   0  0  0  0  0  0  0  0  0  0  0  0
    8.0449   13.3756   26.4992 N   0  0  0  0  0  0  0  0  0  0  0  0
    9.4918   14.2188   26.3794 S   0  0  0  0  0  0  0  0  0  0  0  0
    9.5693   15.0289   27.5693 O   0  0  0  0  0  0  0  0  0  0  0  0
    9.5753   14.8554   25.0922 O   0  0  0  0  0  0  0  0  0  0  0  0
   10.6933   13.0094   26.5080 N   0  0  0  0  0  0  0  0  0  0  0  0
   11.8897   13.5651   27.2250 C   0  0  0  0  0  0  0  0  0  0  0  0
   13.1158   12.6450   27.1718 C   0  0  0  0  0  0  0  0  0  0  0  0
   13.4858   12.1896   25.7678 C   0  0  0  0  0  0  0  0  0  0  0  0
   12.4253   12.6649   24.8062 C   0  0  0  0  0  0  0  0  0  0  0  0
   11.0435   12.2699   25.2678 C   0  0  0  0  0  0  0  0  0  0  0  0
    6.8607   14.2588   26.7048 C   0  0  0  0  0  0  0  0  0  0  0  0
    6.2672   14.6758   25.3648 C   0  0  0  0  0  0  0  0  0  0  0  0
    9.3780   14.5036   21.2405 C   0  0  0  0  0  0  0  0  0  0  0  0
    9.8345   14.8856   19.9627 C   0  0  0  0  0  0  0  0  0  0  0  0
   11.1720   15.1648   19.7419 C   0  0  0  0  0  0  0  0  0  0  0  0
   12.0028   15.1943   20.8471 C   0  0  0  0  0  0  0  0  0  0  0  0
   13.1896   15.7841   20.8132 F   0  0  0  0  0  0  0  0  0  0  0  0
   11.5888   14.7535   22.0724 C   0  0  0  0  0  0  0  0  0  0  0  0
   12.4110   14.8565   23.1113 F   0  0  0  0  0  0  0  0  0  0  0  0
   10.3072   14.3259   22.2491 C   0  0  0  0  0  0  0  0  0  0  0  0
  1  2  1  0
  2  3  1  0
  3  4  1  0
  4  5  2  0
  4  6  1  0
  6  7  1  1
  7  8  1  0
  8  9  2  0
  8 10  1  0
 10 11  1  0
 11 12  1  0
 12 13  1  0
 13 14  1  0
 14 15  2  0
 14 16  2  0
 14 17  1  0
 17 18  1  0
 18 19  1  0
 19 20  1  0
 20 21  1  0
 21 22  1  0
 13 23  1  0
 23 24  1  0
  6 25  1  0
 25 26  2  0
 26 27  1  0
 27 28  2  0
 28 29  1  0
 28 30  1  0
 30 31  1  0
 30 32  2  0
 24 10  1  0
 32 25  1  0
 22 17  1  0
M  END
>  <energy_score>  (1846) 
-3.931709

>  <inchikey>  (1846) 
VGEKHXAHLXDZIR-UHFFFAOYSA-N

>  <smiles>  (1846) 
CCOC(=O)C(OC(=O)C1CCN(S(=O)(=O)N2CCCCC2)CC1)c1ccc(F)c(F)c1

>  <ref_pdb>  (1846) 
A0875a

>  <alias>  (1846) 
VGEKHXAHLXDZIR-UHFFFAOYSA-N-P439-P87-P439-601505

>  <HIPPO Pose ID>  (1846) 
508855

>  <name>  (1846) 
VGEKHXAHLXDZIR-UHFFFAOYSA-N-P439-P87-P439-601505

>  <HIPPO Compound ID>  (1846) 
314964

>  <ref_mols>  (1846) 
A4706a,A0875a

>  <distance_score>  (1846) 
1.603377

>  <inspiration_score>  (1846) 
None

$$$$
OYDKVWWAFLOGQD-UHFFFAOYSA-N-P87-P87-P439-601505
     RDKit          3D

 32 35  0  0  0  0  0  0  0  0999 V2000
   19.9778   10.1680   27.3890 C   0  0  0  0  0  0  0  0  0  0  0  0
   18.7618   10.6641   27.9501 O   0  0  0  0  0  0  0  0  0  0  0  0
   17.6272   10.2682   27.3000 C   0  0  0  0  0  0  0  0  0  0  0  0
   17.6129    9.5729   26.2899 O   0  0  0  0  0  0  0  0  0  0  0  0
   16.3836   10.8076   28.0055 C   0  0  1  0  0  0  0  0  0  0  0  0
   15.2827   10.7598   27.0359 O   0  0  0  0  0  0  0  0  0  0  0  0
   14.4060   11.7825   27.1664 C   0  0  0  0  0  0  0  0  0  0  0  0
   14.2987   12.4536   28.1836 O   0  0  0  0  0  0  0  0  0  0  0  0
   13.6308   12.1064   25.8925 C   0  0  0  0  0  0  0  0  0  0  0  0
   12.7207   13.2814   26.0952 C   0  0  0  0  0  0  0  0  0  0  0  0
   11.2789   13.0597   26.0182 C   0  0  0  0  0  0  0  0  0  0  0  0
   11.0111   12.6874   24.6503 N   0  0  0  0  0  0  0  0  0  0  0  0
    9.5832   13.3654   24.1698 S   0  0  0  0  0  0  0  0  0  0  0  0
    9.7290   14.7515   24.5028 O   0  0  0  0  0  0  0  0  0  0  0  0
    8.5125   12.5890   24.7457 O   0  0  0  0  0  0  0  0  0  0  0  0
    9.5533   13.3363   22.5047 N   0  0  0  0  0  0  0  0  0  0  0  0
   10.8672   13.5686   21.8229 C   0  0  0  0  0  0  0  0  0  0  0  0
   11.4607   14.9314   22.0907 C   0  0  0  0  0  0  0  0  0  0  0  0
   10.4207   16.0151   21.8907 C   0  0  0  0  0  0  0  0  0  0  0  0
    9.1610   15.5027   21.2429 C   0  0  0  0  0  0  0  0  0  0  0  0
    8.5303   14.3302   21.9834 C   0  0  0  0  0  0  0  0  0  0  0  0
   11.3946   11.2958   24.4938 C   0  0  0  0  0  0  0  0  0  0  0  0
   12.9545   11.1549   24.9012 C   0  0  0  0  0  0  0  0  0  0  0  0
   16.0935   10.0891   29.3126 C   0  0  0  0  0  0  0  0  0  0  0  0
   15.3029   10.6037   30.3296 C   0  0  0  0  0  0  0  0  0  0  0  0
   15.2412    9.7026   31.3526 N   0  0  0  0  0  0  0  0  0  0  0  0
   16.0127    8.6065   31.0632 C   0  0  0  0  0  0  0  0  0  0  0  0
   16.2411    7.4561   31.8292 C   0  0  0  0  0  0  0  0  0  0  0  0
   17.0664    6.4677   31.2931 C   0  0  0  0  0  0  0  0  0  0  0  0
   17.6396    6.6272   30.0380 C   0  0  0  0  0  0  0  0  0  0  0  0
   17.4045    7.7866   29.2879 C   0  0  0  0  0  0  0  0  0  0  0  0
   16.5726    8.8120   29.7990 C   0  0  0  0  0  0  0  0  0  0  0  0
  1  2  1  0
  2  3  1  0
  3  4  2  0
  3  5  1  0
  5  6  1  6
  6  7  1  0
  7  8  2  0
  7  9  1  0
  9 10  1  0
 10 11  1  0
 11 12  1  0
 12 13  1  0
 13 14  2  0
 13 15  2  0
 13 16  1  0
 16 17  1  0
 17 18  1  0
 18 19  1  0
 19 20  1  0
 20 21  1  0
 12 22  1  0
 22 23  1  0
  5 24  1  0
 24 25  2  0
 25 26  1  0
 26 27  1  0
 27 28  2  0
 28 29  1  0
 29 30  2  0
 30 31  1  0
 31 32  2  0
 23  9  1  0
 32 24  1  0
 21 16  1  0
 32 27  1  0
M  END
>  <energy_score>  (1847) 
-5.790695

>  <inchikey>  (1847) 
OYDKVWWAFLOGQD-UHFFFAOYSA-N

>  <smiles>  (1847) 
COC(=O)C(OC(=O)C1CCN(S(=O)(=O)N2CCCCC2)CC1)c1c[nH]c2ccccc12

>  <ref_pdb>  (1847) 
A0875a

>  <alias>  (1847) 
OYDKVWWAFLOGQD-UHFFFAOYSA-N-P87-P87-P439-601505

>  <HIPPO Pose ID>  (1847) 
508882

>  <name>  (1847) 
OYDKVWWAFLOGQD-UHFFFAOYSA-N-P87-P87-P439-601505

>  <HIPPO Compound ID>  (1847) 
314978

>  <ref_mols>  (1847) 
A4706a,A0875a

>  <distance_score>  (1847) 
1.85462

>  <inspiration_score>  (1847) 
None

$$$$
NNQRCJLIWJWFEK-UHFFFAOYSA-N-P87-P87-P439-601505
     RDKit          3D

 32 35  0  0  0  0  0  0  0  0999 V2000
   10.4107    9.5386   32.6411 C   0  0  0  0  0  0  0  0  0  0  0  0
   11.5356   10.3754   33.2217 C   0  0  0  0  0  0  0  0  0  0  0  0
   12.6275   10.4489   32.2969 O   0  0  0  0  0  0  0  0  0  0  0  0
   13.5174    9.4158   32.3671 C   0  0  0  0  0  0  0  0  0  0  0  0
   13.4440    8.5031   33.1832 O   0  0  0  0  0  0  0  0  0  0  0  0
   14.5785    9.4882   31.3869 C   0  0  0  0  0  0  0  0  0  0  0  0
   15.5927    8.5162   31.1989 C   0  0  0  0  0  0  0  0  0  0  0  0
   16.4272    8.8191   30.2014 N   0  0  0  0  0  0  0  0  0  0  0  0
   15.9341    9.9771   29.7414 N   0  0  0  0  0  0  0  0  0  0  0  0
   14.8573   10.4556   30.4366 C   0  0  0  0  0  0  0  0  0  0  0  0
   14.2581   11.6064   30.1162 O   0  0  0  0  0  0  0  0  0  0  0  0
   15.0057   12.4798   29.2527 C   0  0  0  0  0  0  0  0  0  0  0  0
   15.6234   11.7372   28.0568 C   0  0  2  0  0  0  0  0  0  0  0  0
   14.5360   11.3012   27.1840 O   0  0  0  0  0  0  0  0  0  0  0  0
   14.9052   10.8088   25.9773 C   0  0  0  0  0  0  0  0  0  0  0  0
   16.0380   10.4419   25.7018 O   0  0  0  0  0  0  0  0  0  0  0  0
   13.7856   10.8550   24.9366 C   0  0  0  0  0  0  0  0  0  0  0  0
   13.5194   12.3079   24.6585 C   0  0  0  0  0  0  0  0  0  0  0  0
   12.3992   12.7891   25.5251 C   0  0  0  0  0  0  0  0  0  0  0  0
   11.1384   12.1173   25.2266 N   0  0  0  0  0  0  0  0  0  0  0  0
    9.7993   13.1010   25.1175 S   0  0  0  0  0  0  0  0  0  0  0  0
   10.1358   14.2500   25.9118 O   0  0  0  0  0  0  0  0  0  0  0  0
    8.6357   12.3154   25.4418 O   0  0  0  0  0  0  0  0  0  0  0  0
    9.7309   13.5471   23.4863 N   0  0  0  0  0  0  0  0  0  0  0  0
    8.5127   14.3826   23.2594 C   0  0  0  0  0  0  0  0  0  0  0  0
    8.3796   14.7683   21.8176 C   0  0  0  0  0  0  0  0  0  0  0  0
    9.5936   15.5500   21.3799 C   0  0  0  0  0  0  0  0  0  0  0  0
   10.8382   14.7236   21.5746 C   0  0  0  0  0  0  0  0  0  0  0  0
   10.9408   14.2808   23.0092 C   0  0  0  0  0  0  0  0  0  0  0  0
   11.1533   10.8445   24.5320 C   0  0  0  0  0  0  0  0  0  0  0  0
   12.4356   10.0405   24.8918 C   0  0  0  0  0  0  0  0  0  0  0  0
   16.5227   10.6152   28.5833 C   0  0  0  0  0  0  0  0  0  0  0  0
  1  2  1  0
  2  3  1  0
  3  4  1  0
  4  5  2  0
  4  6  1  0
  6  7  1  0
  7  8  2  0
  8  9  1  0
  9 10  1  0
 10 11  1  0
 11 12  1  0
 12 13  1  0
 13 14  1  6
 14 15  1  0
 15 16  2  0
 15 17  1  0
 17 18  1  0
 18 19  1  0
 19 20  1  0
 20 21  1  0
 21 22  2  0
 21 23  2  0
 21 24  1  0
 24 25  1  0
 25 26  1  0
 26 27  1  0
 27 28  1  0
 28 29  1  0
 20 30  1  0
 30 31  1  0
 13 32  1  0
 10  6  2  0
 31 17  1  0
 32  9  1  0
 29 24  1  0
M  END
>  <energy_score>  (1848) 
-56.878336

>  <inchikey>  (1848) 
NNQRCJLIWJWFEK-UHFFFAOYSA-N

>  <smiles>  (1848) 
CCOC(=O)c1cnn2c1OCC(OC(=O)C1CCN(S(=O)(=O)N3CCCCC3)CC1)C2

>  <ref_pdb>  (1848) 
A0875a

>  <alias>  (1848) 
NNQRCJLIWJWFEK-UHFFFAOYSA-N-P87-P87-P439-601505

>  <HIPPO Pose ID>  (1848) 
508902

>  <name>  (1848) 
NNQRCJLIWJWFEK-UHFFFAOYSA-N-P87-P87-P439-601505

>  <HIPPO Compound ID>  (1848) 
314988

>  <ref_mols>  (1848) 
A4706a,A0875a

>  <distance_score>  (1848) 
1.751639

>  <inspiration_score>  (1848) 
None

$$$$
QZHYSEGOCXAYTO-UHFFFAOYSA-N-P87-P87-P439-601505
     RDKit          3D

 33 37  0  0  0  0  0  0  0  0999 V2000
   14.8487   12.1220   26.7119 O   0  0  0  0  0  0  0  0  0  0  0  0
   14.6907   11.1229   26.0262 C   0  0  0  0  0  0  0  0  0  0  0  0
   15.4520   10.0011   26.1251 O   0  0  0  0  0  0  0  0  0  0  0  0
   16.7014   10.1935   26.8359 C   0  0  2  0  0  0  0  0  0  0  0  0
   17.5820    8.9419   26.7094 C   0  0  0  0  0  0  0  0  0  0  0  0
   18.3646    8.8705   27.9408 N   0  0  0  0  0  0  0  0  0  0  0  0
   17.4441    9.3134   28.9874 C   0  0  0  0  0  0  0  0  0  0  0  0
   16.6447   10.4646   28.3637 C   0  0  2  0  0  0  0  0  0  0  0  0
   15.3114   10.5199   28.8662 O   0  0  0  0  0  0  0  0  0  0  0  0
   15.2031   11.0263   30.1297 C   0  0  0  0  0  0  0  0  0  0  0  0
   14.5742   10.2055   31.0718 C   0  0  0  0  0  0  0  0  0  0  0  0
   14.3778   10.6379   32.3916 C   0  0  0  0  0  0  0  0  0  0  0  0
   14.7955   11.9068   32.7868 C   0  0  0  0  0  0  0  0  0  0  0  0
   15.3866   12.7277   31.8399 C   0  0  0  0  0  0  0  0  0  0  0  0
   15.5842   12.3034   30.5154 C   0  0  0  0  0  0  0  0  0  0  0  0
   16.2287   13.4043   29.7255 C   0  0  0  0  0  0  0  0  0  0  0  0
   15.9681   14.6282   30.6101 C   0  0  0  0  0  0  0  0  0  0  0  0
   15.9158   14.1128   32.0500 C   0  0  0  0  0  0  0  0  0  0  0  0
   13.6738   11.0293   24.8708 C   0  0  0  0  0  0  0  0  0  0  0  0
   13.2594   12.4655   24.5902 C   0  0  0  0  0  0  0  0  0  0  0  0
   12.2141   12.7732   25.6370 C   0  0  0  0  0  0  0  0  0  0  0  0
   10.9089   12.1891   25.2156 N   0  0  0  0  0  0  0  0  0  0  0  0
    9.9249   13.4721   24.7767 S   0  0  0  0  0  0  0  0  0  0  0  0
   10.6348   14.2251   23.7697 O   0  0  0  0  0  0  0  0  0  0  0  0
    9.6337   14.0280   26.0733 O   0  0  0  0  0  0  0  0  0  0  0  0
    8.4939   12.9396   24.0914 N   0  0  0  0  0  0  0  0  0  0  0  0
    7.5437   12.2355   24.9690 C   0  0  0  0  0  0  0  0  0  0  0  0
    6.2860   12.9916   25.3733 C   0  0  0  0  0  0  0  0  0  0  0  0
    5.6590   13.9222   24.3344 C   0  0  0  0  0  0  0  0  0  0  0  0
    6.4338   14.0161   23.0335 C   0  0  0  0  0  0  0  0  0  0  0  0
    7.9299   14.0298   23.2113 C   0  0  0  0  0  0  0  0  0  0  0  0
   11.0319   10.9587   24.4309 C   0  0  0  0  0  0  0  0  0  0  0  0
   12.3393   10.1604   24.8410 C   0  0  0  0  0  0  0  0  0  0  0  0
  1  2  2  0
  2  3  1  0
  4  3  1  1
  4  5  1  0
  5  6  1  0
  6  7  1  0
  7  8  1  0
  8  9  1  1
  9 10  1  0
 10 11  2  0
 11 12  1  0
 12 13  2  0
 13 14  1  0
 14 15  2  0
 15 16  1  0
 16 17  1  0
 17 18  1  0
  2 19  1  0
 19 20  1  0
 20 21  1  0
 21 22  1  0
 22 23  1  0
 23 24  2  0
 23 25  2  0
 23 26  1  0
 26 27  1  0
 27 28  1  0
 28 29  1  0
 29 30  1  0
 30 31  1  0
 22 32  1  0
 32 33  1  0
  8  4  1  0
 15 10  1  0
 33 19  1  0
 18 14  1  0
 31 26  1  0
M  END
>  <energy_score>  (1849) 
-56.312849

>  <inchikey>  (1849) 
QZHYSEGOCXAYTO-UHFFFAOYSA-N

>  <smiles>  (1849) 
O=C(OC1CNCC1Oc1cccc2c1CCC2)C1CCN(S(=O)(=O)N2CCCCC2)CC1

>  <ref_pdb>  (1849) 
A0875a

>  <alias>  (1849) 
QZHYSEGOCXAYTO-UHFFFAOYSA-N-P87-P87-P439-601505

>  <HIPPO Pose ID>  (1849) 
508966

>  <name>  (1849) 
QZHYSEGOCXAYTO-UHFFFAOYSA-N-P87-P87-P439-601505

>  <HIPPO Compound ID>  (1849) 
315020

>  <ref_mols>  (1849) 
A4706a,A0875a

>  <distance_score>  (1849) 
1.694056

>  <inspiration_score>  (1849) 
None

$$$$
LXXSKQDJXBUTGS-UHFFFAOYSA-N-P439-P87-P439-601505
     RDKit          3D

 33 35  0  0  0  0  0  0  0  0999 V2000
    4.6367   13.9087   21.0198 C   0  0  0  0  0  0  0  0  0  0  0  0
    6.0447   14.1779   21.1292 O   0  0  0  0  0  0  0  0  0  0  0  0
    6.3366   15.2712   21.8784 C   0  0  0  0  0  0  0  0  0  0  0  0
    5.4635   16.0653   22.2294 O   0  0  0  0  0  0  0  0  0  0  0  0
    7.7966   15.3841   22.3459 C   0  0  1  0  0  0  0  0  0  0  0  0
    7.6313   14.8367   23.6776 O   0  0  0  0  0  0  0  0  0  0  0  0
    7.1281   13.5774   23.7575 C   0  0  0  0  0  0  0  0  0  0  0  0
    7.2281   12.7321   22.8754 O   0  0  0  0  0  0  0  0  0  0  0  0
    6.3177   13.3353   25.0190 C   0  0  0  0  0  0  0  0  0  0  0  0
    6.4904   11.8755   25.4528 C   0  0  0  0  0  0  0  0  0  0  0  0
    7.9041   11.5529   25.9180 C   0  0  0  0  0  0  0  0  0  0  0  0
    8.4953   12.7029   26.6268 N   0  0  0  0  0  0  0  0  0  0  0  0
    9.7739   13.5047   25.9045 S   0  0  0  0  0  0  0  0  0  0  0  0
    9.8680   14.7836   26.5673 O   0  0  0  0  0  0  0  0  0  0  0  0
    9.6063   13.3719   24.4813 O   0  0  0  0  0  0  0  0  0  0  0  0
   11.1662   12.5960   26.3011 N   0  0  0  0  0  0  0  0  0  0  0  0
   12.2247   13.4491   26.8949 C   0  0  0  0  0  0  0  0  0  0  0  0
   13.6529   13.0279   26.5620 C   0  0  0  0  0  0  0  0  0  0  0  0
   13.8147   11.5583   26.5362 C   0  0  0  0  0  0  0  0  0  0  0  0
   12.9851   11.0774   25.3782 C   0  0  0  0  0  0  0  0  0  0  0  0
   11.6216   11.7523   25.1756 C   0  0  0  0  0  0  0  0  0  0  0  0
    7.4626   13.5927   27.2476 C   0  0  0  0  0  0  0  0  0  0  0  0
    6.6211   14.2790   26.1845 C   0  0  0  0  0  0  0  0  0  0  0  0
    9.0807   15.0370   21.5480 C   0  0  0  0  0  0  0  0  0  0  0  0
    9.0279   14.9185   20.1729 C   0  0  0  0  0  0  0  0  0  0  0  0
   10.1391   14.8532   19.3070 C   0  0  0  0  0  0  0  0  0  0  0  0
   11.4059   14.8001   19.8164 C   0  0  0  0  0  0  0  0  0  0  0  0
   11.5349   14.9083   21.1787 C   0  0  0  0  0  0  0  0  0  0  0  0
   10.4042   15.0790   22.0240 C   0  0  0  0  0  0  0  0  0  0  0  0
   10.8158   15.5121   23.3728 C   0  0  0  0  0  0  0  0  0  0  0  0
   11.5041   16.6718   23.2580 F   0  0  0  0  0  0  0  0  0  0  0  0
   11.6940   14.6685   23.9902 F   0  0  0  0  0  0  0  0  0  0  0  0
    9.8276   15.7733   24.2436 F   0  0  0  0  0  0  0  0  0  0  0  0
  1  2  1  0
  2  3  1  0
  3  4  2  0
  3  5  1  0
  5  6  1  1
  6  7  1  0
  7  8  2  0
  7  9  1  0
  9 10  1  0
 10 11  1  0
 11 12  1  0
 12 13  1  0
 13 14  2  0
 13 15  2  0
 13 16  1  0
 16 17  1  0
 17 18  1  0
 18 19  1  0
 19 20  1  0
 20 21  1  0
 12 22  1  0
 22 23  1  0
  5 24  1  0
 24 25  2  0
 25 26  1  0
 26 27  2  0
 27 28  1  0
 28 29  2  0
 29 30  1  0
 30 31  1  0
 30 32  1  0
 30 33  1  0
 23  9  1  0
 29 24  1  0
 21 16  1  0
M  END
>  <energy_score>  (1850) 
-6.359293

>  <inchikey>  (1850) 
LXXSKQDJXBUTGS-UHFFFAOYSA-N

>  <smiles>  (1850) 
COC(=O)C(OC(=O)C1CCN(S(=O)(=O)N2CCCCC2)CC1)c1ccccc1C(F)(F)F

>  <ref_pdb>  (1850) 
A0875a

>  <alias>  (1850) 
LXXSKQDJXBUTGS-UHFFFAOYSA-N-P439-P87-P439-601505

>  <HIPPO Pose ID>  (1850) 
508989

>  <name>  (1850) 
LXXSKQDJXBUTGS-UHFFFAOYSA-N-P439-P87-P439-601505

>  <HIPPO Compound ID>  (1850) 
315031

>  <ref_mols>  (1850) 
A4706a,A0875a

>  <distance_score>  (1850) 
1.623156

>  <inspiration_score>  (1850) 
None

$$$$
DHXQJUCHOJSZHD-UHFFFAOYSA-N-P445-P87-P445-601506
     RDKit          3D

 24 26  0  0  0  0  0  0  0  0999 V2000
   14.9597   11.7590   25.5699 C   0  0  0  0  0  0  0  0  0  0  0  0
   14.0320   11.9249   24.4864 O   0  0  0  0  0  0  0  0  0  0  0  0
   13.0182   12.8288   24.6302 C   0  0  0  0  0  0  0  0  0  0  0  0
   12.7176   13.4470   25.8028 C   0  0  0  0  0  0  0  0  0  0  0  0
   11.6911   14.3824   25.8699 C   0  0  0  0  0  0  0  0  0  0  0  0
   10.8773   14.5860   24.7754 C   0  0  0  0  0  0  0  0  0  0  0  0
   11.1454   14.0552   23.5312 C   0  0  0  0  0  0  0  0  0  0  0  0
   10.3764   14.3448   22.1725 C   0  0  2  0  0  0  0  0  0  0  0  0
   11.1739   15.2472   21.2568 C   0  0  0  0  0  0  0  0  0  0  0  0
    9.8547   15.5190   20.6300 C   0  0  0  0  0  0  0  0  0  0  0  0
    9.1329   15.3552   21.9404 N   0  0  0  0  0  0  0  0  0  0  0  0
    7.7929   14.6815   22.2659 C   0  0  0  0  0  0  0  0  0  0  0  0
    7.0573   14.0665   21.5718 O   0  0  0  0  0  0  0  0  0  0  0  0
    7.4308   15.0195   23.7203 C   0  0  0  0  0  0  0  0  0  0  0  0
    6.4037   14.1321   24.4153 C   0  0  0  0  0  0  0  0  0  0  0  0
    6.9255   13.3205   25.5973 C   0  0  0  0  0  0  0  0  0  0  0  0
    7.4663   12.0504   25.1551 N   0  0  0  0  0  0  0  0  0  0  0  0
    8.7067   12.0677   24.4184 C   0  0  0  0  0  0  0  0  0  0  0  0
    8.8732   10.9616   23.4290 C   0  0  0  0  0  0  0  0  0  0  0  0
    8.5612    9.6321   24.0371 C   0  0  0  0  0  0  0  0  0  0  0  0
    7.3015    9.6508   24.8741 C   0  0  0  0  0  0  0  0  0  0  0  0
    6.9862   10.8759   25.6835 C   0  0  0  0  0  0  0  0  0  0  0  0
    6.2593   10.8139   26.6729 O   0  0  0  0  0  0  0  0  0  0  0  0
   12.2561   13.1872   23.5131 C   0  0  0  0  0  0  0  0  0  0  0  0
  1  2  1  0
  2  3  1  0
  3  4  2  0
  4  5  1  0
  5  6  2  0
  6  7  1  0
  8  7  1  1
  8  9  1  0
  9 10  1  0
 10 11  1  0
 11 12  1  0
 12 13  2  0
 12 14  1  0
 14 15  1  0
 15 16  1  0
 16 17  1  0
 17 18  1  0
 18 19  1  0
 19 20  1  0
 20 21  1  0
 21 22  1  0
 22 23  2  0
  7 24  2  0
 24  3  1  0
 11  8  1  0
 22 17  1  0
M  END
>  <energy_score>  (1851) 
-1.379196

>  <inchikey>  (1851) 
DHXQJUCHOJSZHD-UHFFFAOYSA-N

>  <smiles>  (1851) 
COc1cccc(C2CCN2C(=O)CCCN2CCCCC2=O)c1

>  <ref_pdb>  (1851) 
A2629a

>  <alias>  (1851) 
DHXQJUCHOJSZHD-UHFFFAOYSA-N-P445-P87-P445-601506

>  <HIPPO Pose ID>  (1851) 
510871

>  <name>  (1851) 
DHXQJUCHOJSZHD-UHFFFAOYSA-N-P445-P87-P445-601506

>  <HIPPO Compound ID>  (1851) 
290546

>  <ref_mols>  (1851) 
A4715a,A0875a

>  <distance_score>  (1851) 
1.958454

>  <inspiration_score>  (1851) 
None

$$$$
FARSFNFYTOPKIW-UHFFFAOYSA-N-P445-P87-P445-601506
     RDKit          3D

 25 27  0  0  0  0  0  0  0  0999 V2000
   12.2915   15.0239   28.2987 C   0  0  0  0  0  0  0  0  0  0  0  0
   11.6000   15.0552   27.0626 O   0  0  0  0  0  0  0  0  0  0  0  0
   11.9507   14.2822   25.9852 C   0  0  0  0  0  0  0  0  0  0  0  0
   11.0942   14.5632   24.8967 C   0  0  0  0  0  0  0  0  0  0  0  0
   11.2527   14.0564   23.6185 C   0  0  0  0  0  0  0  0  0  0  0  0
   10.4794   14.3755   22.2609 C   0  0  2  0  0  0  0  0  0  0  0  0
   11.2484   15.3031   21.3492 C   0  0  0  0  0  0  0  0  0  0  0  0
    9.9181   15.5022   20.7130 C   0  0  0  0  0  0  0  0  0  0  0  0
    9.2140   15.3229   22.0354 N   0  0  0  0  0  0  0  0  0  0  0  0
    7.9080   14.6044   22.3795 C   0  0  0  0  0  0  0  0  0  0  0  0
    7.1899   13.9562   21.6993 O   0  0  0  0  0  0  0  0  0  0  0  0
    7.5728   14.9524   23.8250 C   0  0  0  0  0  0  0  0  0  0  0  0
    6.7381   13.9625   24.6223 C   0  0  0  0  0  0  0  0  0  0  0  0
    7.5758   13.1605   25.6018 C   0  0  0  0  0  0  0  0  0  0  0  0
    7.8902   11.8285   25.1202 N   0  0  0  0  0  0  0  0  0  0  0  0
    8.4954   11.7061   23.8057 C   0  0  0  0  0  0  0  0  0  0  0  0
    9.1908   10.4043   23.5331 C   0  0  0  0  0  0  0  0  0  0  0  0
    8.3186    9.2384   23.8953 C   0  0  0  0  0  0  0  0  0  0  0  0
    7.1851    9.5299   24.8567 C   0  0  0  0  0  0  0  0  0  0  0  0
    7.1673   10.7890   25.6497 C   0  0  0  0  0  0  0  0  0  0  0  0
    6.4987   10.8673   26.6793 O   0  0  0  0  0  0  0  0  0  0  0  0
   12.2779   13.1225   23.5392 C   0  0  0  0  0  0  0  0  0  0  0  0
   13.0258   12.6592   24.6219 C   0  0  0  0  0  0  0  0  0  0  0  0
   12.9085   13.2575   25.8483 C   0  0  0  0  0  0  0  0  0  0  0  0
   14.1088   12.5178   27.1941 Br  0  0  0  0  0  0  0  0  0  0  0  0
  1  2  1  0
  2  3  1  0
  3  4  2  0
  4  5  1  0
  6  5  1  1
  6  7  1  0
  7  8  1  0
  8  9  1  0
  9 10  1  0
 10 11  2  0
 10 12  1  0
 12 13  1  0
 13 14  1  0
 14 15  1  0
 15 16  1  0
 16 17  1  0
 17 18  1  0
 18 19  1  0
 19 20  1  0
 20 21  2  0
  5 22  2  0
 22 23  1  0
 23 24  2  0
 24 25  1  0
 24  3  1  0
  9  6  1  0
 20 15  1  0
M  END
>  <energy_score>  (1852) 
-11.581549

>  <inchikey>  (1852) 
FARSFNFYTOPKIW-UHFFFAOYSA-N

>  <smiles>  (1852) 
COc1cc(C2CCN2C(=O)CCCN2CCCCC2=O)ccc1Br

>  <ref_pdb>  (1852) 
A2629a

>  <alias>  (1852) 
FARSFNFYTOPKIW-UHFFFAOYSA-N-P445-P87-P445-601506

>  <HIPPO Pose ID>  (1852) 
510919

>  <name>  (1852) 
FARSFNFYTOPKIW-UHFFFAOYSA-N-P445-P87-P445-601506

>  <HIPPO Compound ID>  (1852) 
290570

>  <ref_mols>  (1852) 
A4715a,A0875a

>  <distance_score>  (1852) 
1.85793

>  <inspiration_score>  (1852) 
None

$$$$
ILHVWNALJHCAPJ-UHFFFAOYSA-N-P445-P87-P445-601506
     RDKit          3D

 26 30  0  0  0  0  0  0  0  0999 V2000
    9.4787   12.6136   25.1172 O   0  0  0  0  0  0  0  0  0  0  0  0
    8.8465   13.2991   24.3976 C   0  0  0  0  0  0  0  0  0  0  0  0
    7.3303   13.2723   24.4873 C   0  0  2  0  0  0  0  0  0  0  0  0
    6.9932   14.4513   25.4079 C   0  0  0  0  0  0  0  0  0  0  0  0
    5.7219   14.2827   26.2104 C   0  0  0  0  0  0  0  0  0  0  0  0
    5.7583   13.0228   26.9665 N   0  0  0  0  0  0  0  0  0  0  0  0
    4.6471   13.0118   27.9348 C   0  0  0  0  0  0  0  0  0  0  0  0
    3.9710   11.6592   28.1441 C   0  0  0  0  0  0  0  0  0  0  0  0
    4.9711   10.5251   28.0534 C   0  0  0  0  0  0  0  0  0  0  0  0
    5.7297   10.5377   26.7368 C   0  0  0  0  0  0  0  0  0  0  0  0
    5.7320   11.8950   26.0225 C   0  0  2  0  0  0  0  0  0  0  0  0
    6.9345   11.9041   25.0751 C   0  0  0  0  0  0  0  0  0  0  0  0
    9.2932   14.3404   23.3973 N   0  0  0  0  0  0  0  0  0  0  0  0
    9.5312   13.7057   21.9701 C   0  0  0  0  0  0  0  0  0  0  0  0
   10.5033   14.7469   21.6551 C   0  0  0  0  0  0  0  0  0  0  0  0
   11.7422   14.6217   20.8067 C   0  0  0  0  0  0  0  0  0  0  0  0
   10.9375   15.2848   19.6789 C   0  0  0  0  0  0  0  0  0  0  0  0
   10.0161   15.8834   20.7793 C   0  0  0  0  0  0  0  0  0  0  0  0
   10.6724   14.8872   23.0906 C   0  0  2  0  0  0  0  0  0  0  0  0
   11.6720   14.1648   24.0442 C   0  0  0  0  0  0  0  0  0  0  0  0
   11.7385   14.4993   25.3996 C   0  0  0  0  0  0  0  0  0  0  0  0
   12.6048   13.8483   26.2648 C   0  0  0  0  0  0  0  0  0  0  0  0
   13.3945   12.7982   25.8356 C   0  0  0  0  0  0  0  0  0  0  0  0
   14.7830   12.0261   26.8544 Br  0  0  0  0  0  0  0  0  0  0  0  0
   13.2324   12.3802   24.5587 C   0  0  0  0  0  0  0  0  0  0  0  0
   12.4230   13.0766   23.6635 C   0  0  0  0  0  0  0  0  0  0  0  0
  1  2  2  0
  3  2  1  1
  3  4  1  0
  4  5  1  0
  5  6  1  0
  6  7  1  0
  7  8  1  0
  8  9  1  0
  9 10  1  0
 11 10  1  1
 11 12  1  0
  2 13  1  0
 13 14  1  0
 14 15  1  0
 15 16  1  0
 16 17  1  0
 17 18  1  0
 15 19  1  0
 19 20  1  1
 20 21  2  0
 21 22  1  0
 22 23  2  0
 23 24  1  0
 23 25  1  0
 25 26  2  0
 12  3  1  0
 19 13  1  0
 26 20  1  0
 11  6  1  0
 18 15  1  0
M  END
>  <energy_score>  (1853) 
-6.701773

>  <inchikey>  (1853) 
ILHVWNALJHCAPJ-UHFFFAOYSA-N

>  <smiles>  (1853) 
O=C(C1CCN2CCCCC2C1)N1CC2(CCC2)C1c1ccc(Br)cc1

>  <ref_pdb>  (1853) 
A2629a

>  <alias>  (1853) 
ILHVWNALJHCAPJ-UHFFFAOYSA-N-P445-P87-P445-601506

>  <HIPPO Pose ID>  (1853) 
510977

>  <name>  (1853) 
ILHVWNALJHCAPJ-UHFFFAOYSA-N-P445-P87-P445-601506

>  <HIPPO Compound ID>  (1853) 
290599

>  <ref_mols>  (1853) 
A4715a,A0875a

>  <distance_score>  (1853) 
1.753734

>  <inspiration_score>  (1853) 
None

$$$$
RKMVHOOVYOWIQH-UHFFFAOYSA-N-P363-P95-P363-601507
     RDKit          3D

 23 25  0  0  0  0  0  0  0  0999 V2000
    7.1093    9.9920   25.8251 O   0  0  0  0  0  0  0  0  0  0  0  0
    7.9816   10.5359   25.1632 C   0  0  0  0  0  0  0  0  0  0  0  0
    7.7156   11.8999   24.6129 C   0  0  0  0  0  0  0  0  0  0  0  0
    8.8957   12.2959   23.7540 C   0  0  0  0  0  0  0  0  0  0  0  0
   10.1260   12.2696   24.6564 C   0  0  1  0  0  0  0  0  0  0  0  0
    9.8020   12.8088   25.9587 O   0  0  0  0  0  0  0  0  0  0  0  0
   10.5791   13.9317   26.4151 C   0  0  0  0  0  0  0  0  0  0  0  0
   10.4112   15.1550   25.5210 C   0  0  0  0  0  0  0  0  0  0  0  0
   11.2415   15.9457   25.3137 O   0  0  0  0  0  0  0  0  0  0  0  0
    8.9888   15.0127   24.9241 N   0  0  0  0  0  0  0  0  0  0  0  0
    8.3438   15.7471   23.8956 C   0  0  0  0  0  0  0  0  0  0  0  0
    9.2754   15.7780   22.6365 C   0  0  0  0  0  0  0  0  0  0  0  0
   10.3224   14.8965   22.6343 N   0  0  0  0  0  0  0  0  0  0  0  0
   11.0006   14.7138   21.4907 C   0  0  0  0  0  0  0  0  0  0  0  0
   10.6763   15.3648   20.3381 C   0  0  0  0  0  0  0  0  0  0  0  0
   11.4164   14.9209   18.6959 Br  0  0  0  0  0  0  0  0  0  0  0  0
    9.6869   16.3001   20.4464 C   0  0  0  0  0  0  0  0  0  0  0  0
    8.9459   16.5000   21.5586 N   0  0  0  0  0  0  0  0  0  0  0  0
    6.9182   15.2385   23.5722 C   0  0  0  0  0  0  0  0  0  0  0  0
    7.1311   16.6129   24.1027 C   0  0  0  0  0  0  0  0  0  0  0  0
   10.3679   10.7783   24.8602 C   0  0  0  0  0  0  0  0  0  0  0  0
   11.4990   10.3286   25.0487 O   0  0  0  0  0  0  0  0  0  0  0  0
    9.2288   10.0030   24.9288 N   0  0  0  0  0  0  0  0  0  0  0  0
  1  2  2  0
  2  3  1  0
  3  4  1  0
  4  5  1  0
  5  6  1  1
  6  7  1  0
  7  8  1  0
  8  9  2  0
  8 10  1  0
 10 11  1  0
 11 12  1  0
 12 13  2  0
 13 14  1  0
 14 15  2  0
 15 16  1  0
 15 17  1  0
 17 18  2  0
 11 19  1  0
 19 20  1  0
  5 21  1  0
 21 22  2  0
 21 23  1  0
 23  2  1  0
 20 11  1  0
 18 12  1  0
M  END
>  <energy_score>  (1854) 
-9.569669

>  <inchikey>  (1854) 
RKMVHOOVYOWIQH-UHFFFAOYSA-N

>  <smiles>  (1854) 
O=C1CCC(OCC(=O)NC2(c3ncc(Br)cn3)CC2)C(=O)N1

>  <ref_pdb>  (1854) 
A1778a

>  <alias>  (1854) 
RKMVHOOVYOWIQH-UHFFFAOYSA-N-P363-P95-P363-601507

>  <HIPPO Pose ID>  (1854) 
511673

>  <name>  (1854) 
RKMVHOOVYOWIQH-UHFFFAOYSA-N-P363-P95-P363-601507

>  <HIPPO Compound ID>  (1854) 
310127

>  <ref_mols>  (1854) 
A4445a,A1068a

>  <distance_score>  (1854) 
1.660996

>  <inspiration_score>  (1854) 
None

$$$$
NHFRILFLWZGTIB-UHFFFAOYSA-N-P363-P95-P363-601507
     RDKit          3D

 26 28  0  0  0  0  0  0  0  0999 V2000
    6.8938   10.4091   25.6520 O   0  0  0  0  0  0  0  0  0  0  0  0
    7.9938   10.8507   25.3475 C   0  0  0  0  0  0  0  0  0  0  0  0
    8.9297   10.2229   24.3465 C   0  0  0  0  0  0  0  0  0  0  0  0
    9.7957   11.3169   23.7392 C   0  0  0  0  0  0  0  0  0  0  0  0
   10.6738   11.8694   24.8724 C   0  0  1  0  0  0  0  0  0  0  0  0
   11.9145   12.4402   24.4873 O   0  0  0  0  0  0  0  0  0  0  0  0
   12.1616   13.8479   24.6178 C   0  0  0  0  0  0  0  0  0  0  0  0
   11.7204   14.5760   23.3504 C   0  0  0  0  0  0  0  0  0  0  0  0
   12.4356   14.9459   22.5170 O   0  0  0  0  0  0  0  0  0  0  0  0
   10.1937   14.5863   23.4229 N   0  0  0  0  0  0  0  0  0  0  0  0
    9.2048   14.9719   22.4333 C   0  0  0  0  0  0  0  0  0  0  0  0
    7.8658   14.6001   23.1382 C   0  0  0  0  0  0  0  0  0  0  0  0
    7.8925   14.6395   24.4986 N   0  0  0  0  0  0  0  0  0  0  0  0
    6.7241   14.4868   25.1401 C   0  0  0  0  0  0  0  0  0  0  0  0
    5.5428   14.2196   24.4938 C   0  0  0  0  0  0  0  0  0  0  0  0
    3.9216   14.0823   25.4277 Br  0  0  0  0  0  0  0  0  0  0  0  0
    5.6300   14.0809   23.1281 C   0  0  0  0  0  0  0  0  0  0  0  0
    6.7797   14.2386   22.4300 N   0  0  0  0  0  0  0  0  0  0  0  0
    9.3871   14.1528   21.1754 C   0  0  0  0  0  0  0  0  0  0  0  0
   10.4236   14.6298   20.1603 C   0  0  0  0  0  0  0  0  0  0  0  0
   10.2145   16.0718   19.8057 C   0  0  0  0  0  0  0  0  0  0  0  0
   10.1960   16.9123   21.0571 C   0  0  0  0  0  0  0  0  0  0  0  0
    9.2007   16.4472   22.1097 C   0  0  0  0  0  0  0  0  0  0  0  0
    9.7085   12.5328   25.8676 C   0  0  0  0  0  0  0  0  0  0  0  0
   10.0097   13.4988   26.5626 O   0  0  0  0  0  0  0  0  0  0  0  0
    8.4721   11.9551   25.9945 N   0  0  0  0  0  0  0  0  0  0  0  0
  1  2  2  0
  2  3  1  0
  3  4  1  0
  4  5  1  0
  5  6  1  6
  6  7  1  0
  7  8  1  0
  8  9  2  0
  8 10  1  0
 10 11  1  0
 11 12  1  0
 12 13  2  0
 13 14  1  0
 14 15  2  0
 15 16  1  0
 15 17  1  0
 17 18  2  0
 11 19  1  0
 19 20  1  0
 20 21  1  0
 21 22  1  0
 22 23  1  0
  5 24  1  0
 24 25  2  0
 24 26  1  0
 26  2  1  0
 23 11  1  0
 18 12  1  0
M  END
>  <energy_score>  (1855) 
-22.648446

>  <inchikey>  (1855) 
NHFRILFLWZGTIB-UHFFFAOYSA-N

>  <smiles>  (1855) 
O=C1CCC(OCC(=O)NC2(c3ncc(Br)cn3)CCCCC2)C(=O)N1

>  <ref_pdb>  (1855) 
A1778a

>  <alias>  (1855) 
NHFRILFLWZGTIB-UHFFFAOYSA-N-P363-P95-P363-601507

>  <HIPPO Pose ID>  (1855) 
511691

>  <name>  (1855) 
NHFRILFLWZGTIB-UHFFFAOYSA-N-P363-P95-P363-601507

>  <HIPPO Compound ID>  (1855) 
310136

>  <ref_mols>  (1855) 
A4445a,A1068a

>  <distance_score>  (1855) 
1.711349

>  <inspiration_score>  (1855) 
None

$$$$
MEEPDPSHXKPNHF-UHFFFAOYSA-N-P248-P28-P248-601507
     RDKit          3D

 23 26  0  0  0  0  0  0  0  0999 V2000
   11.6175   15.1559   18.4514 C   0  0  0  0  0  0  0  0  0  0  0  0
   10.8671   15.3093   19.6556 N   0  0  0  0  0  0  0  0  0  0  0  0
   11.2861   15.1576   20.9413 C   0  0  0  0  0  0  0  0  0  0  0  0
   10.1408   15.1653   21.6956 C   0  0  0  0  0  0  0  0  0  0  0  0
    9.9807   14.9664   23.0442 N   0  0  0  0  0  0  0  0  0  0  0  0
    8.7016   14.7751   23.6530 C   0  0  0  0  0  0  0  0  0  0  0  0
    9.0305   14.3396   25.0546 C   0  0  2  0  0  0  0  0  0  0  0  0
    7.8308   14.6769   25.8922 C   0  0  0  0  0  0  0  0  0  0  0  0
    7.8219   15.5211   26.7748 O   0  0  0  0  0  0  0  0  0  0  0  0
    6.7280   13.9400   25.5310 O   0  0  0  0  0  0  0  0  0  0  0  0
    6.8195   12.6101   26.0128 C   0  0  1  0  0  0  0  0  0  0  0  0
    5.4866   11.9062   26.4218 C   0  0  0  0  0  0  0  0  0  0  0  0
    5.8788   10.3814   26.4808 C   0  0  0  0  0  0  0  0  0  0  0  0
    6.9517   10.3502   25.4775 C   0  0  0  0  0  0  0  0  0  0  0  0
    7.5901    9.4270   24.7312 N   0  0  0  0  0  0  0  0  0  0  0  0
    8.4456   10.0021   23.8688 N   0  0  0  0  0  0  0  0  0  0  0  0
    8.3247   11.3134   24.0957 C   0  0  0  0  0  0  0  0  0  0  0  0
    7.4413   11.5773   25.1431 C   0  0  0  0  0  0  0  0  0  0  0  0
   10.3685   14.9923   25.3407 C   0  0  0  0  0  0  0  0  0  0  0  0
   10.9949   15.0849   23.9768 C   0  0  0  0  0  0  0  0  0  0  0  0
   12.1876   15.2630   23.8149 O   0  0  0  0  0  0  0  0  0  0  0  0
    9.1135   15.4291   20.7799 C   0  0  0  0  0  0  0  0  0  0  0  0
    9.5638   15.5435   19.5376 N   0  0  0  0  0  0  0  0  0  0  0  0
  1  2  1  0
  2  3  1  0
  3  4  2  0
  4  5  1  0
  5  6  1  0
  6  7  1  0
  7  8  1  1
  8  9  2  0
  8 10  1  0
 11 10  1  6
 11 12  1  0
 12 13  1  0
 13 14  1  0
 14 15  1  0
 15 16  1  0
 16 17  2  0
 17 18  1  0
  7 19  1  0
 19 20  1  0
 20 21  2  0
  4 22  1  0
 22 23  2  0
 23  2  1  0
 20  5  1  0
 18 11  1  0
 18 14  2  0
M  END
>  <energy_score>  (1856) 
-11.864282

>  <inchikey>  (1856) 
MEEPDPSHXKPNHF-UHFFFAOYSA-N

>  <smiles>  (1856) 
Cn1cc(N2CC(C(=O)OC3CCc4[nH]ncc43)CC2=O)cn1

>  <ref_pdb>  (1856) 
A1778a

>  <alias>  (1856) 
MEEPDPSHXKPNHF-UHFFFAOYSA-N-P248-P28-P248-601507

>  <HIPPO Pose ID>  (1856) 
512875

>  <name>  (1856) 
MEEPDPSHXKPNHF-UHFFFAOYSA-N-P248-P28-P248-601507

>  <HIPPO Compound ID>  (1856) 
307058

>  <ref_mols>  (1856) 
A3956a,A0556a

>  <distance_score>  (1856) 
1.344046

>  <inspiration_score>  (1856) 
None

$$$$
ONXDADPROMNZBR-UHFFFAOYSA-N-P248-P28-P248-601507
     RDKit          3D

 26 29  0  0  0  0  0  0  0  0999 V2000
    8.1972   19.7608   19.5607 C   0  0  0  0  0  0  0  0  0  0  0  0
    8.3176   18.3857   19.3150 O   0  0  0  0  0  0  0  0  0  0  0  0
    9.5359   17.8380   19.7798 C   0  0  0  0  0  0  0  0  0  0  0  0
    9.7274   16.3374   19.5519 C   0  0  0  0  0  0  0  0  0  0  0  0
   10.9551   15.8416   20.1159 N   0  0  0  0  0  0  0  0  0  0  0  0
   11.3454   16.1773   21.3715 C   0  0  0  0  0  0  0  0  0  0  0  0
   11.7017   15.0142   21.9572 C   0  0  0  0  0  0  0  0  0  0  0  0
   11.7204   14.8479   23.3340 N   0  0  0  0  0  0  0  0  0  0  0  0
   10.5185   15.2346   24.0411 C   0  0  0  0  0  0  0  0  0  0  0  0
    9.8968   13.9618   24.5482 C   0  0  1  0  0  0  0  0  0  0  0  0
    8.4456   13.9276   24.2201 C   0  0  0  0  0  0  0  0  0  0  0  0
    7.9712   13.8264   23.0993 O   0  0  0  0  0  0  0  0  0  0  0  0
    7.7505   13.9327   25.3883 O   0  0  0  0  0  0  0  0  0  0  0  0
    6.5878   13.1278   25.2897 C   0  0  2  0  0  0  0  0  0  0  0  0
    5.8245   13.1574   26.6707 C   0  0  0  0  0  0  0  0  0  0  0  0
    5.4580   11.6868   27.0574 C   0  0  0  0  0  0  0  0  0  0  0  0
    6.2942   10.9505   26.1153 C   0  0  0  0  0  0  0  0  0  0  0  0
    6.5510    9.6625   25.8468 N   0  0  0  0  0  0  0  0  0  0  0  0
    7.4527    9.5316   24.8520 N   0  0  0  0  0  0  0  0  0  0  0  0
    7.6760   10.7859   24.4312 C   0  0  0  0  0  0  0  0  0  0  0  0
    6.9331   11.6955   25.1786 C   0  0  0  0  0  0  0  0  0  0  0  0
   10.6577   12.8805   23.8235 C   0  0  0  0  0  0  0  0  0  0  0  0
   11.9741   13.5618   23.7583 C   0  0  0  0  0  0  0  0  0  0  0  0
   13.0229   13.1608   24.2234 O   0  0  0  0  0  0  0  0  0  0  0  0
   11.8888   14.1517   20.8700 C   0  0  0  0  0  0  0  0  0  0  0  0
   11.4690   14.6777   19.7140 N   0  0  0  0  0  0  0  0  0  0  0  0
  1  2  1  0
  2  3  1  0
  3  4  1  0
  4  5  1  0
  5  6  1  0
  6  7  2  0
  7  8  1  0
  8  9  1  0
  9 10  1  0
 10 11  1  6
 11 12  2  0
 11 13  1  0
 14 13  1  1
 14 15  1  0
 15 16  1  0
 16 17  1  0
 17 18  1  0
 18 19  1  0
 19 20  2  0
 20 21  1  0
 10 22  1  0
 22 23  1  0
 23 24  2  0
  7 25  1  0
 25 26  2  0
 26  5  1  0
 23  8  1  0
 21 14  1  0
 21 17  2  0
M  END
>  <energy_score>  (1857) 
-0.903304

>  <inchikey>  (1857) 
ONXDADPROMNZBR-UHFFFAOYSA-N

>  <smiles>  (1857) 
COCCn1cc(N2CC(C(=O)OC3CCc4[nH]ncc43)CC2=O)cn1

>  <ref_pdb>  (1857) 
A1778a

>  <alias>  (1857) 
ONXDADPROMNZBR-UHFFFAOYSA-N-P248-P28-P248-601507

>  <HIPPO Pose ID>  (1857) 
512877

>  <name>  (1857) 
ONXDADPROMNZBR-UHFFFAOYSA-N-P248-P28-P248-601507

>  <HIPPO Compound ID>  (1857) 
307059

>  <ref_mols>  (1857) 
A3956a,A0556a

>  <distance_score>  (1857) 
1.839897

>  <inspiration_score>  (1857) 
None

$$$$
VVFXDUKLDNMDNQ-UHFFFAOYSA-N-P87-P87-P115-601507
     RDKit          3D

 21 23  0  0  0  0  0  0  0  0999 V2000
    8.5100   10.1480   24.8318 C   0  0  0  0  0  0  0  0  0  0  0  0
    7.8783   11.3801   25.1790 N   0  0  0  0  0  0  0  0  0  0  0  0
    6.7704   11.4610   25.9773 C   0  0  0  0  0  0  0  0  0  0  0  0
    6.2404   12.6890   25.7317 C   0  0  0  0  0  0  0  0  0  0  0  0
    6.9951   13.3299   24.8024 N   0  0  0  0  0  0  0  0  0  0  0  0
    8.0390   12.5767   24.5251 C   0  0  0  0  0  0  0  0  0  0  0  0
    8.9745   12.9057   23.4573 C   0  0  0  0  0  0  0  0  0  0  0  0
    8.5887   13.2880   22.3548 O   0  0  0  0  0  0  0  0  0  0  0  0
   10.3234   12.6804   23.6708 N   0  0  0  0  0  0  0  0  0  0  0  0
   11.2476   13.6974   24.1458 C   0  0  0  0  0  0  0  0  0  0  0  0
   12.7194   13.1967   23.9473 C   0  0  0  0  0  0  0  0  0  0  0  0
   13.0786   11.9710   24.8487 C   0  0  0  0  0  0  0  0  0  0  0  0
   11.8155   11.0687   24.6746 C   0  0  0  0  0  0  0  0  0  0  0  0
   10.9206   11.4035   23.4347 C   0  0  0  0  0  0  0  0  0  0  0  0
   13.3109   12.4180   26.3183 C   0  0  0  0  0  0  0  0  0  0  0  0
   14.7944   12.6906   26.4384 C   0  0  0  0  0  0  0  0  0  0  0  0
   15.3926   13.0664   27.4272 O   0  0  0  0  0  0  0  0  0  0  0  0
   15.3662   12.3607   25.2260 N   0  0  0  0  0  0  0  0  0  0  0  0
   14.5269   11.3810   24.6027 C   0  0  1  0  0  0  0  0  0  0  0  0
   14.9568   10.0262   25.1842 C   0  0  0  0  0  0  0  0  0  0  0  0
   15.1390   10.0719   26.5814 O   0  0  0  0  0  0  0  0  0  0  0  0
  1  2  1  0
  2  3  1  0
  3  4  2  0
  4  5  1  0
  5  6  2  0
  6  7  1  0
  7  8  2  0
  7  9  1  0
  9 10  1  0
 10 11  1  0
 11 12  1  0
 12 13  1  0
 13 14  1  0
 12 15  1  0
 15 16  1  0
 16 17  2  0
 16 18  1  0
 18 19  1  0
 19 20  1  1
 20 21  1  0
  6  2  1  0
 14  9  1  0
 19 12  1  0
M  END
>  <energy_score>  (1858) 
-24.319139

>  <inchikey>  (1858) 
VVFXDUKLDNMDNQ-UHFFFAOYSA-N

>  <smiles>  (1858) 
Cn1ccnc1C(=O)N1CCC2(CC1)CC(=O)NC2CO

>  <ref_pdb>  (1858) 
A1778a

>  <alias>  (1858) 
VVFXDUKLDNMDNQ-UHFFFAOYSA-N-P87-P87-P115-601507

>  <HIPPO Pose ID>  (1858) 
512970

>  <name>  (1858) 
VVFXDUKLDNMDNQ-UHFFFAOYSA-N-P87-P87-P115-601507

>  <HIPPO Compound ID>  (1858) 
311408

>  <ref_mols>  (1858) 
A1209a,A0875a

>  <distance_score>  (1858) 
1.591776

>  <inspiration_score>  (1858) 
None

$$$$
UAXFHCGUPXVFOL-UHFFFAOYSA-N-P87-P87-P115-601507
     RDKit          3D

 21 23  0  0  0  0  0  0  0  0999 V2000
    6.3929   11.8079   26.1832 C   0  0  0  0  0  0  0  0  0  0  0  0
    7.7180   11.7174   25.5408 C   0  0  0  0  0  0  0  0  0  0  0  0
    8.4059   10.6673   24.9895 C   0  0  0  0  0  0  0  0  0  0  0  0
    9.6027   11.1792   24.5675 N   0  0  0  0  0  0  0  0  0  0  0  0
    9.6341   12.5049   24.9012 C   0  0  0  0  0  0  0  0  0  0  0  0
   10.7203   13.4521   24.7075 C   0  0  0  0  0  0  0  0  0  0  0  0
   10.5440   14.5988   24.3117 O   0  0  0  0  0  0  0  0  0  0  0  0
   11.9996   13.0326   25.0957 N   0  0  0  0  0  0  0  0  0  0  0  0
   12.4459   13.1728   26.4532 C   0  0  0  0  0  0  0  0  0  0  0  0
   13.8161   12.5673   26.8834 C   0  0  0  0  0  0  0  0  0  0  0  0
   14.6294   11.7777   25.8563 C   0  0  0  0  0  0  0  0  0  0  0  0
   13.6880   11.3129   24.7639 C   0  0  0  0  0  0  0  0  0  0  0  0
   12.8780   12.4601   24.1472 C   0  0  0  0  0  0  0  0  0  0  0  0
   15.7714   12.5745   25.2280 C   0  0  0  0  0  0  0  0  0  0  0  0
   16.8541   12.5777   26.2721 C   0  0  0  0  0  0  0  0  0  0  0  0
   17.7403   13.3787   26.4784 O   0  0  0  0  0  0  0  0  0  0  0  0
   16.6951   11.4002   26.9469 N   0  0  0  0  0  0  0  0  0  0  0  0
   15.5150   10.6920   26.5427 C   0  0  2  0  0  0  0  0  0  0  0  0
   15.8905    9.5228   25.6282 C   0  0  0  0  0  0  0  0  0  0  0  0
   16.8620    8.7020   26.2540 O   0  0  0  0  0  0  0  0  0  0  0  0
    8.4941   12.8339   25.4823 N   0  0  0  0  0  0  0  0  0  0  0  0
  1  2  1  0
  2  3  2  0
  3  4  1  0
  4  5  1  0
  5  6  1  0
  6  7  2  0
  6  8  1  0
  8  9  1  0
  9 10  1  0
 10 11  1  0
 11 12  1  0
 12 13  1  0
 11 14  1  0
 14 15  1  0
 15 16  2  0
 15 17  1  0
 17 18  1  0
 18 19  1  6
 19 20  1  0
  5 21  2  0
 21  2  1  0
 13  8  1  0
 18 11  1  0
M  END
>  <energy_score>  (1859) 
-13.816465

>  <inchikey>  (1859) 
UAXFHCGUPXVFOL-UHFFFAOYSA-N

>  <smiles>  (1859) 
Cc1c[nH]c(C(=O)N2CCC3(CC2)CC(=O)NC3CO)n1

>  <ref_pdb>  (1859) 
A1778a

>  <alias>  (1859) 
UAXFHCGUPXVFOL-UHFFFAOYSA-N-P87-P87-P115-601507

>  <HIPPO Pose ID>  (1859) 
512972

>  <name>  (1859) 
UAXFHCGUPXVFOL-UHFFFAOYSA-N-P87-P87-P115-601507

>  <HIPPO Compound ID>  (1859) 
311409

>  <ref_mols>  (1859) 
A1209a,A0875a

>  <distance_score>  (1859) 
1.946772

>  <inspiration_score>  (1859) 
None

$$$$
TUWABAYSQIITAE-UHFFFAOYSA-N-P87-P87-P115-601507
     RDKit          3D

 21 23  0  0  0  0  0  0  0  0999 V2000
   14.0775   13.0498   27.8412 O   0  0  0  0  0  0  0  0  0  0  0  0
   13.5787   12.4181   26.9318 C   0  0  0  0  0  0  0  0  0  0  0  0
   12.3969   12.7983   26.0962 C   0  0  0  0  0  0  0  0  0  0  0  0
   12.4983   11.9575   24.7964 C   0  0  0  0  0  0  0  0  0  0  0  0
   12.3449   12.9856   23.6568 C   0  0  0  0  0  0  0  0  0  0  0  0
   10.9024   13.5914   23.6694 C   0  0  0  0  0  0  0  0  0  0  0  0
    9.8797   12.5595   23.5780 N   0  0  0  0  0  0  0  0  0  0  0  0
    8.5278   12.8262   23.5401 C   0  0  0  0  0  0  0  0  0  0  0  0
    7.9860   12.9963   22.4461 O   0  0  0  0  0  0  0  0  0  0  0  0
    7.6993   12.8038   24.7375 C   0  0  0  0  0  0  0  0  0  0  0  0
    7.9788   12.5704   26.0164 N   0  0  0  0  0  0  0  0  0  0  0  0
    6.7608   12.7047   26.6769 C   0  0  0  0  0  0  0  0  0  0  0  0
    6.4250   12.8624   28.5405 Br  0  0  0  0  0  0  0  0  0  0  0  0
    5.7484   12.9438   25.7997 C   0  0  0  0  0  0  0  0  0  0  0  0
    6.3422   12.9732   24.5835 N   0  0  0  0  0  0  0  0  0  0  0  0
   10.3099   11.1888   23.5242 C   0  0  0  0  0  0  0  0  0  0  0  0
   11.2694   10.9508   24.6842 C   0  0  0  0  0  0  0  0  0  0  0  0
   13.8469   11.1595   25.0570 C   0  0  1  0  0  0  0  0  0  0  0  0
   15.2188   11.6199   24.5519 C   0  0  0  0  0  0  0  0  0  0  0  0
   16.2190   11.0222   25.3938 O   0  0  0  0  0  0  0  0  0  0  0  0
   14.0054   11.1961   26.4896 N   0  0  0  0  0  0  0  0  0  0  0  0
  1  2  2  0
  2  3  1  0
  3  4  1  0
  4  5  1  0
  5  6  1  0
  6  7  1  0
  7  8  1  0
  8  9  2  0
  8 10  1  0
 10 11  2  0
 11 12  1  0
 12 13  1  0
 12 14  2  0
 14 15  1  0
  7 16  1  0
 16 17  1  0
  4 18  1  0
 18 19  1  6
 19 20  1  0
 18 21  1  0
 21  2  1  0
 17  4  1  0
 15 10  1  0
M  END
>  <energy_score>  (1860) 
-14.206707

>  <inchikey>  (1860) 
TUWABAYSQIITAE-UHFFFAOYSA-N

>  <smiles>  (1860) 
O=C1CC2(CCN(C(=O)c3nc(Br)c[nH]3)CC2)C(CO)N1

>  <ref_pdb>  (1860) 
A1778a

>  <alias>  (1860) 
TUWABAYSQIITAE-UHFFFAOYSA-N-P87-P87-P115-601507

>  <HIPPO Pose ID>  (1860) 
512974

>  <name>  (1860) 
TUWABAYSQIITAE-UHFFFAOYSA-N-P87-P87-P115-601507

>  <HIPPO Compound ID>  (1860) 
311410

>  <ref_mols>  (1860) 
A1209a,A0875a

>  <distance_score>  (1860) 
1.948981

>  <inspiration_score>  (1860) 
None

$$$$
PRNQCEXLANFOFT-UHFFFAOYSA-N-P87-P87-P115-601507
     RDKit          3D

 25 28  0  0  0  0  0  0  0  0999 V2000
   16.3835    9.3436   25.1819 O   0  0  0  0  0  0  0  0  0  0  0  0
   15.5446   10.1897   25.3786 C   0  0  0  0  0  0  0  0  0  0  0  0
   14.9244   11.1902   24.4456 C   0  0  0  0  0  0  0  0  0  0  0  0
   13.5234   11.4553   25.0897 C   0  0  0  0  0  0  0  0  0  0  0  0
   12.8051   12.6612   24.4836 C   0  0  0  0  0  0  0  0  0  0  0  0
   11.3916   12.8764   25.0414 C   0  0  0  0  0  0  0  0  0  0  0  0
   10.5019   11.8148   24.6001 N   0  0  0  0  0  0  0  0  0  0  0  0
    9.1503   12.0645   24.3038 C   0  0  0  0  0  0  0  0  0  0  0  0
    8.8358   12.3761   23.1563 O   0  0  0  0  0  0  0  0  0  0  0  0
    8.1445   11.9533   25.3583 C   0  0  0  0  0  0  0  0  0  0  0  0
    7.7542   12.9662   26.1100 N   0  0  0  0  0  0  0  0  0  0  0  0
    6.6272   12.5591   26.7971 C   0  0  0  0  0  0  0  0  0  0  0  0
    5.8062   13.2431   27.7196 C   0  0  0  0  0  0  0  0  0  0  0  0
    4.8243   12.5461   28.4206 C   0  0  0  0  0  0  0  0  0  0  0  0
    4.0128   13.1713   29.3208 O   0  0  0  0  0  0  0  0  0  0  0  0
    4.6478   11.1906   28.2370 C   0  0  0  0  0  0  0  0  0  0  0  0
    5.4028   10.5113   27.2797 C   0  0  0  0  0  0  0  0  0  0  0  0
    6.3732   11.2242   26.5485 C   0  0  0  0  0  0  0  0  0  0  0  0
    7.3084   10.8820   25.5870 N   0  0  0  0  0  0  0  0  0  0  0  0
   11.0146   10.4735   24.4617 C   0  0  0  0  0  0  0  0  0  0  0  0
   12.4922   10.2278   24.9055 C   0  0  0  0  0  0  0  0  0  0  0  0
   14.1262   11.5838   26.5312 C   0  0  2  0  0  0  0  0  0  0  0  0
   15.0679   12.7131   26.9596 C   0  0  0  0  0  0  0  0  0  0  0  0
   14.3306   13.6055   27.7962 O   0  0  0  0  0  0  0  0  0  0  0  0
   14.9448   10.4055   26.5844 N   0  0  0  0  0  0  0  0  0  0  0  0
  1  2  2  0
  2  3  1  0
  3  4  1  0
  4  5  1  0
  5  6  1  0
  6  7  1  0
  7  8  1  0
  8  9  2  0
  8 10  1  0
 10 11  2  0
 11 12  1  0
 12 13  2  0
 13 14  1  0
 14 15  1  0
 14 16  2  0
 16 17  1  0
 17 18  2  0
 18 19  1  0
  7 20  1  0
 20 21  1  0
  4 22  1  0
 22 23  1  6
 23 24  1  0
 22 25  1  0
 25  2  1  0
 21  4  1  0
 19 10  1  0
 18 12  1  0
M  END
>  <energy_score>  (1861) 
-16.253305

>  <inchikey>  (1861) 
PRNQCEXLANFOFT-UHFFFAOYSA-N

>  <smiles>  (1861) 
O=C1CC2(CCN(C(=O)c3nc4cc(O)ccc4[nH]3)CC2)C(CO)N1

>  <ref_pdb>  (1861) 
A1778a

>  <alias>  (1861) 
PRNQCEXLANFOFT-UHFFFAOYSA-N-P87-P87-P115-601507

>  <HIPPO Pose ID>  (1861) 
513008

>  <name>  (1861) 
PRNQCEXLANFOFT-UHFFFAOYSA-N-P87-P87-P115-601507

>  <HIPPO Compound ID>  (1861) 
311427

>  <ref_mols>  (1861) 
A1209a,A0875a

>  <distance_score>  (1861) 
1.680459

>  <inspiration_score>  (1861) 
None

$$$$
WQIGYGWQDNSUOM-UHFFFAOYSA-N-P87-P87-P115-601507
     RDKit          3D

 25 27  0  0  0  0  0  0  0  0999 V2000
    9.7039   10.3307   23.9818 C   0  0  0  0  0  0  0  0  0  0  0  0
    8.9969   11.2456   24.8320 N   0  0  0  0  0  0  0  0  0  0  0  0
    7.7713   10.9612   25.3707 C   0  0  0  0  0  0  0  0  0  0  0  0
    7.3097   12.1099   25.9561 C   0  0  0  0  0  0  0  0  0  0  0  0
    6.0515   12.3731   26.7305 C   0  0  0  0  0  0  0  0  0  0  0  0
    5.1608   13.1451   26.0629 F   0  0  0  0  0  0  0  0  0  0  0  0
    5.4134   11.2212   27.0718 F   0  0  0  0  0  0  0  0  0  0  0  0
    6.3126   13.0085   27.9081 F   0  0  0  0  0  0  0  0  0  0  0  0
    8.3017   13.0528   25.8292 N   0  0  0  0  0  0  0  0  0  0  0  0
    9.3215   12.5393   25.1586 C   0  0  0  0  0  0  0  0  0  0  0  0
   10.4871   13.3629   24.8185 C   0  0  0  0  0  0  0  0  0  0  0  0
   10.3808   14.4548   24.2632 O   0  0  0  0  0  0  0  0  0  0  0  0
   11.7691   12.9431   25.2057 N   0  0  0  0  0  0  0  0  0  0  0  0
   12.3519   13.2344   26.5003 C   0  0  0  0  0  0  0  0  0  0  0  0
   13.6788   12.5291   26.9281 C   0  0  0  0  0  0  0  0  0  0  0  0
   14.4219   11.7431   25.8845 C   0  0  0  0  0  0  0  0  0  0  0  0
   13.3602   11.1315   24.9606 C   0  0  0  0  0  0  0  0  0  0  0  0
   12.5193   12.1945   24.2642 C   0  0  0  0  0  0  0  0  0  0  0  0
   15.3904   12.5944   25.0940 C   0  0  0  0  0  0  0  0  0  0  0  0
   15.9808   11.4597   24.3611 C   0  0  0  0  0  0  0  0  0  0  0  0
   15.8731   11.2658   23.1708 O   0  0  0  0  0  0  0  0  0  0  0  0
   16.3499   10.5171   25.2705 N   0  0  0  0  0  0  0  0  0  0  0  0
   15.4701   10.6718   26.3700 C   0  0  1  0  0  0  0  0  0  0  0  0
   16.2203   10.9577   27.6520 C   0  0  0  0  0  0  0  0  0  0  0  0
   15.3630   10.7865   28.7722 O   0  0  0  0  0  0  0  0  0  0  0  0
  1  2  1  0
  2  3  1  0
  3  4  2  0
  4  5  1  0
  5  6  1  0
  5  7  1  0
  5  8  1  0
  4  9  1  0
  9 10  2  0
 10 11  1  0
 11 12  2  0
 11 13  1  0
 13 14  1  0
 14 15  1  0
 15 16  1  0
 16 17  1  0
 17 18  1  0
 16 19  1  0
 19 20  1  0
 20 21  2  0
 20 22  1  0
 22 23  1  0
 23 24  1  1
 24 25  1  0
 10  2  1  0
 18 13  1  0
 23 16  1  0
M  END
>  <energy_score>  (1862) 
-0.715312

>  <inchikey>  (1862) 
WQIGYGWQDNSUOM-UHFFFAOYSA-N

>  <smiles>  (1862) 
Cn1cc(C(F)(F)F)nc1C(=O)N1CCC2(CC1)CC(=O)NC2CO

>  <ref_pdb>  (1862) 
A1778a

>  <alias>  (1862) 
WQIGYGWQDNSUOM-UHFFFAOYSA-N-P87-P87-P115-601507

>  <HIPPO Pose ID>  (1862) 
513014

>  <name>  (1862) 
WQIGYGWQDNSUOM-UHFFFAOYSA-N-P87-P87-P115-601507

>  <HIPPO Compound ID>  (1862) 
311430

>  <ref_mols>  (1862) 
A1209a,A0875a

>  <distance_score>  (1862) 
1.808123

>  <inspiration_score>  (1862) 
None

$$$$
SQTHMIZLLCRPCO-UHFFFAOYSA-N-P255-P7-P255-601508
     RDKit          3D

 27 29  0  0  0  0  0  0  0  0999 V2000
   11.7348   15.1234   19.8921 C   0  0  0  0  0  0  0  0  0  0  0  0
   10.9850   15.7458   21.0590 C   0  0  2  0  0  0  0  0  0  0  0  0
   11.8106   15.7503   22.3285 C   0  0  0  0  0  0  0  0  0  0  0  0
   10.9038   16.2233   23.4475 C   0  0  0  0  0  0  0  0  0  0  0  0
    9.4396   15.9010   23.1048 C   0  0  0  0  0  0  0  0  0  0  0  0
    9.3138   14.4527   22.6902 N   0  0  0  0  0  0  0  0  0  0  0  0
    8.0979   13.8966   23.1982 C   0  0  0  0  0  0  0  0  0  0  0  0
    6.9998   13.8366   22.7069 O   0  0  0  0  0  0  0  0  0  0  0  0
    8.3914   13.2085   24.5575 C   0  0  0  0  0  0  0  0  0  0  0  0
    7.5716   13.6215   25.7158 N   0  0  0  0  0  0  0  0  0  0  0  0
    6.1337   13.7506   25.4358 C   0  0  0  0  0  0  0  0  0  0  0  0
    5.3233   14.0177   26.7246 C   0  0  0  0  0  0  0  0  0  0  0  0
    5.8088   15.1983   27.4869 N   0  0  0  0  0  0  0  0  0  0  0  0
    5.0420   15.2888   28.7583 C   0  0  0  0  0  0  0  0  0  0  0  0
    5.2499   16.6358   29.4882 C   0  0  0  0  0  0  0  0  0  0  0  0
    5.0268   16.7048   30.6628 O   0  0  0  0  0  0  0  0  0  0  0  0
    5.6502   17.6436   28.5510 N   0  0  0  0  0  0  0  0  0  0  0  0
    6.0008   19.0321   28.7444 C   0  0  1  0  0  0  0  0  0  0  0  0
    6.9499   19.2139   29.9368 C   0  0  0  0  0  0  0  0  0  0  0  0
    7.3701   20.6708   29.9042 C   0  0  0  0  0  0  0  0  0  0  0  0
    7.6415   21.0173   28.1820 S   0  0  0  0  0  0  0  0  0  0  0  0
    6.9842   22.2655   27.8613 O   0  0  0  0  0  0  0  0  0  0  0  0
    9.0487   20.7893   27.9114 O   0  0  0  0  0  0  0  0  0  0  0  0
    6.6984   19.6448   27.5315 C   0  0  0  0  0  0  0  0  0  0  0  0
    7.2598   15.0192   27.7444 C   0  0  0  0  0  0  0  0  0  0  0  0
    8.0534   14.8055   26.4304 C   0  0  0  0  0  0  0  0  0  0  0  0
    9.6394   15.0399   21.3362 C   0  0  0  0  0  0  0  0  0  0  0  0
  2  1  1  6
  2  3  1  0
  3  4  1  0
  4  5  1  0
  5  6  1  0
  6  7  1  0
  7  8  2  0
  7  9  1  0
  9 10  1  0
 10 11  1  0
 11 12  1  0
 12 13  1  0
 13 14  1  0
 14 15  1  0
 15 16  2  0
 15 17  1  0
 18 17  1  6
 18 19  1  0
 19 20  1  0
 20 21  1  0
 21 22  2  0
 21 23  2  0
 21 24  1  0
 13 25  1  0
 25 26  1  0
  6 27  1  0
 27  2  1  0
 26 10  1  0
 24 18  1  0
M  END
>  <energy_score>  (1863) 
-5.773265

>  <inchikey>  (1863) 
SQTHMIZLLCRPCO-UHFFFAOYSA-N

>  <smiles>  (1863) 
CC1CCCN(C(=O)CN2CCN(CC(=O)NC3CCS(=O)(=O)C3)CC2)C1

>  <ref_pdb>  (1863) 
A0875a

>  <alias>  (1863) 
SQTHMIZLLCRPCO-UHFFFAOYSA-N-P255-P7-P255-601508

>  <HIPPO Pose ID>  (1863) 
513257

>  <name>  (1863) 
SQTHMIZLLCRPCO-UHFFFAOYSA-N-P255-P7-P255-601508

>  <HIPPO Compound ID>  (1863) 
312210

>  <ref_mols>  (1863) 
A3982a,A0469a

>  <distance_score>  (1863) 
1.257088

>  <inspiration_score>  (1863) 
None

$$$$
DPZQXZKXUFIMQK-UHFFFAOYSA-N-P198-P128-P198-601508
     RDKit          3D

 23 26  0  0  0  0  0  0  0  0999 V2000
    7.5292   13.2612   22.0754 O   0  0  0  0  0  0  0  0  0  0  0  0
    7.9158   13.8526   23.0017 C   0  0  0  0  0  0  0  0  0  0  0  0
    7.6828   13.6131   24.5115 N   0  0  0  0  0  0  0  0  0  0  0  0
    7.0442   12.6037   25.1547 C   0  0  0  0  0  0  0  0  0  0  0  0
    6.9645   11.2539   24.7644 C   0  0  0  0  0  0  0  0  0  0  0  0
    6.2554   10.5206   25.6253 N   0  0  0  0  0  0  0  0  0  0  0  0
    5.8010   11.4337   26.5020 N   0  0  0  0  0  0  0  0  0  0  0  0
    4.9903   11.0197   27.6137 C   0  0  0  0  0  0  0  0  0  0  0  0
    3.6217   11.6364   27.6121 C   0  0  0  0  0  0  0  0  0  0  0  0
    3.6240   12.9499   27.2957 F   0  0  0  0  0  0  0  0  0  0  0  0
    2.7803   11.0136   26.7738 F   0  0  0  0  0  0  0  0  0  0  0  0
    3.0801   11.5426   28.8542 F   0  0  0  0  0  0  0  0  0  0  0  0
    6.3535   12.6765   26.3307 C   0  0  0  0  0  0  0  0  0  0  0  0
    8.9099   15.0371   22.8881 C   0  0  2  0  0  0  0  0  0  0  0  0
    8.8753   15.7351   21.5177 C   0  0  1  0  0  0  0  0  0  0  0  0
    9.8104   16.9301   21.4323 C   0  0  0  0  0  0  0  0  0  0  0  0
   11.2364   16.4674   21.7844 C   0  0  1  0  0  0  0  0  0  0  0  0
   11.2805   15.7259   23.1382 C   0  0  0  0  0  0  0  0  0  0  0  0
   10.3493   14.5258   23.1193 C   0  0  2  0  0  0  0  0  0  0  0  0
   10.8276   13.6465   21.9622 C   0  0  0  0  0  0  0  0  0  0  0  0
   10.7732   14.3687   20.6890 N   0  0  0  0  0  0  0  0  0  0  0  0
   11.6830   15.5017   20.6803 C   0  0  0  0  0  0  0  0  0  0  0  0
    9.4101   14.8214   20.4332 C   0  0  0  0  0  0  0  0  0  0  0  0
  1  2  2  0
  2  3  1  0
  3  4  1  0
  4  5  1  0
  5  6  2  0
  6  7  1  0
  7  8  1  0
  8  9  1  0
  9 10  1  0
  9 11  1  0
  9 12  1  0
  7 13  1  0
 14  2  1  6
 14 15  1  0
 15 16  1  1
 17 16  1  6
 17 18  1  0
 19 18  1  6
 19 20  1  0
 20 21  1  0
 21 22  1  0
 21 23  1  0
 13  4  2  0
 19 14  1  0
 23 15  1  0
 22 17  1  0
M  END
>  <energy_score>  (1864) 
-3.865571

>  <inchikey>  (1864) 
DPZQXZKXUFIMQK-UHFFFAOYSA-N

>  <smiles>  (1864) 
O=C(Nc1cnn(CC(F)(F)F)c1)C1C2CC3CC1CN(C3)C2

>  <ref_pdb>  (1864) 
A0875a

>  <alias>  (1864) 
DPZQXZKXUFIMQK-UHFFFAOYSA-N-P198-P128-P198-601508

>  <HIPPO Pose ID>  (1864) 
513263

>  <name>  (1864) 
DPZQXZKXUFIMQK-UHFFFAOYSA-N-P198-P128-P198-601508

>  <HIPPO Compound ID>  (1864) 
310876

>  <ref_mols>  (1864) 
A2304a,A3618a

>  <distance_score>  (1864) 
1.910431

>  <inspiration_score>  (1864) 
None

$$$$
YZIBLZXKEWCTFV-UHFFFAOYSA-N-P198-P128-P198-601508
     RDKit          3D

 24 27  0  0  0  0  0  0  0  0999 V2000
    6.0966   13.6821   27.2092 C   0  0  0  0  0  0  0  0  0  0  0  0
    6.3699   12.5615   26.2769 C   0  0  0  0  0  0  0  0  0  0  0  0
    7.1051   12.5342   25.1161 C   0  0  0  0  0  0  0  0  0  0  0  0
    7.7308   13.5640   24.4917 N   0  0  0  0  0  0  0  0  0  0  0  0
    7.9306   13.8521   22.9859 C   0  0  0  0  0  0  0  0  0  0  0  0
    7.5229   13.2911   22.0496 O   0  0  0  0  0  0  0  0  0  0  0  0
    8.9220   15.0371   22.8841 C   0  0  2  0  0  0  0  0  0  0  0  0
    8.8881   15.7366   21.5135 C   0  0  1  0  0  0  0  0  0  0  0  0
    9.8202   16.9330   21.4305 C   0  0  0  0  0  0  0  0  0  0  0  0
   11.2462   16.4719   21.7838 C   0  0  1  0  0  0  0  0  0  0  0  0
   11.2901   15.7291   23.1366 C   0  0  0  0  0  0  0  0  0  0  0  0
   10.3617   14.5275   23.1155 C   0  0  2  0  0  0  0  0  0  0  0  0
   10.8421   13.6499   21.9580 C   0  0  0  0  0  0  0  0  0  0  0  0
   10.7899   14.3734   20.6854 N   0  0  0  0  0  0  0  0  0  0  0  0
   11.6967   15.5083   20.6796 C   0  0  0  0  0  0  0  0  0  0  0  0
    9.4266   14.8245   20.4280 C   0  0  0  0  0  0  0  0  0  0  0  0
    7.0887   11.1994   24.6843 C   0  0  0  0  0  0  0  0  0  0  0  0
    6.3627   10.4270   25.4862 N   0  0  0  0  0  0  0  0  0  0  0  0
    5.8050   11.3037   26.3482 N   0  0  0  0  0  0  0  0  0  0  0  0
    4.8047   10.7743   27.2362 C   0  0  0  0  0  0  0  0  0  0  0  0
    3.6376   11.6736   27.5217 C   0  0  0  0  0  0  0  0  0  0  0  0
    3.2122   12.3848   26.4595 F   0  0  0  0  0  0  0  0  0  0  0  0
    2.5881   10.9382   27.9555 F   0  0  0  0  0  0  0  0  0  0  0  0
    3.9198   12.5495   28.5155 F   0  0  0  0  0  0  0  0  0  0  0  0
  1  2  1  0
  2  3  2  0
  3  4  1  0
  4  5  1  0
  5  6  2  0
  7  5  1  6
  7  8  1  0
  8  9  1  1
 10  9  1  6
 10 11  1  0
 12 11  1  6
 12 13  1  0
 13 14  1  0
 14 15  1  0
 14 16  1  0
  3 17  1  0
 17 18  2  0
 18 19  1  0
 19 20  1  0
 20 21  1  0
 21 22  1  0
 21 23  1  0
 21 24  1  0
 19  2  1  0
 12  7  1  0
 16  8  1  0
 15 10  1  0
M  END
>  <energy_score>  (1865) 
-25.100298

>  <inchikey>  (1865) 
YZIBLZXKEWCTFV-UHFFFAOYSA-N

>  <smiles>  (1865) 
Cc1c(NC(=O)C2C3CC4CC2CN(C4)C3)cnn1CC(F)(F)F

>  <ref_pdb>  (1865) 
A0875a

>  <alias>  (1865) 
YZIBLZXKEWCTFV-UHFFFAOYSA-N-P198-P128-P198-601508

>  <HIPPO Pose ID>  (1865) 
513269

>  <name>  (1865) 
YZIBLZXKEWCTFV-UHFFFAOYSA-N-P198-P128-P198-601508

>  <HIPPO Compound ID>  (1865) 
310879

>  <ref_mols>  (1865) 
A2304a,A3618a

>  <distance_score>  (1865) 
1.883318

>  <inspiration_score>  (1865) 
None

$$$$
FUFLWJDFQZLSMX-UHFFFAOYSA-N-P198-P128-P198-601508
     RDKit          3D

 26 29  0  0  0  0  0  0  0  0999 V2000
    7.8699   14.8775   24.4877 O   0  0  0  0  0  0  0  0  0  0  0  0
    8.5948   14.0392   24.1186 C   0  0  0  0  0  0  0  0  0  0  0  0
    8.4647   12.4913   24.1910 N   0  0  0  0  0  0  0  0  0  0  0  0
    7.5205   11.7125   24.7798 C   0  0  0  0  0  0  0  0  0  0  0  0
    7.4963   10.3128   24.7975 C   0  0  0  0  0  0  0  0  0  0  0  0
    6.4386    9.8465   25.4556 N   0  0  0  0  0  0  0  0  0  0  0  0
    5.7979   10.9562   25.8819 N   0  0  0  0  0  0  0  0  0  0  0  0
    4.6253   10.7467   26.6887 C   0  0  0  0  0  0  0  0  0  0  0  0
    4.1110   11.8693   27.5550 C   0  0  0  0  0  0  0  0  0  0  0  0
    3.4768   11.2837   28.6209 F   0  0  0  0  0  0  0  0  0  0  0  0
    5.1465   12.5662   28.0984 F   0  0  0  0  0  0  0  0  0  0  0  0
    3.1185   12.7818   26.8501 C   0  0  0  0  0  0  0  0  0  0  0  0
    2.6250   13.7314   27.6785 F   0  0  0  0  0  0  0  0  0  0  0  0
    3.6518   13.4098   25.7825 F   0  0  0  0  0  0  0  0  0  0  0  0
    2.0454   12.0811   26.4013 F   0  0  0  0  0  0  0  0  0  0  0  0
    6.3990   12.1064   25.4664 C   0  0  0  0  0  0  0  0  0  0  0  0
    9.9633   14.3290   23.4643 C   0  0  2  0  0  0  0  0  0  0  0  0
   10.1361   15.8225   23.1140 C   0  0  1  0  0  0  0  0  0  0  0  0
   11.5790   16.0493   22.6600 C   0  0  0  0  0  0  0  0  0  0  0  0
   11.8738   15.2905   21.3825 C   0  0  1  0  0  0  0  0  0  0  0  0
   11.7152   13.8284   21.7693 C   0  0  0  0  0  0  0  0  0  0  0  0
   10.2681   13.5603   22.1800 C   0  0  2  0  0  0  0  0  0  0  0  0
    9.3252   14.0758   21.0991 C   0  0  0  0  0  0  0  0  0  0  0  0
    9.4980   15.4695   20.7494 N   0  0  0  0  0  0  0  0  0  0  0  0
   10.8748   15.6546   20.2762 C   0  0  0  0  0  0  0  0  0  0  0  0
    9.2351   16.2795   21.9401 C   0  0  0  0  0  0  0  0  0  0  0  0
  1  2  2  0
  2  3  1  0
  3  4  1  0
  4  5  1  0
  5  6  2  0
  6  7  1  0
  7  8  1  0
  8  9  1  0
  9 10  1  0
  9 11  1  0
  9 12  1  0
 12 13  1  0
 12 14  1  0
 12 15  1  0
  7 16  1  0
 17  2  1  6
 17 18  1  0
 18 19  1  6
 20 19  1  1
 20 21  1  0
 22 21  1  6
 22 23  1  0
 23 24  1  0
 24 25  1  0
 24 26  1  0
 16  4  2  0
 22 17  1  0
 26 18  1  0
 25 20  1  0
M  END
>  <energy_score>  (1866) 
-24.524412

>  <inchikey>  (1866) 
FUFLWJDFQZLSMX-UHFFFAOYSA-N

>  <smiles>  (1866) 
O=C(Nc1cnn(CC(F)(F)C(F)(F)F)c1)C1C2CC3CC1CN(C3)C2

>  <ref_pdb>  (1866) 
A0875a

>  <alias>  (1866) 
FUFLWJDFQZLSMX-UHFFFAOYSA-N-P198-P128-P198-601508

>  <HIPPO Pose ID>  (1866) 
513299

>  <name>  (1866) 
FUFLWJDFQZLSMX-UHFFFAOYSA-N-P198-P128-P198-601508

>  <HIPPO Compound ID>  (1866) 
310894

>  <ref_mols>  (1866) 
A2304a,A3618a

>  <distance_score>  (1866) 
1.510587

>  <inspiration_score>  (1866) 
None

$$$$
RRRLDDYBWRXELM-UHFFFAOYSA-N-P106-P106-P296-601508
     RDKit          3D

 19 22  0  0  0  0  0  0  0  0999 V2000
   15.8077   12.8206   27.3256 C   0  0  0  0  0  0  0  0  0  0  0  0
   16.5245   11.5081   27.1090 C   0  0  0  0  0  0  0  0  0  0  0  0
   15.7708   10.9559   25.9181 C   0  0  0  0  0  0  0  0  0  0  0  0
   14.3432   11.3248   26.1448 N   0  0  0  0  0  0  0  0  0  0  0  0
   13.6906   11.4876   24.8470 C   0  0  1  0  0  0  0  0  0  0  0  0
   12.4083   10.5505   24.8290 C   0  0  0  0  0  0  0  0  0  0  0  0
   11.5484   11.8161   24.9153 C   0  0  2  0  0  0  0  0  0  0  0  0
   10.4972   11.7729   23.9665 N   0  0  0  0  0  0  0  0  0  0  0  0
    9.2854   12.2214   24.3443 C   0  0  0  0  0  0  0  0  0  0  0  0
    8.8537   12.2983   25.5843 N   0  0  0  0  0  0  0  0  0  0  0  0
    7.5613   12.8020   25.5678 C   0  0  0  0  0  0  0  0  0  0  0  0
    6.8164   13.0580   26.8367 C   0  0  0  0  0  0  0  0  0  0  0  0
    6.0131   11.9629   27.4399 C   0  0  0  0  0  0  0  0  0  0  0  0
    5.6618   10.6855   26.7341 C   0  0  0  0  0  0  0  0  0  0  0  0
    4.6552   11.7870   26.8543 C   0  0  0  0  0  0  0  0  0  0  0  0
    7.0348   13.1758   24.4063 N   0  0  0  0  0  0  0  0  0  0  0  0
    8.1794   12.9208   23.2530 S   0  0  0  0  0  0  0  0  0  0  0  0
   12.7521   12.6740   24.5616 C   0  0  0  0  0  0  0  0  0  0  0  0
   14.3584   12.4303   27.1061 C   0  0  0  0  0  0  0  0  0  0  0  0
  1  2  1  0
  2  3  1  0
  3  4  1  0
  5  4  1  1
  5  6  1  0
  6  7  1  0
  7  8  1  6
  8  9  1  0
  9 10  2  0
 10 11  1  0
 11 12  1  0
 12 13  1  0
 13 14  1  0
 14 15  1  0
 11 16  2  0
 16 17  1  0
  7 18  1  0
  4 19  1  0
 19  1  1  0
 18  5  1  0
 17  9  1  0
 15 13  1  0
M  END
>  <energy_score>  (1867) 
-60.596901

>  <inchikey>  (1867) 
RRRLDDYBWRXELM-UHFFFAOYSA-N

>  <smiles>  (1867) 
C1CCN(C2CC(Nc3nc(CC4CC4)ns3)C2)C1

>  <ref_pdb>  (1867) 
A0875a

>  <alias>  (1867) 
RRRLDDYBWRXELM-UHFFFAOYSA-N-P106-P106-P296-601508

>  <HIPPO Pose ID>  (1867) 
513554

>  <name>  (1867) 
RRRLDDYBWRXELM-UHFFFAOYSA-N-P106-P106-P296-601508

>  <HIPPO Compound ID>  (1867) 
289922

>  <ref_mols>  (1867) 
A4311a,A1140a

>  <distance_score>  (1867) 
1.829063

>  <inspiration_score>  (1867) 
None

$$$$
OZAZPXQSXICTGU-UHFFFAOYSA-N-P106-P106-P296-601508
     RDKit          3D

 20 22  0  0  0  0  0  0  0  0999 V2000
   10.1751   13.9015   21.4957 C   0  0  0  0  0  0  0  0  0  0  0  0
    9.5038   14.7386   22.5853 C   0  0  0  0  0  0  0  0  0  0  0  0
   10.4617   14.8501   23.7520 C   0  0  0  0  0  0  0  0  0  0  0  0
    9.2930   16.1409   21.9603 C   0  0  0  0  0  0  0  0  0  0  0  0
    8.0958   14.1763   22.9607 C   0  0  0  0  0  0  0  0  0  0  0  0
    8.0307   12.9648   23.8090 C   0  0  0  0  0  0  0  0  0  0  0  0
    7.0544   12.6934   24.6846 N   0  0  0  0  0  0  0  0  0  0  0  0
    7.4528   11.1939   25.3453 S   0  0  0  0  0  0  0  0  0  0  0  0
    8.9916   11.2104   24.6016 C   0  0  0  0  0  0  0  0  0  0  0  0
   10.1119   10.5839   24.9828 N   0  0  0  0  0  0  0  0  0  0  0  0
   11.3288   11.0510   24.3883 C   0  0  2  0  0  0  0  0  0  0  0  0
   12.4786   10.1453   24.7646 C   0  0  0  0  0  0  0  0  0  0  0  0
   13.3963   11.4171   24.9323 C   0  0  2  0  0  0  0  0  0  0  0  0
   14.2254   11.2777   26.1239 N   0  0  0  0  0  0  0  0  0  0  0  0
   15.5633   10.7431   25.7467 C   0  0  0  0  0  0  0  0  0  0  0  0
   16.4707   11.1419   26.9070 C   0  0  0  0  0  0  0  0  0  0  0  0
   15.7176   12.2471   27.6286 C   0  0  0  0  0  0  0  0  0  0  0  0
   14.5893   12.5895   26.6778 C   0  0  0  0  0  0  0  0  0  0  0  0
   12.0912   12.2167   25.0914 C   0  0  0  0  0  0  0  0  0  0  0  0
    9.0204   12.0626   23.6233 N   0  0  0  0  0  0  0  0  0  0  0  0
  1  2  1  0
  2  3  1  0
  2  4  1  0
  2  5  1  0
  5  6  1  0
  6  7  2  0
  7  8  1  0
  8  9  1  0
  9 10  1  0
 11 10  1  1
 11 12  1  0
 12 13  1  0
 13 14  1  1
 14 15  1  0
 15 16  1  0
 16 17  1  0
 17 18  1  0
 13 19  1  0
  9 20  2  0
 20  6  1  0
 19 11  1  0
 18 14  1  0
M  END
>  <energy_score>  (1868) 
-38.564094

>  <inchikey>  (1868) 
OZAZPXQSXICTGU-UHFFFAOYSA-N

>  <smiles>  (1868) 
CC(C)(C)Cc1nsc(NC2CC(N3CCCC3)C2)n1

>  <ref_pdb>  (1868) 
A0875a

>  <alias>  (1868) 
OZAZPXQSXICTGU-UHFFFAOYSA-N-P106-P106-P296-601508

>  <HIPPO Pose ID>  (1868) 
513556

>  <name>  (1868) 
OZAZPXQSXICTGU-UHFFFAOYSA-N-P106-P106-P296-601508

>  <HIPPO Compound ID>  (1868) 
289923

>  <ref_mols>  (1868) 
A4311a,A1140a

>  <distance_score>  (1868) 
1.733633

>  <inspiration_score>  (1868) 
None

$$$$
NADHDOIVPLWKIN-UHFFFAOYSA-N-P328-P87-P328-601508
     RDKit          3D

 24 26  0  0  0  0  0  0  0  0999 V2000
   12.0815   15.2327   19.9656 C   0  0  0  0  0  0  0  0  0  0  0  0
   11.0392   15.7875   20.9217 C   0  0  0  0  0  0  0  0  0  0  0  0
   11.3708   15.4038   22.3562 C   0  0  0  0  0  0  0  0  0  0  0  0
   10.2193   15.6834   23.3208 C   0  0  0  0  0  0  0  0  0  0  0  0
    8.9160   15.1572   22.8757 N   0  0  0  0  0  0  0  0  0  0  0  0
    7.8440   15.5269   23.8116 C   0  0  0  0  0  0  0  0  0  0  0  0
    7.7342   14.5405   24.9869 C   0  0  1  0  0  0  0  0  0  0  0  0
    7.4825   15.2064   26.2239 O   0  0  0  0  0  0  0  0  0  0  0  0
    6.6572   13.4596   24.7384 C   0  0  0  0  0  0  0  0  0  0  0  0
    7.3700   12.2251   24.6228 N   0  0  0  0  0  0  0  0  0  0  0  0
    7.0261   10.8190   25.1450 C   0  0  0  0  0  0  0  0  0  0  0  0
    6.0718   10.4269   25.6851 O   0  0  0  0  0  0  0  0  0  0  0  0
    8.2632    9.9300   24.9358 C   0  0  1  0  0  0  0  0  0  0  0  0
    8.6668    9.3386   23.6334 C   0  0  0  0  0  0  0  0  0  0  0  0
    9.1812   10.4324   22.7546 C   0  0  0  0  0  0  0  0  0  0  0  0
   10.0421   11.5286   23.2733 C   0  0  0  0  0  0  0  0  0  0  0  0
   10.4049   12.4344   22.5396 O   0  0  0  0  0  0  0  0  0  0  0  0
   10.2811   11.5062   24.6137 N   0  0  0  0  0  0  0  0  0  0  0  0
   11.1632   12.4507   25.2718 C   0  0  0  0  0  0  0  0  0  0  0  0
   12.5899   12.0809   25.6436 C   0  0  0  0  0  0  0  0  0  0  0  0
   12.3307   13.1378   24.6332 C   0  0  0  0  0  0  0  0  0  0  0  0
    9.5068   10.6235   25.4491 C   0  0  0  0  0  0  0  0  0  0  0  0
    8.6045   15.6681   21.5336 C   0  0  0  0  0  0  0  0  0  0  0  0
    9.6717   15.2495   20.5368 C   0  0  0  0  0  0  0  0  0  0  0  0
  1  2  1  0
  2  3  1  0
  3  4  1  0
  4  5  1  0
  5  6  1  0
  6  7  1  0
  7  8  1  1
  7  9  1  0
  9 10  1  0
 10 11  1  0
 11 12  2  0
 13 11  1  6
 13 14  1  0
 14 15  1  0
 15 16  1  0
 16 17  2  0
 16 18  1  0
 18 19  1  0
 19 20  1  0
 20 21  1  0
 18 22  1  0
  5 23  1  0
 23 24  1  0
 24  2  1  0
 22 13  1  0
 21 19  1  0
M  END
>  <energy_score>  (1869) 
-4.402455

>  <inchikey>  (1869) 
NADHDOIVPLWKIN-UHFFFAOYSA-N

>  <smiles>  (1869) 
CC1CCN(CC(O)CNC(=O)C2CCC(=O)N(C3CC3)C2)CC1

>  <ref_pdb>  (1869) 
A0875a

>  <alias>  (1869) 
NADHDOIVPLWKIN-UHFFFAOYSA-N-P328-P87-P328-601508

>  <HIPPO Pose ID>  (1869) 
513901

>  <name>  (1869) 
NADHDOIVPLWKIN-UHFFFAOYSA-N-P328-P87-P328-601508

>  <HIPPO Compound ID>  (1869) 
313046

>  <ref_mols>  (1869) 
A4374a,A0875a

>  <distance_score>  (1869) 
1.981731

>  <inspiration_score>  (1869) 
None

$$$$
CWONUZCUTWZKGJ-UHFFFAOYSA-N-P38-P38-P51-601508
     RDKit          3D

 24 27  0  0  0  0  0  0  0  0999 V2000
   14.2712    8.5622   -1.8403 C   0  0  0  0  0  0  0  0  0  0  0  0
   13.9813    9.7695   -1.1449 O   0  0  0  0  0  0  0  0  0  0  0  0
   15.0444   10.4548   -0.6283 C   0  0  0  0  0  0  0  0  0  0  0  0
   16.3872   10.1498   -0.8057 C   0  0  0  0  0  0  0  0  0  0  0  0
   17.3738   10.9422   -0.2073 C   0  0  0  0  0  0  0  0  0  0  0  0
   17.0454   12.0729    0.5665 C   0  0  0  0  0  0  0  0  0  0  0  0
   15.6845   12.3472    0.7770 C   0  0  0  0  0  0  0  0  0  0  0  0
   14.7029   11.5538    0.1576 C   0  0  0  0  0  0  0  0  0  0  0  0
   15.2266   13.5019    1.6248 C   0  0  0  0  0  0  0  0  0  0  0  0
   16.2850   13.9391    2.6271 C   0  0  0  0  0  0  0  0  0  0  0  0
   17.6034   14.1895    1.9076 C   0  0  0  0  0  0  0  0  0  0  0  0
   18.1381   12.9085    1.2318 C   0  0  1  0  0  0  0  0  0  0  0  0
   18.6870   12.0938    2.2792 O   0  0  0  0  0  0  0  0  0  0  0  0
   19.2626   13.2994    0.2372 C   0  0  0  0  0  0  0  0  0  0  0  0
   20.5329   13.6380    0.8367 N   0  0  0  0  0  0  0  0  0  0  0  0
   21.9611   13.6167    0.2427 C   0  0  0  0  0  0  0  0  0  0  0  0
   22.3414   13.2499   -0.7964 O   0  0  0  0  0  0  0  0  0  0  0  0
   22.9059   14.2234    1.3046 C   0  0  1  0  0  0  0  0  0  0  0  0
   24.3669   14.2587    0.7982 C   0  0  0  0  0  0  0  0  0  0  0  0
   24.5969   15.7682    0.5861 C   0  0  1  0  0  0  0  0  0  0  0  0
   23.2233   16.3433    0.2845 C   0  0  0  0  0  0  0  0  0  0  0  0
   22.6221   15.7257    1.5352 C   0  0  2  0  0  0  0  0  0  0  0  0
   23.5993   16.2724    2.5797 C   0  0  0  0  0  0  0  0  0  0  0  0
   24.8618   16.3297    1.8880 O   0  0  0  0  0  0  0  0  0  0  0  0
  1  2  1  0
  2  3  1  0
  3  4  2  0
  4  5  1  0
  5  6  2  0
  6  7  1  0
  7  8  2  0
  7  9  1  0
  9 10  1  0
 10 11  1  0
 11 12  1  0
 12 13  1  1
 12 14  1  0
 14 15  1  0
 15 16  1  0
 16 17  2  0
 18 16  1  6
 18 19  1  0
 20 19  1  1
 20 21  1  0
 21 22  1  0
 22 23  1  1
 23 24  1  0
  8  3  1  0
 22 18  1  0
 12  6  1  0
 24 20  1  0
M  END
>  <energy_score>  (1870) 
-33.463296

>  <inchikey>  (1870) 
CWONUZCUTWZKGJ-UHFFFAOYSA-N

>  <smiles>  (1870) 
COc1ccc2c(c1)CCCC2(O)CNC(=O)C1CC2CC1CO2

>  <ref_pdb>  (1870) 
A0875a

>  <alias>  (1870) 
CWONUZCUTWZKGJ-UHFFFAOYSA-N-P38-P38-P51-601508

>  <HIPPO Pose ID>  (1870) 
514030

>  <name>  (1870) 
CWONUZCUTWZKGJ-UHFFFAOYSA-N-P38-P38-P51-601508

>  <HIPPO Compound ID>  (1870) 
290290

>  <ref_mols>  (1870) 
A0239a,A0608a

>  <distance_score>  (1870) 
1.621406

>  <inspiration_score>  (1870) 
None

$$$$
XAROSNGDCXVAEE-UHFFFAOYSA-N-P38-P38-P51-601508
     RDKit          3D

 25 27  0  0  0  0  0  0  0  0999 V2000
   28.8300   11.5885    2.9135 C   0  0  0  0  0  0  0  0  0  0  0  0
   27.4633   11.9591    3.0562 O   0  0  0  0  0  0  0  0  0  0  0  0
   26.7358   12.0593    1.9037 C   0  0  0  0  0  0  0  0  0  0  0  0
   25.3660   12.2063    2.0790 C   0  0  0  0  0  0  0  0  0  0  0  0
   24.5182   12.3256    0.9742 C   0  0  0  0  0  0  0  0  0  0  0  0
   25.0160   12.3194   -0.3311 C   0  0  0  0  0  0  0  0  0  0  0  0
   26.4061   12.1827   -0.5002 C   0  0  0  0  0  0  0  0  0  0  0  0
   27.2528   12.0572    0.6112 C   0  0  0  0  0  0  0  0  0  0  0  0
   26.9986   12.2872   -1.8818 C   0  0  0  0  0  0  0  0  0  0  0  0
   26.1746   11.5468   -2.9290 C   0  0  0  0  0  0  0  0  0  0  0  0
   24.6623   11.5436   -2.6794 C   0  0  0  0  0  0  0  0  0  0  0  0
   24.1734   12.5183   -1.5851 C   0  0  2  0  0  0  0  0  0  0  0  0
   24.3996   13.8625   -2.0536 O   0  0  0  0  0  0  0  0  0  0  0  0
   22.6473   12.3242   -1.4562 C   0  0  0  0  0  0  0  0  0  0  0  0
   22.0285   13.3087   -0.6135 N   0  0  0  0  0  0  0  0  0  0  0  0
   20.6607   13.3033    0.0925 C   0  0  0  0  0  0  0  0  0  0  0  0
   19.7874   12.5343    0.0408 O   0  0  0  0  0  0  0  0  0  0  0  0
   20.5770   14.5845    0.9119 C   0  0  2  0  0  0  0  0  0  0  0  0
   20.3947   15.7252   -0.0649 C   0  0  0  0  0  0  0  0  0  0  0  0
   21.6831   14.6909    1.9867 C   0  0  0  0  0  0  0  0  0  0  0  0
   22.8776   15.6286    1.8127 C   0  0  2  0  0  0  0  0  0  0  0  0
   22.5837   17.1010    2.0420 C   0  0  0  0  0  0  0  0  0  0  0  0
   23.7695   17.7493    1.3806 C   0  0  0  0  0  0  0  0  0  0  0  0
   24.0378   16.8356    0.2040 C   0  0  0  0  0  0  0  0  0  0  0  0
   23.4675   15.5464    0.5075 O   0  0  0  0  0  0  0  0  0  0  0  0
  1  2  1  0
  2  3  1  0
  3  4  2  0
  4  5  1  0
  5  6  2  0
  6  7  1  0
  7  8  2  0
  7  9  1  0
  9 10  1  0
 10 11  1  0
 11 12  1  0
 12 13  1  6
 12 14  1  0
 14 15  1  0
 15 16  1  0
 16 17  2  0
 16 18  1  0
 18 19  1  6
 18 20  1  0
 21 20  1  6
 21 22  1  0
 22 23  1  0
 23 24  1  0
 24 25  1  0
  8  3  1  0
 25 21  1  0
 12  6  1  0
M  END
>  <energy_score>  (1871) 
-29.126889

>  <inchikey>  (1871) 
XAROSNGDCXVAEE-UHFFFAOYSA-N

>  <smiles>  (1871) 
COc1ccc2c(c1)CCCC2(O)CNC(=O)C(C)CC1CCCO1

>  <ref_pdb>  (1871) 
A0875a

>  <alias>  (1871) 
XAROSNGDCXVAEE-UHFFFAOYSA-N-P38-P38-P51-601508

>  <HIPPO Pose ID>  (1871) 
514060

>  <name>  (1871) 
XAROSNGDCXVAEE-UHFFFAOYSA-N-P38-P38-P51-601508

>  <HIPPO Compound ID>  (1871) 
290307

>  <ref_mols>  (1871) 
A0239a,A0608a

>  <distance_score>  (1871) 
1.981361

>  <inspiration_score>  (1871) 
None

$$$$
IMUYXSJFCIUBEL-UHFFFAOYSA-N-P51-P38-P51-601508
     RDKit          3D

 25 28  0  0  0  0  0  0  0  0999 V2000
   17.9012   18.7985    2.4427 C   0  0  0  0  0  0  0  0  0  0  0  0
   16.6621   18.3629    1.8929 O   0  0  0  0  0  0  0  0  0  0  0  0
   16.6051   17.0418    1.5391 C   0  0  0  0  0  0  0  0  0  0  0  0
   15.7209   16.7391    0.5104 C   0  0  0  0  0  0  0  0  0  0  0  0
   15.5810   15.4242    0.0750 C   0  0  0  0  0  0  0  0  0  0  0  0
   16.3113   14.3860    0.6769 C   0  0  0  0  0  0  0  0  0  0  0  0
   17.2098   14.6767    1.7281 C   0  0  0  0  0  0  0  0  0  0  0  0
   17.3236   16.0150    2.1584 C   0  0  0  0  0  0  0  0  0  0  0  0
   17.9203   13.5452    2.4479 C   0  0  2  0  0  0  0  0  0  0  0  0
   16.9227   13.2074    3.4528 O   0  0  0  0  0  0  0  0  0  0  0  0
   19.2341   13.8785    3.2164 C   0  0  0  0  0  0  0  0  0  0  0  0
   20.5184   14.0748    2.5884 N   0  0  0  0  0  0  0  0  0  0  0  0
   20.8774   14.5729    1.1641 C   0  0  0  0  0  0  0  0  0  0  0  0
   20.1895   14.8266    0.2568 O   0  0  0  0  0  0  0  0  0  0  0  0
   22.4217   14.7979    1.1305 C   0  0  1  0  0  0  0  0  0  0  0  0
   23.1927   13.4670    1.2176 C   0  0  0  0  0  0  0  0  0  0  0  0
   22.8725   15.5707   -0.1430 C   0  0  0  0  0  0  0  0  0  0  0  0
   23.5263   16.8262    0.4438 C   0  0  1  0  0  0  0  0  0  0  0  0
   22.4731   17.7701    1.0178 C   0  0  0  0  0  0  0  0  0  0  0  0
   22.0745   17.0537    2.3041 C   0  0  0  0  0  0  0  0  0  0  0  0
   22.9060   15.7726    2.2305 C   0  0  2  0  0  0  0  0  0  0  0  0
   24.1250   16.2943    1.6434 O   0  0  0  0  0  0  0  0  0  0  0  0
   18.0971   12.3164    1.5364 C   0  0  0  0  0  0  0  0  0  0  0  0
   16.7634   11.8810    0.9384 C   0  0  0  0  0  0  0  0  0  0  0  0
   16.1510   12.9966    0.1045 C   0  0  0  0  0  0  0  0  0  0  0  0
  1  2  1  0
  2  3  1  0
  3  4  2  0
  4  5  1  0
  5  6  2  0
  6  7  1  0
  7  8  2  0
  7  9  1  0
  9 10  1  1
  9 11  1  0
 11 12  1  0
 12 13  1  0
 13 14  2  0
 13 15  1  0
 15 16  1  1
 15 17  1  0
 18 17  1  1
 18 19  1  0
 19 20  1  0
 21 20  1  6
 21 22  1  0
  9 23  1  0
 23 24  1  0
 24 25  1  0
  8  3  1  0
 21 15  1  0
 25  6  1  0
 22 18  1  0
M  END
>  <energy_score>  (1872) 
-26.479172

>  <inchikey>  (1872) 
IMUYXSJFCIUBEL-UHFFFAOYSA-N

>  <smiles>  (1872) 
COc1ccc2c(c1)C(O)(CNC(=O)C1(C)CC3CCC1O3)CCC2

>  <ref_pdb>  (1872) 
A0875a

>  <alias>  (1872) 
IMUYXSJFCIUBEL-UHFFFAOYSA-N-P51-P38-P51-601508

>  <HIPPO Pose ID>  (1872) 
514069

>  <name>  (1872) 
IMUYXSJFCIUBEL-UHFFFAOYSA-N-P51-P38-P51-601508

>  <HIPPO Compound ID>  (1872) 
290320

>  <ref_mols>  (1872) 
A0239a,A0608a

>  <distance_score>  (1872) 
1.344159

>  <inspiration_score>  (1872) 
None

$$$$
UURGVZUIMYLALW-UHFFFAOYSA-N-P38-P38-P51-601508
     RDKit          3D

 25 28  0  0  0  0  0  0  0  0999 V2000
   27.6074   11.4232    3.0753 C   0  0  0  0  0  0  0  0  0  0  0  0
   27.7684   11.4318    1.6659 O   0  0  0  0  0  0  0  0  0  0  0  0
   26.6665   11.7564    0.9309 C   0  0  0  0  0  0  0  0  0  0  0  0
   25.3724   11.9249    1.4018 C   0  0  0  0  0  0  0  0  0  0  0  0
   24.3372   12.2242    0.5048 C   0  0  0  0  0  0  0  0  0  0  0  0
   24.5686   12.4017   -0.8611 C   0  0  0  0  0  0  0  0  0  0  0  0
   25.8839   12.2242   -1.3237 C   0  0  0  0  0  0  0  0  0  0  0  0
   26.9142   11.9086   -0.4303 C   0  0  0  0  0  0  0  0  0  0  0  0
   26.1935   12.4594   -2.7792 C   0  0  0  0  0  0  0  0  0  0  0  0
   25.1207   11.8790   -3.6971 C   0  0  0  0  0  0  0  0  0  0  0  0
   23.6869   11.9564   -3.1533 C   0  0  0  0  0  0  0  0  0  0  0  0
   23.5155   12.8203   -1.8854 C   0  0  2  0  0  0  0  0  0  0  0  0
   23.7783   14.1905   -2.2528 O   0  0  0  0  0  0  0  0  0  0  0  0
   22.0241   12.7477   -1.4664 C   0  0  0  0  0  0  0  0  0  0  0  0
   21.7228   13.6492   -0.3848 N   0  0  0  0  0  0  0  0  0  0  0  0
   20.6132   13.5975    0.6813 C   0  0  0  0  0  0  0  0  0  0  0  0
   19.7180   12.8571    0.8076 O   0  0  0  0  0  0  0  0  0  0  0  0
   20.9096   14.6969    1.7414 C   0  0  1  0  0  0  0  0  0  0  0  0
   22.3248   14.7210    2.3661 C   0  0  0  0  0  0  0  0  0  0  0  0
   22.6122   16.0501    1.6558 C   0  0  1  0  0  0  0  0  0  0  0  0
   23.1041   17.2161    2.4905 C   0  0  0  0  0  0  0  0  0  0  0  0
   23.7105   18.1154    1.4313 C   0  0  0  0  0  0  0  0  0  0  0  0
   24.3753   17.1234    0.4951 C   0  0  0  0  0  0  0  0  0  0  0  0
   23.5257   15.9639    0.5283 O   0  0  0  0  0  0  0  0  0  0  0  0
   21.1206   16.1387    1.2581 C   0  0  0  0  0  0  0  0  0  0  0  0
  1  2  1  0
  2  3  1  0
  3  4  2  0
  4  5  1  0
  5  6  2  0
  6  7  1  0
  7  8  2  0
  7  9  1  0
  9 10  1  0
 10 11  1  0
 11 12  1  0
 12 13  1  6
 12 14  1  0
 14 15  1  0
 15 16  1  0
 16 17  2  0
 18 16  1  6
 18 19  1  0
 20 19  1  1
 20 21  1  0
 21 22  1  0
 22 23  1  0
 23 24  1  0
 20 25  1  0
  8  3  1  0
 25 18  1  0
 12  6  1  0
 24 20  1  0
M  END
>  <energy_score>  (1873) 
-36.37821

>  <inchikey>  (1873) 
UURGVZUIMYLALW-UHFFFAOYSA-N

>  <smiles>  (1873) 
COc1ccc2c(c1)CCCC2(O)CNC(=O)C1CC2(CCCO2)C1

>  <ref_pdb>  (1873) 
A0875a

>  <alias>  (1873) 
UURGVZUIMYLALW-UHFFFAOYSA-N-P38-P38-P51-601508

>  <HIPPO Pose ID>  (1873) 
514078

>  <name>  (1873) 
UURGVZUIMYLALW-UHFFFAOYSA-N-P38-P38-P51-601508

>  <HIPPO Compound ID>  (1873) 
290331

>  <ref_mols>  (1873) 
A0239a,A0608a

>  <distance_score>  (1873) 
1.836306

>  <inspiration_score>  (1873) 
None

$$$$
SLYIICNVYREAHT-UHFFFAOYSA-N-P51-P38-P51-601508
     RDKit          3D

 26 28  0  0  0  0  0  0  0  0999 V2000
   29.0616    8.7488   -3.2715 C   0  0  0  0  0  0  0  0  0  0  0  0
   28.8272    8.9814   -1.8883 O   0  0  0  0  0  0  0  0  0  0  0  0
   27.8706    9.9081   -1.5773 C   0  0  0  0  0  0  0  0  0  0  0  0
   26.9839   10.4951   -2.4741 C   0  0  0  0  0  0  0  0  0  0  0  0
   26.0646   11.4463   -2.0252 C   0  0  0  0  0  0  0  0  0  0  0  0
   26.0106   11.8274   -0.6732 C   0  0  0  0  0  0  0  0  0  0  0  0
   26.8910   11.2210    0.2401 C   0  0  0  0  0  0  0  0  0  0  0  0
   27.8130   10.2682   -0.2286 C   0  0  0  0  0  0  0  0  0  0  0  0
   26.9422   11.5966    1.7047 C   0  0  0  0  0  0  0  0  0  0  0  0
   25.8605   12.5636    2.1736 C   0  0  0  0  0  0  0  0  0  0  0  0
   25.5024   13.5504    1.0745 C   0  0  0  0  0  0  0  0  0  0  0  0
   24.9904   12.8444   -0.1982 C   0  0  1  0  0  0  0  0  0  0  0  0
   24.7552   13.8320   -1.2179 O   0  0  0  0  0  0  0  0  0  0  0  0
   23.6569   12.1136   -0.0007 C   0  0  0  0  0  0  0  0  0  0  0  0
   22.6141   13.0561    0.2680 N   0  0  0  0  0  0  0  0  0  0  0  0
   22.1627   13.7056    1.6031 C   0  0  0  0  0  0  0  0  0  0  0  0
   22.5210   13.5130    2.6963 O   0  0  0  0  0  0  0  0  0  0  0  0
   21.1762   14.7827    1.2051 C   0  0  0  0  0  0  0  0  0  0  0  0
   20.3319   15.1698    2.1879 F   0  0  0  0  0  0  0  0  0  0  0  0
   20.4037   14.3574    0.1617 F   0  0  0  0  0  0  0  0  0  0  0  0
   22.0163   15.9488    0.7280 C   0  0  0  0  0  0  0  0  0  0  0  0
   22.9455   16.5148    1.8012 C   0  0  2  0  0  0  0  0  0  0  0  0
   22.3260   17.6690    2.5662 C   0  0  0  0  0  0  0  0  0  0  0  0
   22.7515   18.8650    1.7546 C   0  0  0  0  0  0  0  0  0  0  0  0
   24.1377   18.4586    1.3086 C   0  0  0  0  0  0  0  0  0  0  0  0
   24.0950   17.0428    1.1060 O   0  0  0  0  0  0  0  0  0  0  0  0
  1  2  1  0
  2  3  1  0
  3  4  2  0
  4  5  1  0
  5  6  2  0
  6  7  1  0
  7  8  2  0
  7  9  1  0
  9 10  1  0
 10 11  1  0
 11 12  1  0
 12 13  1  6
 12 14  1  0
 14 15  1  0
 15 16  1  0
 16 17  2  0
 16 18  1  0
 18 19  1  0
 18 20  1  0
 18 21  1  0
 22 21  1  6
 22 23  1  0
 23 24  1  0
 24 25  1  0
 25 26  1  0
  8  3  1  0
 26 22  1  0
 12  6  1  0
M  END
>  <energy_score>  (1874) 
-30.154557

>  <inchikey>  (1874) 
SLYIICNVYREAHT-UHFFFAOYSA-N

>  <smiles>  (1874) 
COc1ccc2c(c1)CCCC2(O)CNC(=O)C(F)(F)CC1CCCO1

>  <ref_pdb>  (1874) 
A0875a

>  <alias>  (1874) 
SLYIICNVYREAHT-UHFFFAOYSA-N-P51-P38-P51-601508

>  <HIPPO Pose ID>  (1874) 
514099

>  <name>  (1874) 
SLYIICNVYREAHT-UHFFFAOYSA-N-P51-P38-P51-601508

>  <HIPPO Compound ID>  (1874) 
290346

>  <ref_mols>  (1874) 
A0239a,A0608a

>  <distance_score>  (1874) 
1.978025

>  <inspiration_score>  (1874) 
None

$$$$
WLNUZXIHIMSZOP-UHFFFAOYSA-N-P38-P38-P51-601508
     RDKit          3D

 28 31  0  0  0  0  0  0  0  0999 V2000
   14.9786    9.7921   -0.9398 C   0  0  0  0  0  0  0  0  0  0  0  0
   15.4994   10.4952    0.1863 O   0  0  0  0  0  0  0  0  0  0  0  0
   16.7445   11.0469    0.0192 C   0  0  0  0  0  0  0  0  0  0  0  0
   17.7059   10.5126   -0.8353 C   0  0  0  0  0  0  0  0  0  0  0  0
   18.9226   11.1608   -0.9916 C   0  0  0  0  0  0  0  0  0  0  0  0
   19.2003   12.3164   -0.2593 C   0  0  0  0  0  0  0  0  0  0  0  0
   18.2920   12.8438    0.6722 C   0  0  0  0  0  0  0  0  0  0  0  0
   17.0248   12.2122    0.7711 C   0  0  0  0  0  0  0  0  0  0  0  0
   15.9360   12.7740    1.6564 C   0  0  0  0  0  0  0  0  0  0  0  0
   16.1087   14.2604    1.9159 C   0  0  0  0  0  0  0  0  0  0  0  0
   17.5151   14.5253    2.4249 C   0  0  0  0  0  0  0  0  0  0  0  0
   18.6041   14.1698    1.3792 C   0  0  2  0  0  0  0  0  0  0  0  0
   18.5633   15.2008    0.3714 O   0  0  0  0  0  0  0  0  0  0  0  0
   19.9635   14.3392    2.1423 C   0  0  0  0  0  0  0  0  0  0  0  0
   21.2123   14.1592    1.4352 N   0  0  0  0  0  0  0  0  0  0  0  0
   22.6540   13.9108    1.9751 C   0  0  0  0  0  0  0  0  0  0  0  0
   23.0334   13.7382    3.0659 O   0  0  0  0  0  0  0  0  0  0  0  0
   23.6218   13.8684    0.7570 C   0  0  2  0  0  0  0  0  0  0  0  0
   23.1275   12.9704   -0.3769 C   0  0  0  0  0  0  0  0  0  0  0  0
   24.1615   12.1181   -1.0809 C   0  0  0  0  0  0  0  0  0  0  0  0
   25.5021   12.7971   -1.2903 C   0  0  0  0  0  0  0  0  0  0  0  0
   25.9573   13.7197   -0.1598 C   0  0  0  0  0  0  0  0  0  0  0  0
   25.1204   13.6435    1.1297 C   0  0  2  0  0  0  0  0  0  0  0  0
   25.4866   12.4097    1.9841 C   0  0  2  0  0  0  0  0  0  0  0  0
   26.7385   12.6689    2.8171 C   0  0  0  0  0  0  0  0  0  0  0  0
   27.2264   11.2724    3.0871 C   0  0  0  0  0  0  0  0  0  0  0  0
   26.9479   10.5962    1.7685 C   0  0  0  0  0  0  0  0  0  0  0  0
   25.8040   11.2470    1.1994 O   0  0  0  0  0  0  0  0  0  0  0  0
  1  2  1  0
  2  3  1  0
  3  4  2  0
  4  5  1  0
  5  6  2  0
  6  7  1  0
  7  8  2  0
  8  9  1  0
  9 10  1  0
 10 11  1  0
 11 12  1  0
 12 13  1  6
 12 14  1  0
 14 15  1  0
 15 16  1  0
 16 17  2  0
 18 16  1  1
 18 19  1  0
 19 20  1  0
 20 21  1  0
 21 22  1  0
 23 22  1  6
 23 24  1  0
 24 25  1  6
 25 26  1  0
 26 27  1  0
 27 28  1  0
  8  3  1  0
 23 18  1  0
 28 24  1  0
 12  7  1  0
M  END
>  <energy_score>  (1875) 
-50.705415

>  <inchikey>  (1875) 
WLNUZXIHIMSZOP-UHFFFAOYSA-N

>  <smiles>  (1875) 
COc1cccc2c1CCCC2(O)CNC(=O)C1CCCCC1C1CCCO1

>  <ref_pdb>  (1875) 
A0875a

>  <alias>  (1875) 
WLNUZXIHIMSZOP-UHFFFAOYSA-N-P38-P38-P51-601508

>  <HIPPO Pose ID>  (1875) 
514124

>  <name>  (1875) 
WLNUZXIHIMSZOP-UHFFFAOYSA-N-P38-P38-P51-601508

>  <HIPPO Compound ID>  (1875) 
290376

>  <ref_mols>  (1875) 
A0239a,A0608a

>  <distance_score>  (1875) 
1.700976

>  <inspiration_score>  (1875) 
None

$$$$
OSDSSPLCWWJAKL-UHFFFAOYSA-N-P51-P38-P51-601508
     RDKit          3D

 28 31  0  0  0  0  0  0  0  0999 V2000
   15.7489    9.0604   -2.1028 C   0  0  0  0  0  0  0  0  0  0  0  0
   17.1187    9.4394   -2.0412 O   0  0  0  0  0  0  0  0  0  0  0  0
   17.4445   10.4421   -1.1732 C   0  0  0  0  0  0  0  0  0  0  0  0
   18.7849   10.8069   -1.1830 C   0  0  0  0  0  0  0  0  0  0  0  0
   19.2378   11.8447   -0.3680 C   0  0  0  0  0  0  0  0  0  0  0  0
   18.3748   12.5611    0.4672 C   0  0  0  0  0  0  0  0  0  0  0  0
   17.0270   12.1525    0.5182 C   0  0  0  0  0  0  0  0  0  0  0  0
   16.5737   11.1048   -0.3110 C   0  0  0  0  0  0  0  0  0  0  0  0
   16.0162   12.8409    1.3974 C   0  0  0  0  0  0  0  0  0  0  0  0
   16.6610   13.6834    2.4872 C   0  0  0  0  0  0  0  0  0  0  0  0
   17.7560   14.5593    1.8928 C   0  0  0  0  0  0  0  0  0  0  0  0
   18.9209   13.7310    1.2831 C   0  0  1  0  0  0  0  0  0  0  0  0
   19.6322   13.1720    2.3879 O   0  0  0  0  0  0  0  0  0  0  0  0
   19.7893   14.7439    0.4259 C   0  0  0  0  0  0  0  0  0  0  0  0
   21.2325   14.5927    0.2272 N   0  0  0  0  0  0  0  0  0  0  0  0
   22.3413   14.1361    1.2092 C   0  0  0  0  0  0  0  0  0  0  0  0
   22.2643   13.7371    2.3022 O   0  0  0  0  0  0  0  0  0  0  0  0
   23.7344   14.3981    0.5289 C   0  0  1  0  0  0  0  0  0  0  0  0
   24.7462   14.7929    1.6478 C   0  0  0  0  0  0  0  0  0  0  0  0
   25.7492   13.7053    2.0543 C   0  0  0  0  0  0  0  0  0  0  0  0
   25.2343   12.3042    1.8034 C   0  0  0  0  0  0  0  0  0  0  0  0
   24.8631   12.0810    0.3409 C   0  0  0  0  0  0  0  0  0  0  0  0
   24.4161   13.3571   -0.3887 C   0  0  1  0  0  0  0  0  0  0  0  0
   23.7839   13.1090   -1.7694 C   0  0  2  0  0  0  0  0  0  0  0  0
   22.4987   12.3063   -1.8335 C   0  0  0  0  0  0  0  0  0  0  0  0
   22.6444   11.5090   -3.1064 C   0  0  0  0  0  0  0  0  0  0  0  0
   24.1245   11.2294   -3.1277 C   0  0  0  0  0  0  0  0  0  0  0  0
   24.7438   12.4027   -2.5898 O   0  0  0  0  0  0  0  0  0  0  0  0
  1  2  1  0
  2  3  1  0
  3  4  2  0
  4  5  1  0
  5  6  2  0
  6  7  1  0
  7  8  2  0
  7  9  1  0
  9 10  1  0
 10 11  1  0
 11 12  1  0
 12 13  1  1
 12 14  1  0
 14 15  1  0
 15 16  1  0
 16 17  2  0
 18 16  1  1
 18 19  1  0
 19 20  1  0
 20 21  1  0
 21 22  1  0
 23 22  1  1
 23 24  1  0
 24 25  1  1
 25 26  1  0
 26 27  1  0
 27 28  1  0
  8  3  1  0
 23 18  1  0
 28 24  1  0
 12  6  1  0
M  END
>  <energy_score>  (1876) 
-26.550565

>  <inchikey>  (1876) 
OSDSSPLCWWJAKL-UHFFFAOYSA-N

>  <smiles>  (1876) 
COc1ccc2c(c1)CCCC2(O)CNC(=O)C1CCCCC1C1CCCO1

>  <ref_pdb>  (1876) 
A0875a

>  <alias>  (1876) 
OSDSSPLCWWJAKL-UHFFFAOYSA-N-P51-P38-P51-601508

>  <HIPPO Pose ID>  (1876) 
514127

>  <name>  (1876) 
OSDSSPLCWWJAKL-UHFFFAOYSA-N-P51-P38-P51-601508

>  <HIPPO Compound ID>  (1876) 
290377

>  <ref_mols>  (1876) 
A0239a,A0608a

>  <distance_score>  (1876) 
1.835925

>  <inspiration_score>  (1876) 
None

$$$$
WBWUXRNBKBEWRQ-UHFFFAOYSA-N-P51-P38-P51-601508
     RDKit          3D

 28 30  0  0  0  0  0  0  0  0999 V2000
   18.0774    9.8788   -3.2316 C   0  0  0  0  0  0  0  0  0  0  0  0
   17.4709    9.6302   -1.9638 O   0  0  0  0  0  0  0  0  0  0  0  0
   17.7391   10.5990   -1.0399 C   0  0  0  0  0  0  0  0  0  0  0  0
   18.9985   11.1305   -0.8268 C   0  0  0  0  0  0  0  0  0  0  0  0
   19.1767   12.1460    0.1199 C   0  0  0  0  0  0  0  0  0  0  0  0
   18.1153   12.6737    0.8704 C   0  0  0  0  0  0  0  0  0  0  0  0
   16.8399   12.1032    0.6500 C   0  0  0  0  0  0  0  0  0  0  0  0
   16.6756   11.0482   -0.2697 C   0  0  0  0  0  0  0  0  0  0  0  0
   15.6084   12.5744    1.3765 C   0  0  0  0  0  0  0  0  0  0  0  0
   15.7450   13.9869    1.9134 C   0  0  0  0  0  0  0  0  0  0  0  0
   17.0556   14.1169    2.6738 C   0  0  0  0  0  0  0  0  0  0  0  0
   18.2910   13.9141    1.7538 C   0  0  2  0  0  0  0  0  0  0  0  0
   18.3061   15.0633    0.8913 O   0  0  0  0  0  0  0  0  0  0  0  0
   19.5199   14.0098    2.7217 C   0  0  0  0  0  0  0  0  0  0  0  0
   20.8819   14.0509    2.2111 N   0  0  0  0  0  0  0  0  0  0  0  0
   21.4294   14.5245    0.8396 C   0  0  0  0  0  0  0  0  0  0  0  0
   20.8640   14.8818   -0.1185 O   0  0  0  0  0  0  0  0  0  0  0  0
   22.9540   14.5858    0.8917 C   0  0  1  0  0  0  0  0  0  0  0  0
   23.4453   15.5465    1.9848 C   0  0  0  0  0  0  0  0  0  0  0  0
   22.8826   16.9565    1.7655 C   0  0  1  0  0  0  0  0  0  0  0  0
   23.4534   17.9810    2.7208 C   0  0  0  0  0  0  0  0  0  0  0  0
   24.7768   18.3184    2.0812 C   0  0  0  0  0  0  0  0  0  0  0  0
   24.4974   18.1612    0.6029 C   0  0  0  0  0  0  0  0  0  0  0  0
   23.2932   17.3978    0.4651 O   0  0  0  0  0  0  0  0  0  0  0  0
   23.6034   13.2311    0.9784 C   0  0  0  0  0  0  0  0  0  0  0  0
   23.6798   12.7957    2.2512 F   0  0  0  0  0  0  0  0  0  0  0  0
   24.8688   13.2773    0.5022 F   0  0  0  0  0  0  0  0  0  0  0  0
   22.9427   12.3178    0.2369 F   0  0  0  0  0  0  0  0  0  0  0  0
  1  2  1  0
  2  3  1  0
  3  4  2  0
  4  5  1  0
  5  6  2  0
  6  7  1  0
  7  8  2  0
  7  9  1  0
  9 10  1  0
 10 11  1  0
 11 12  1  0
 12 13  1  6
 12 14  1  0
 14 15  1  0
 15 16  1  0
 16 17  2  0
 16 18  1  0
 18 19  1  1
 20 19  1  1
 20 21  1  0
 21 22  1  0
 22 23  1  0
 23 24  1  0
 18 25  1  0
 25 26  1  0
 25 27  1  0
 25 28  1  0
  8  3  1  0
 24 20  1  0
 12  6  1  0
M  END
>  <energy_score>  (1877) 
-21.455466

>  <inchikey>  (1877) 
WBWUXRNBKBEWRQ-UHFFFAOYSA-N

>  <smiles>  (1877) 
COc1ccc2c(c1)CCCC2(O)CNC(=O)C(CC1CCCO1)C(F)(F)F

>  <ref_pdb>  (1877) 
A0875a

>  <alias>  (1877) 
WBWUXRNBKBEWRQ-UHFFFAOYSA-N-P51-P38-P51-601508

>  <HIPPO Pose ID>  (1877) 
514135

>  <name>  (1877) 
WBWUXRNBKBEWRQ-UHFFFAOYSA-N-P51-P38-P51-601508

>  <HIPPO Compound ID>  (1877) 
290384

>  <ref_mols>  (1877) 
A0239a,A0608a

>  <distance_score>  (1877) 
1.378131

>  <inspiration_score>  (1877) 
None

$$$$
GMZSVXPQZFTMBL-UHFFFAOYSA-N-P51-P38-P51-601508
     RDKit          3D

 28 30  0  0  0  0  0  0  0  0999 V2000
   14.8161    9.7391   -1.3061 C   0  0  0  0  0  0  0  0  0  0  0  0
   15.1082   10.7306   -0.3286 O   0  0  0  0  0  0  0  0  0  0  0  0
   16.4197   11.1151   -0.1926 C   0  0  0  0  0  0  0  0  0  0  0  0
   17.4909   10.4761   -0.8102 C   0  0  0  0  0  0  0  0  0  0  0  0
   18.7808   10.9500   -0.6154 C   0  0  0  0  0  0  0  0  0  0  0  0
   19.0125   12.0476    0.2172 C   0  0  0  0  0  0  0  0  0  0  0  0
   17.9703   12.7124    0.8761 C   0  0  0  0  0  0  0  0  0  0  0  0
   16.6507   12.2399    0.6380 C   0  0  0  0  0  0  0  0  0  0  0  0
   15.4459   12.9004    1.2701 C   0  0  0  0  0  0  0  0  0  0  0  0
   15.7150   14.3015    1.7813 C   0  0  0  0  0  0  0  0  0  0  0  0
   17.0014   14.3127    2.5847 C   0  0  0  0  0  0  0  0  0  0  0  0
   18.2349   13.9743    1.7047 C   0  0  2  0  0  0  0  0  0  0  0  0
   18.3833   15.0856    0.8110 O   0  0  0  0  0  0  0  0  0  0  0  0
   19.4315   13.9749    2.7127 C   0  0  0  0  0  0  0  0  0  0  0  0
   20.8229   14.0538    2.2882 N   0  0  0  0  0  0  0  0  0  0  0  0
   21.4383   14.4264    0.9102 C   0  0  0  0  0  0  0  0  0  0  0  0
   20.9211   14.6512   -0.1142 O   0  0  0  0  0  0  0  0  0  0  0  0
   22.9582   14.5910    1.0575 C   0  0  1  0  0  0  0  0  0  0  0  0
   23.2793   15.7044    2.0671 C   0  0  0  0  0  0  0  0  0  0  0  0
   22.8336   17.0658    1.5353 C   0  0  1  0  0  0  0  0  0  0  0  0
   23.2322   18.1961    2.4740 C   0  0  0  0  0  0  0  0  0  0  0  0
   24.2268   19.0109    1.6793 C   0  0  0  0  0  0  0  0  0  0  0  0
   24.6930   18.0585    0.6102 C   0  0  0  0  0  0  0  0  0  0  0  0
   23.5290   17.2937    0.2987 O   0  0  0  0  0  0  0  0  0  0  0  0
   23.6523   13.3161    1.4329 C   0  0  0  0  0  0  0  0  0  0  0  0
   23.2831   12.9544    2.6767 F   0  0  0  0  0  0  0  0  0  0  0  0
   24.9969   13.4625    1.4531 F   0  0  0  0  0  0  0  0  0  0  0  0
   23.3726   12.3244    0.5671 F   0  0  0  0  0  0  0  0  0  0  0  0
  1  2  1  0
  2  3  1  0
  3  4  2  0
  4  5  1  0
  5  6  2  0
  6  7  1  0
  7  8  2  0
  8  9  1  0
  9 10  1  0
 10 11  1  0
 11 12  1  0
 12 13  1  6
 12 14  1  0
 14 15  1  0
 15 16  1  0
 16 17  2  0
 16 18  1  0
 18 19  1  1
 20 19  1  1
 20 21  1  0
 21 22  1  0
 22 23  1  0
 23 24  1  0
 18 25  1  0
 25 26  1  0
 25 27  1  0
 25 28  1  0
  8  3  1  0
 24 20  1  0
 12  7  1  0
M  END
>  <energy_score>  (1878) 
-31.371832

>  <inchikey>  (1878) 
GMZSVXPQZFTMBL-UHFFFAOYSA-N

>  <smiles>  (1878) 
COc1cccc2c1CCCC2(O)CNC(=O)C(CC1CCCO1)C(F)(F)F

>  <ref_pdb>  (1878) 
A0875a

>  <alias>  (1878) 
GMZSVXPQZFTMBL-UHFFFAOYSA-N-P51-P38-P51-601508

>  <HIPPO Pose ID>  (1878) 
514137

>  <name>  (1878) 
GMZSVXPQZFTMBL-UHFFFAOYSA-N-P51-P38-P51-601508

>  <HIPPO Compound ID>  (1878) 
290385

>  <ref_mols>  (1878) 
A0239a,A0608a

>  <distance_score>  (1878) 
1.358471

>  <inspiration_score>  (1878) 
None

$$$$
KZRFYIJWXVJPFT-UHFFFAOYSA-N-P51-P38-P51-601508
     RDKit          3D

 32 35  0  0  0  0  0  0  0  0999 V2000
   13.7591   16.0065    2.9233 C   0  0  0  0  0  0  0  0  0  0  0  0
   13.9039   15.4566    1.6142 O   0  0  0  0  0  0  0  0  0  0  0  0
   15.0081   14.6441    1.5627 C   0  0  0  0  0  0  0  0  0  0  0  0
   14.7998   13.2713    1.6945 C   0  0  0  0  0  0  0  0  0  0  0  0
   15.8796   12.4015    1.6276 C   0  0  0  0  0  0  0  0  0  0  0  0
   17.1639   12.9119    1.4530 C   0  0  0  0  0  0  0  0  0  0  0  0
   17.3954   14.2982    1.3110 C   0  0  0  0  0  0  0  0  0  0  0  0
   16.2871   15.1688    1.3016 C   0  0  0  0  0  0  0  0  0  0  0  0
   16.4656   16.6348    0.9901 C   0  0  0  0  0  0  0  0  0  0  0  0
   17.7124   16.8881    0.1478 C   0  0  0  0  0  0  0  0  0  0  0  0
   18.9304   16.3190    0.8630 C   0  0  0  0  0  0  0  0  0  0  0  0
   18.8214   14.7934    1.0678 C   0  0  2  0  0  0  0  0  0  0  0  0
   19.2745   14.1600   -0.1439 O   0  0  0  0  0  0  0  0  0  0  0  0
   19.7638   14.3697    2.2299 C   0  0  0  0  0  0  0  0  0  0  0  0
   21.1638   14.4398    1.8842 N   0  0  0  0  0  0  0  0  0  0  0  0
   22.1384   15.4676    2.1099 C   0  0  0  0  0  0  0  0  0  0  0  0
   22.0614   16.4980    2.7123 O   0  0  0  0  0  0  0  0  0  0  0  0
   23.4319   15.0970    1.3005 C   0  0  1  0  0  0  0  0  0  0  0  0
   24.6880   15.8906    1.6026 C   0  0  0  0  0  0  0  0  0  0  0  0
   25.3161   14.9552    2.5584 C   0  0  2  0  0  0  0  0  0  0  0  0
   26.6274   14.5730    2.1553 O   0  0  0  0  0  0  0  0  0  0  0  0
   26.6981   13.1430    2.1520 C   0  0  0  0  0  0  0  0  0  0  0  0
   25.3670   12.6140    2.6458 C   0  0  0  0  0  0  0  0  0  0  0  0
   24.3897   13.7655    2.4371 C   0  0  2  0  0  0  0  0  0  0  0  0
   23.6404   13.5956    1.1189 N   0  0  0  0  0  0  0  0  0  0  0  0
   24.1110   13.3241   -0.1799 C   0  0  0  0  0  0  0  0  0  0  0  0
   25.2272   13.2442   -0.6030 O   0  0  0  0  0  0  0  0  0  0  0  0
   22.9989   13.1298   -0.9412 O   0  0  0  0  0  0  0  0  0  0  0  0
   23.0928   12.7703   -2.3424 C   0  0  0  0  0  0  0  0  0  0  0  0
   23.7713   13.8763   -3.1572 C   0  0  0  0  0  0  0  0  0  0  0  0
   21.6332   12.6439   -2.8056 C   0  0  0  0  0  0  0  0  0  0  0  0
   23.7827   11.4141   -2.5243 C   0  0  0  0  0  0  0  0  0  0  0  0
  1  2  1  0
  2  3  1  0
  3  4  2  0
  4  5  1  0
  5  6  2  0
  6  7  1  0
  7  8  2  0
  8  9  1  0
  9 10  1  0
 10 11  1  0
 11 12  1  0
 12 13  1  6
 12 14  1  0
 14 15  1  0
 15 16  1  0
 16 17  2  0
 18 16  1  1
 18 19  1  0
 20 19  1  6
 20 21  1  0
 21 22  1  0
 22 23  1  0
 24 23  1  6
 24 25  1  0
 25 26  1  0
 26 27  2  0
 26 28  1  0
 28 29  1  0
 29 30  1  0
 29 31  1  0
 29 32  1  0
  8  3  1  0
 25 18  1  0
 12  7  1  0
 24 20  1  0
M  END
>  <energy_score>  (1879) 
-1.73504

>  <inchikey>  (1879) 
KZRFYIJWXVJPFT-UHFFFAOYSA-N

>  <smiles>  (1879) 
COc1cccc2c1CCCC2(O)CNC(=O)C1CC2OCCC2N1C(=O)OC(C)(C)C

>  <ref_pdb>  (1879) 
A0875a

>  <alias>  (1879) 
KZRFYIJWXVJPFT-UHFFFAOYSA-N-P51-P38-P51-601508

>  <HIPPO Pose ID>  (1879) 
514165

>  <name>  (1879) 
KZRFYIJWXVJPFT-UHFFFAOYSA-N-P51-P38-P51-601508

>  <HIPPO Compound ID>  (1879) 
290400

>  <ref_mols>  (1879) 
A0239a,A0608a

>  <distance_score>  (1879) 
1.763772

>  <inspiration_score>  (1879) 
None

$$$$
GDNQLSPHYOMLJQ-UHFFFAOYSA-N-P87-P87-P303-601508
     RDKit          3D

 25 26  0  0  0  0  0  0  0  0999 V2000
    8.0099   16.6187   22.2481 C   0  0  0  0  0  0  0  0  0  0  0  0
    9.1603   15.7167   22.5837 C   0  0  1  0  0  0  0  0  0  0  0  0
    8.7340   14.6961   23.5153 N   0  0  0  0  0  0  0  0  0  0  0  0
    7.5939   13.6525   23.4121 C   0  0  0  0  0  0  0  0  0  0  0  0
    6.8730   13.4050   22.5282 O   0  0  0  0  0  0  0  0  0  0  0  0
    7.6091   12.8432   24.7210 C   0  0  1  0  0  0  0  0  0  0  0  0
    8.4501   13.3337   25.6784 F   0  0  0  0  0  0  0  0  0  0  0  0
    6.2691   12.5424   25.4182 C   0  0  0  0  0  0  0  0  0  0  0  0
    6.4805   11.2558   26.1990 C   0  0  0  0  0  0  0  0  0  0  0  0
    5.5396   10.9571   27.3713 C   0  0  0  0  0  0  0  0  0  0  0  0
    5.1078   12.1204   28.1326 N   0  0  0  0  0  0  0  0  0  0  0  0
    4.0973   11.7463   29.1140 C   0  0  0  0  0  0  0  0  0  0  0  0
    4.6046   13.1895   27.2752 C   0  0  0  0  0  0  0  0  0  0  0  0
    5.7273   13.6009   26.3540 C   0  0  0  0  0  0  0  0  0  0  0  0
    9.9823   15.3228   21.3385 C   0  0  0  0  0  0  0  0  0  0  0  0
   10.0531   13.8497   21.0594 C   0  0  0  0  0  0  0  0  0  0  0  0
   11.0934   13.0638   21.8519 C   0  0  0  0  0  0  0  0  0  0  0  0
   11.5030   13.8195   22.9824 N   0  0  0  0  0  0  0  0  0  0  0  0
   12.1248   13.1055   24.0731 C   0  0  0  0  0  0  0  0  0  0  0  0
   11.3036   13.2145   25.3538 C   0  0  0  0  0  0  0  0  0  0  0  0
   10.5756   12.0917   25.5393 F   0  0  0  0  0  0  0  0  0  0  0  0
   10.4658   14.2647   25.3670 F   0  0  0  0  0  0  0  0  0  0  0  0
   12.0975   13.3671   26.4290 F   0  0  0  0  0  0  0  0  0  0  0  0
   12.1128   15.0601   22.5655 C   0  0  0  0  0  0  0  0  0  0  0  0
   11.4479   15.7605   21.3982 C   0  0  0  0  0  0  0  0  0  0  0  0
  2  1  1  6
  2  3  1  0
  3  4  1  0
  4  5  2  0
  4  6  1  0
  6  7  1  1
  6  8  1  0
  8  9  1  0
  9 10  1  0
 10 11  1  0
 11 12  1  0
 11 13  1  0
 13 14  1  0
  2 15  1  0
 15 16  1  0
 16 17  1  0
 17 18  1  0
 18 19  1  0
 19 20  1  0
 20 21  1  0
 20 22  1  0
 20 23  1  0
 18 24  1  0
 24 25  1  0
 14  8  1  0
 25 15  1  0
M  END
>  <energy_score>  (1880) 
-7.740444

>  <inchikey>  (1880) 
GDNQLSPHYOMLJQ-UHFFFAOYSA-N

>  <smiles>  (1880) 
CC(NC(=O)C(F)C1CCN(C)CC1)C1CCN(CC(F)(F)F)CC1

>  <ref_pdb>  (1880) 
A0875a

>  <alias>  (1880) 
GDNQLSPHYOMLJQ-UHFFFAOYSA-N-P87-P87-P303-601508

>  <HIPPO Pose ID>  (1880) 
514252

>  <name>  (1880) 
GDNQLSPHYOMLJQ-UHFFFAOYSA-N-P87-P87-P303-601508

>  <HIPPO Compound ID>  (1880) 
315072

>  <ref_mols>  (1880) 
A4320a,A0875a

>  <distance_score>  (1880) 
1.61108

>  <inspiration_score>  (1880) 
None

$$$$
WAZRDHBNEBHXJQ-UHFFFAOYSA-N-P303-P87-P303-601508
     RDKit          3D

 27 28  0  0  0  0  0  0  0  0999 V2000
    7.6959   16.1363   21.3040 C   0  0  0  0  0  0  0  0  0  0  0  0
    9.0262   15.6865   21.7561 C   0  0  1  0  0  0  0  0  0  0  0  0
    8.8128   14.6693   22.7457 N   0  0  0  0  0  0  0  0  0  0  0  0
    7.8256   13.4902   22.7702 C   0  0  0  0  0  0  0  0  0  0  0  0
    6.9764   13.2010   22.0278 O   0  0  0  0  0  0  0  0  0  0  0  0
    8.1880   12.5996   23.9397 C   0  0  0  0  0  0  0  0  0  0  0  0
    7.1642   12.6362   25.0532 C   0  0  0  0  0  0  0  0  0  0  0  0
    7.2481   11.3504   25.8676 C   0  0  0  0  0  0  0  0  0  0  0  0
    6.1120   11.2746   26.8637 C   0  0  0  0  0  0  0  0  0  0  0  0
    6.1031   12.4693   27.7413 N   0  0  0  0  0  0  0  0  0  0  0  0
    4.8599   12.3708   28.9146 S   0  0  0  0  0  0  0  0  0  0  0  0
    4.9042   11.0567   29.5183 O   0  0  0  0  0  0  0  0  0  0  0  0
    4.8756   13.5768   29.7099 O   0  0  0  0  0  0  0  0  0  0  0  0
    3.5018   12.4143   28.0873 F   0  0  0  0  0  0  0  0  0  0  0  0
    6.0686   13.7598   26.9844 C   0  0  0  0  0  0  0  0  0  0  0  0
    7.2269   13.8391   25.9864 C   0  0  0  0  0  0  0  0  0  0  0  0
   10.1791   15.4621   20.7868 C   0  0  0  0  0  0  0  0  0  0  0  0
   10.4164   14.0189   20.5328 C   0  0  0  0  0  0  0  0  0  0  0  0
   11.2224   13.2935   21.6445 C   0  0  0  0  0  0  0  0  0  0  0  0
   11.3580   14.0547   22.8554 N   0  0  0  0  0  0  0  0  0  0  0  0
   11.7804   13.3924   24.0632 C   0  0  0  0  0  0  0  0  0  0  0  0
   11.0126   13.9567   25.2569 C   0  0  0  0  0  0  0  0  0  0  0  0
   10.4123   12.9431   25.8868 F   0  0  0  0  0  0  0  0  0  0  0  0
   11.8014   14.6095   26.1206 F   0  0  0  0  0  0  0  0  0  0  0  0
    9.9990   14.7815   24.9489 F   0  0  0  0  0  0  0  0  0  0  0  0
   11.9672   15.3222   22.6369 C   0  0  0  0  0  0  0  0  0  0  0  0
   11.5237   15.9426   21.3488 C   0  0  0  0  0  0  0  0  0  0  0  0
  2  1  1  6
  2  3  1  0
  3  4  1  0
  4  5  2  0
  4  6  1  0
  6  7  1  0
  7  8  1  0
  8  9  1  0
  9 10  1  0
 10 11  1  0
 11 12  2  0
 11 13  2  0
 11 14  1  0
 10 15  1  0
 15 16  1  0
  2 17  1  0
 17 18  1  0
 18 19  1  0
 19 20  1  0
 20 21  1  0
 21 22  1  0
 22 23  1  0
 22 24  1  0
 22 25  1  0
 20 26  1  0
 26 27  1  0
 16  7  1  0
 27 17  1  0
M  END
>  <energy_score>  (1881) 
-14.293555

>  <inchikey>  (1881) 
WAZRDHBNEBHXJQ-UHFFFAOYSA-N

>  <smiles>  (1881) 
CC(NC(=O)CC1CCN(S(=O)(=O)F)CC1)C1CCN(CC(F)(F)F)CC1

>  <ref_pdb>  (1881) 
A0875a

>  <alias>  (1881) 
WAZRDHBNEBHXJQ-UHFFFAOYSA-N-P303-P87-P303-601508

>  <HIPPO Pose ID>  (1881) 
514269

>  <name>  (1881) 
WAZRDHBNEBHXJQ-UHFFFAOYSA-N-P303-P87-P303-601508

>  <HIPPO Compound ID>  (1881) 
315080

>  <ref_mols>  (1881) 
A4320a,A0875a

>  <distance_score>  (1881) 
1.451149

>  <inspiration_score>  (1881) 
None

$$$$
LDANAZMIPXGLEK-UHFFFAOYSA-N-P303-P87-P303-601508
     RDKit          3D

 27 28  0  0  0  0  0  0  0  0999 V2000
    8.6669   17.0741   20.7191 C   0  0  0  0  0  0  0  0  0  0  0  0
    9.1389   15.6310   20.8183 C   0  0  2  0  0  0  0  0  0  0  0  0
    8.8034   15.0596   22.0898 N   0  0  0  0  0  0  0  0  0  0  0  0
    7.5534   14.2433   22.5332 C   0  0  0  0  0  0  0  0  0  0  0  0
    6.5769   13.9809   21.9512 O   0  0  0  0  0  0  0  0  0  0  0  0
    7.8913   13.8227   23.9632 C   0  0  0  0  0  0  0  0  0  0  0  0
    6.8021   13.3234   24.9013 C   0  0  0  0  0  0  0  0  0  0  0  0
    7.1408   11.9451   25.4966 C   0  0  0  0  0  0  0  0  0  0  0  0
    6.5313   11.6852   26.8677 C   0  0  0  0  0  0  0  0  0  0  0  0
    5.2493   12.3942   27.0596 N   0  0  0  0  0  0  0  0  0  0  0  0
    4.4484   11.9081   28.4814 S   0  0  0  0  0  0  0  0  0  0  0  0
    2.8836   12.7401   28.3402 C   0  0  0  0  0  0  0  0  0  0  0  0
    5.1786   12.4602   29.6031 O   0  0  0  0  0  0  0  0  0  0  0  0
    4.2057   10.4835   28.3905 O   0  0  0  0  0  0  0  0  0  0  0  0
    5.3557   13.8735   26.8730 C   0  0  0  0  0  0  0  0  0  0  0  0
    6.5711   14.2957   26.0562 C   0  0  0  0  0  0  0  0  0  0  0  0
   10.6332   15.5531   20.4640 C   0  0  0  0  0  0  0  0  0  0  0  0
   11.1243   14.1760   20.2060 C   0  0  0  0  0  0  0  0  0  0  0  0
   11.1914   13.3597   21.5020 C   0  0  0  0  0  0  0  0  0  0  0  0
   11.1983   14.0754   22.7514 N   0  0  0  0  0  0  0  0  0  0  0  0
   11.5235   13.2339   23.8910 C   0  0  0  0  0  0  0  0  0  0  0  0
   10.9567   13.8021   25.1724 C   0  0  0  0  0  0  0  0  0  0  0  0
   11.9095   14.1508   26.0449 F   0  0  0  0  0  0  0  0  0  0  0  0
   10.2175   14.8991   24.9925 F   0  0  0  0  0  0  0  0  0  0  0  0
   10.1354   12.9080   25.7344 F   0  0  0  0  0  0  0  0  0  0  0  0
   11.9332   15.2932   22.6949 C   0  0  0  0  0  0  0  0  0  0  0  0
   11.6698   16.0858   21.4502 C   0  0  0  0  0  0  0  0  0  0  0  0
  2  1  1  1
  2  3  1  0
  3  4  1  0
  4  5  2  0
  4  6  1  0
  6  7  1  0
  7  8  1  0
  8  9  1  0
  9 10  1  0
 10 11  1  0
 11 12  1  0
 11 13  2  0
 11 14  2  0
 10 15  1  0
 15 16  1  0
  2 17  1  0
 17 18  1  0
 18 19  1  0
 19 20  1  0
 20 21  1  0
 21 22  1  0
 22 23  1  0
 22 24  1  0
 22 25  1  0
 20 26  1  0
 26 27  1  0
 16  7  1  0
 27 17  1  0
M  END
>  <energy_score>  (1882) 
-17.633149

>  <inchikey>  (1882) 
LDANAZMIPXGLEK-UHFFFAOYSA-N

>  <smiles>  (1882) 
CC(NC(=O)CC1CCN(S(C)(=O)=O)CC1)C1CCN(CC(F)(F)F)CC1

>  <ref_pdb>  (1882) 
A0875a

>  <alias>  (1882) 
LDANAZMIPXGLEK-UHFFFAOYSA-N-P303-P87-P303-601508

>  <HIPPO Pose ID>  (1882) 
514271

>  <name>  (1882) 
LDANAZMIPXGLEK-UHFFFAOYSA-N-P303-P87-P303-601508

>  <HIPPO Compound ID>  (1882) 
315081

>  <ref_mols>  (1882) 
A4320a,A0875a

>  <distance_score>  (1882) 
1.507372

>  <inspiration_score>  (1882) 
None

$$$$
REPSIAZRRLACJT-UHFFFAOYSA-N-P144-P144-P198-601508
     RDKit          3D

 20 23  0  0  0  0  0  0  0  0999 V2000
   10.9728   11.9467   23.8475 O   0  0  0  0  0  0  0  0  0  0  0  0
   10.0103   12.5755   23.6601 C   0  0  0  0  0  0  0  0  0  0  0  0
    9.8349   13.9686   23.0206 N   0  0  0  0  0  0  0  0  0  0  0  0
   10.7991   14.9024   22.5728 C   0  0  1  0  0  0  0  0  0  0  0  0
   11.8606   14.7604   21.4877 C   0  0  0  0  0  0  0  0  0  0  0  0
   10.6220   15.4730   21.2314 C   0  0  0  0  0  0  0  0  0  0  0  0
    9.6407   15.3298   20.1589 C   0  0  0  0  0  0  0  0  0  0  0  0
    9.9991   16.6903   20.7275 C   0  0  0  0  0  0  0  0  0  0  0  0
    8.6726   12.0869   24.1720 C   0  0  0  0  0  0  0  0  0  0  0  0
    8.4903   10.8236   24.7468 C   0  0  0  0  0  0  0  0  0  0  0  0
    7.4036   10.6023   25.6205 C   0  0  0  0  0  0  0  0  0  0  0  0
    6.5785   11.6705   25.8840 C   0  0  0  0  0  0  0  0  0  0  0  0
    6.7316   12.8027   25.1288 C   0  0  0  0  0  0  0  0  0  0  0  0
    7.7429   13.0564   24.2656 N   0  0  0  0  0  0  0  0  0  0  0  0
    5.5807   13.7110   25.2395 C   0  0  0  0  0  0  0  0  0  0  0  0
    5.3819   14.6550   24.5093 O   0  0  0  0  0  0  0  0  0  0  0  0
    4.6971   13.2381   26.2265 N   0  0  0  0  0  0  0  0  0  0  0  0
    5.3202   11.9507   27.0554 S   0  0  0  0  0  0  0  0  0  0  0  0
    5.9254   12.4864   28.2462 O   0  0  0  0  0  0  0  0  0  0  0  0
    4.3758   10.8708   27.1220 O   0  0  0  0  0  0  0  0  0  0  0  0
  1  2  2  0
  2  3  1  0
  4  3  1  6
  4  5  1  0
  5  6  1  0
  6  7  1  0
  7  8  1  0
  2  9  1  0
  9 10  2  0
 10 11  1  0
 11 12  2  0
 12 13  1  0
 13 14  2  0
 13 15  1  0
 15 16  2  0
 15 17  1  0
 17 18  1  0
 18 19  2  0
 18 20  2  0
  6  4  1  0
 14  9  1  0
  8  6  1  0
 18 12  1  0
M  END
>  <energy_score>  (1883) 
-4.197698

>  <inchikey>  (1883) 
REPSIAZRRLACJT-UHFFFAOYSA-N

>  <smiles>  (1883) 
O=C(NC1CC12CC2)c1ccc2c(n1)C(=O)NS2(=O)=O

>  <ref_pdb>  (1883) 
A0875a

>  <alias>  (1883) 
REPSIAZRRLACJT-UHFFFAOYSA-N-P144-P144-P198-601508

>  <HIPPO Pose ID>  (1883) 
514344

>  <name>  (1883) 
REPSIAZRRLACJT-UHFFFAOYSA-N-P144-P144-P198-601508

>  <HIPPO Compound ID>  (1883) 
293888

>  <ref_mols>  (1883) 
A3181a,A3618a

>  <distance_score>  (1883) 
1.90079

>  <inspiration_score>  (1883) 
None

$$$$
HMXIRPLTZUMXEI-UHFFFAOYSA-N-P198-P144-P198-601508
     RDKit          3D

 21 24  0  0  0  0  0  0  0  0999 V2000
    6.6933    9.0037   25.1314 O   0  0  0  0  0  0  0  0  0  0  0  0
    7.5382    9.6463   24.5245 C   0  0  0  0  0  0  0  0  0  0  0  0
    8.4061    9.0672   23.6606 N   0  0  0  0  0  0  0  0  0  0  0  0
    9.6376    9.6468   23.2188 C   0  0  0  0  0  0  0  0  0  0  0  0
    9.7063   11.1715   23.2700 C   0  0  0  0  0  0  0  0  0  0  0  0
    8.6053   11.8464   23.9558 N   0  0  0  0  0  0  0  0  0  0  0  0
    7.5962   11.1224   24.5965 C   0  0  0  0  0  0  0  0  0  0  0  0
    6.5654   11.6739   25.2448 C   0  0  0  0  0  0  0  0  0  0  0  0
    6.5165   13.1274   25.3059 C   0  0  0  0  0  0  0  0  0  0  0  0
    5.5804   13.6684   25.8677 O   0  0  0  0  0  0  0  0  0  0  0  0
    7.6393   13.9065   24.7664 C   0  0  0  0  0  0  0  0  0  0  0  0
    8.6209   13.2287   24.1579 C   0  0  0  0  0  0  0  0  0  0  0  0
    9.8642   14.0481   23.9979 C   0  0  0  0  0  0  0  0  0  0  0  0
   10.3880   14.4869   24.9457 O   0  0  0  0  0  0  0  0  0  0  0  0
   10.2073   14.2082   22.4982 N   0  0  0  0  0  0  0  0  0  0  0  0
   11.1964   15.0082   21.8554 C   0  0  0  0  0  0  0  0  0  0  0  0
   11.3777   14.9113   20.3395 C   0  0  0  0  0  0  0  0  0  0  0  0
   11.0545   16.0911   19.4372 C   0  0  0  0  0  0  0  0  0  0  0  0
   10.2415   14.8821   19.3836 C   0  0  0  0  0  0  0  0  0  0  0  0
   12.4440   15.3421   22.6258 C   0  0  0  0  0  0  0  0  0  0  0  0
   11.3663   16.3551   22.5090 C   0  0  0  0  0  0  0  0  0  0  0  0
  1  2  2  0
  2  3  1  0
  3  4  1  0
  4  5  1  0
  5  6  1  0
  6  7  1  0
  7  8  2  0
  8  9  1  0
  9 10  2  0
  9 11  1  0
 11 12  2  0
 12 13  1  0
 13 14  2  0
 13 15  1  0
 15 16  1  0
 16 17  1  0
 17 18  1  0
 18 19  1  0
 16 20  1  0
 20 21  1  0
  7  2  1  0
 21 16  1  0
 12  6  1  0
 19 17  1  0
M  END
>  <energy_score>  (1884) 
-39.255335

>  <inchikey>  (1884) 
HMXIRPLTZUMXEI-UHFFFAOYSA-N

>  <smiles>  (1884) 
O=C1NCCn2c1cc(=O)cc2C(=O)NC1(C2CC2)CC1

>  <ref_pdb>  (1884) 
A0875a

>  <alias>  (1884) 
HMXIRPLTZUMXEI-UHFFFAOYSA-N-P198-P144-P198-601508

>  <HIPPO Pose ID>  (1884) 
514441

>  <name>  (1884) 
HMXIRPLTZUMXEI-UHFFFAOYSA-N-P198-P144-P198-601508

>  <HIPPO Compound ID>  (1884) 
293938

>  <ref_mols>  (1884) 
A3181a,A3618a

>  <distance_score>  (1884) 
1.574243

>  <inspiration_score>  (1884) 
None

$$$$
NIMMAWQOMIGURD-UHFFFAOYSA-N-P198-P144-P198-601508
     RDKit          3D

 22 24  0  0  0  0  0  0  0  0999 V2000
    0.6033   12.6926   28.0459 C   0  0  0  0  0  0  0  0  0  0  0  0
    1.7252   11.7058   28.3432 C   0  0  0  0  0  0  0  0  0  0  0  0
    2.8322   12.0138   27.4862 N   0  0  0  0  0  0  0  0  0  0  0  0
    4.3563   11.9405   27.7472 C   0  0  0  0  0  0  0  0  0  0  0  0
    4.9448   11.6922   28.7229 O   0  0  0  0  0  0  0  0  0  0  0  0
    5.0669   12.3670   26.4963 C   0  0  0  0  0  0  0  0  0  0  0  0
    4.5903   13.5409   25.8988 C   0  0  0  0  0  0  0  0  0  0  0  0
    5.1048   13.9390   24.6844 C   0  0  0  0  0  0  0  0  0  0  0  0
    6.1086   13.1795   24.1340 C   0  0  0  0  0  0  0  0  0  0  0  0
    6.6005   12.0847   24.8515 C   0  0  0  0  0  0  0  0  0  0  0  0
    7.9862   11.7057   24.4484 C   0  0  0  0  0  0  0  0  0  0  0  0
    8.3060   10.6348   24.1340 O   0  0  0  0  0  0  0  0  0  0  0  0
    8.7814   13.0219   24.4549 N   0  0  0  0  0  0  0  0  0  0  0  0
   10.0858   13.3084   23.9945 C   0  0  1  0  0  0  0  0  0  0  0  0
   10.2619   13.4785   22.4878 C   0  0  0  0  0  0  0  0  0  0  0  0
   11.5280   14.3598   22.4001 C   0  0  1  0  0  0  0  0  0  0  0  0
   11.7453   15.0504   21.0571 C   0  0  0  0  0  0  0  0  0  0  0  0
   10.6050   15.8069   20.6698 O   0  0  0  0  0  0  0  0  0  0  0  0
   11.3569   15.3202   23.5604 C   0  0  2  0  0  0  0  0  0  0  0  0
   11.7693   14.9775   24.9786 C   0  0  0  0  0  0  0  0  0  0  0  0
   10.4060   14.6760   24.5117 C   0  0  2  0  0  0  0  0  0  0  0  0
    6.1030   11.6347   26.0275 N   0  0  0  0  0  0  0  0  0  0  0  0
  1  2  1  0
  2  3  1  0
  3  4  1  0
  4  5  2  0
  4  6  1  0
  6  7  2  0
  7  8  1  0
  8  9  2  0
  9 10  1  0
 10 11  1  0
 11 12  2  0
 11 13  1  0
 14 13  1  6
 14 15  1  0
 15 16  1  0
 16 17  1  6
 17 18  1  0
 16 19  1  0
 19 20  1  1
 21 20  1  1
 10 22  2  0
 22  6  1  0
 21 14  1  0
 21 19  1  0
M  END
>  <energy_score>  (1885) 
-9.944331

>  <inchikey>  (1885) 
NIMMAWQOMIGURD-UHFFFAOYSA-N

>  <smiles>  (1885) 
CCNC(=O)c1cccc(C(=O)NC2CC(CO)C3CC23)n1

>  <ref_pdb>  (1885) 
A0875a

>  <alias>  (1885) 
NIMMAWQOMIGURD-UHFFFAOYSA-N-P198-P144-P198-601508

>  <HIPPO Pose ID>  (1885) 
514511

>  <name>  (1885) 
NIMMAWQOMIGURD-UHFFFAOYSA-N-P198-P144-P198-601508

>  <HIPPO Compound ID>  (1885) 
293973

>  <ref_mols>  (1885) 
A3181a,A3618a

>  <distance_score>  (1885) 
1.814681

>  <inspiration_score>  (1885) 
None

$$$$
BSQMCQZJYSVXRV-UHFFFAOYSA-N-P144-P144-P198-601508
     RDKit          3D

 22 23  0  0  0  0  0  0  0  0999 V2000
    9.5252    8.9637   23.1912 C   0  0  0  0  0  0  0  0  0  0  0  0
    8.9240   10.0351   23.9274 N   0  0  0  0  0  0  0  0  0  0  0  0
    7.6720   10.0548   24.8184 C   0  0  0  0  0  0  0  0  0  0  0  0
    6.9749    9.1886   25.1572 O   0  0  0  0  0  0  0  0  0  0  0  0
    7.3911   11.4806   25.2444 C   0  0  0  0  0  0  0  0  0  0  0  0
    8.2759   12.3936   24.7311 N   0  0  0  0  0  0  0  0  0  0  0  0
    8.0717   13.6809   25.1273 C   0  0  0  0  0  0  0  0  0  0  0  0
    9.1740   14.6399   24.8634 C   0  0  0  0  0  0  0  0  0  0  0  0
    9.2908   15.5870   25.5264 O   0  0  0  0  0  0  0  0  0  0  0  0
   10.0223   14.1357   23.6998 N   0  0  0  0  0  0  0  0  0  0  0  0
   11.1406   14.7318   23.0385 C   0  0  0  0  0  0  0  0  0  0  0  0
   11.0539   14.7129   21.5049 C   0  0  1  0  0  0  0  0  0  0  0  0
    9.8140   15.3499   20.9279 C   0  0  0  0  0  0  0  0  0  0  0  0
    9.8552   15.9912   19.5520 C   0  0  0  0  0  0  0  0  0  0  0  0
    9.5844   16.8311   20.7651 C   0  0  0  0  0  0  0  0  0  0  0  0
   12.1954   15.2543   20.7924 N   0  0  0  0  0  0  0  0  0  0  0  0
   12.6444   14.3574   19.7654 C   0  0  0  0  0  0  0  0  0  0  0  0
   13.2368   15.8074   21.5998 C   0  0  0  0  0  0  0  0  0  0  0  0
    7.0031   14.1253   25.8804 C   0  0  0  0  0  0  0  0  0  0  0  0
    6.1303   13.1779   26.3762 C   0  0  0  0  0  0  0  0  0  0  0  0
    6.3511   11.8301   26.1124 C   0  0  0  0  0  0  0  0  0  0  0  0
    5.3979   10.7378   27.0252 Cl  0  0  0  0  0  0  0  0  0  0  0  0
  1  2  1  0
  2  3  1  0
  3  4  2  0
  3  5  1  0
  5  6  2  0
  6  7  1  0
  7  8  1  0
  8  9  2  0
  8 10  1  0
 10 11  1  0
 12 11  1  1
 12 13  1  0
 13 14  1  0
 14 15  1  0
 12 16  1  0
 16 17  1  0
 16 18  1  0
  7 19  2  0
 19 20  1  0
 20 21  2  0
 21 22  1  0
 21  5  1  0
 15 13  1  0
M  END
>  <energy_score>  (1886) 
-11.737518

>  <inchikey>  (1886) 
BSQMCQZJYSVXRV-UHFFFAOYSA-N

>  <smiles>  (1886) 
CNC(=O)c1nc(C(=O)NCC(C2CC2)N(C)C)ccc1Cl

>  <ref_pdb>  (1886) 
A0875a

>  <alias>  (1886) 
BSQMCQZJYSVXRV-UHFFFAOYSA-N-P144-P144-P198-601508

>  <HIPPO Pose ID>  (1886) 
514558

>  <name>  (1886) 
BSQMCQZJYSVXRV-UHFFFAOYSA-N-P144-P144-P198-601508

>  <HIPPO Compound ID>  (1886) 
293997

>  <ref_mols>  (1886) 
A3181a,A3618a

>  <distance_score>  (1886) 
1.835576

>  <inspiration_score>  (1886) 
None

$$$$
VRCGBSZUTBKSSW-UHFFFAOYSA-N-P144-P144-P198-601508
     RDKit          3D

 22 25  0  0  0  0  0  0  0  0999 V2000
   10.9626   11.9483   23.8302 O   0  0  0  0  0  0  0  0  0  0  0  0
    9.9978   12.5741   23.6493 C   0  0  0  0  0  0  0  0  0  0  0  0
    9.8171   13.9771   23.0361 N   0  0  0  0  0  0  0  0  0  0  0  0
   10.7814   14.9291   22.6103 C   0  0  1  0  0  0  0  0  0  0  0  0
   11.9100   14.8822   21.6000 C   0  0  0  0  0  0  0  0  0  0  0  0
   12.3542   13.6755   21.1302 F   0  0  0  0  0  0  0  0  0  0  0  0
   13.0215   15.6639   21.8238 F   0  0  0  0  0  0  0  0  0  0  0  0
   10.6476   15.4763   21.2426 C   0  0  0  0  0  0  0  0  0  0  0  0
    9.7147   15.2970   20.1346 C   0  0  0  0  0  0  0  0  0  0  0  0
    9.9699   16.6694   20.7372 C   0  0  0  0  0  0  0  0  0  0  0  0
    8.6590   12.0660   24.1447 C   0  0  0  0  0  0  0  0  0  0  0  0
    8.4989   10.8099   24.7393 C   0  0  0  0  0  0  0  0  0  0  0  0
    7.4225   10.5895   25.6251 C   0  0  0  0  0  0  0  0  0  0  0  0
    6.5910   11.6525   25.8862 C   0  0  0  0  0  0  0  0  0  0  0  0
    6.7015   12.7562   25.0873 C   0  0  0  0  0  0  0  0  0  0  0  0
    7.7079   13.0166   24.2175 N   0  0  0  0  0  0  0  0  0  0  0  0
    5.5858   13.6930   25.2706 C   0  0  0  0  0  0  0  0  0  0  0  0
    5.5351   14.7997   24.7843 O   0  0  0  0  0  0  0  0  0  0  0  0
    4.6350   13.1487   26.1663 N   0  0  0  0  0  0  0  0  0  0  0  0
    5.3206   11.9205   27.0490 S   0  0  0  0  0  0  0  0  0  0  0  0
    5.8841   12.5492   28.2148 O   0  0  0  0  0  0  0  0  0  0  0  0
    4.4385   10.7920   27.1605 O   0  0  0  0  0  0  0  0  0  0  0  0
  1  2  2  0
  2  3  1  0
  4  3  1  6
  4  5  1  0
  5  6  1  0
  5  7  1  0
  5  8  1  0
  8  9  1  0
  9 10  1  0
  2 11  1  0
 11 12  2  0
 12 13  1  0
 13 14  2  0
 14 15  1  0
 15 16  2  0
 15 17  1  0
 17 18  2  0
 17 19  1  0
 19 20  1  0
 20 21  2  0
 20 22  2  0
  8  4  1  0
 16 11  1  0
 10  8  1  0
 20 14  1  0
M  END
>  <energy_score>  (1887) 
-1.55513

>  <inchikey>  (1887) 
VRCGBSZUTBKSSW-UHFFFAOYSA-N

>  <smiles>  (1887) 
O=C(NC1C(F)(F)C12CC2)c1ccc2c(n1)C(=O)NS2(=O)=O

>  <ref_pdb>  (1887) 
A0875a

>  <alias>  (1887) 
VRCGBSZUTBKSSW-UHFFFAOYSA-N-P144-P144-P198-601508

>  <HIPPO Pose ID>  (1887) 
514590

>  <name>  (1887) 
VRCGBSZUTBKSSW-UHFFFAOYSA-N-P144-P144-P198-601508

>  <HIPPO Compound ID>  (1887) 
294013

>  <ref_mols>  (1887) 
A3181a,A3618a

>  <distance_score>  (1887) 
1.937896

>  <inspiration_score>  (1887) 
None

$$$$
CNNQMYHQBHKRGB-UHFFFAOYSA-N-P198-P144-P198-601508
     RDKit          3D

 22 25  0  0  0  0  0  0  0  0999 V2000
   10.5577   12.0245   23.4637 O   0  0  0  0  0  0  0  0  0  0  0  0
    9.5537   12.6096   23.4039 C   0  0  0  0  0  0  0  0  0  0  0  0
    9.2553   14.0334   22.8901 N   0  0  0  0  0  0  0  0  0  0  0  0
   10.1525   15.0757   22.4275 C   0  0  1  0  0  0  0  0  0  0  0  0
   11.3837   14.7500   21.5575 C   0  0  0  0  0  0  0  0  0  0  0  0
   10.8561   15.6735   20.4946 C   0  0  2  0  0  0  0  0  0  0  0  0
   10.9630   15.2048   19.0752 C   0  0  0  0  0  0  0  0  0  0  0  0
   10.0308   15.8751   18.2370 O   0  0  0  0  0  0  0  0  0  0  0  0
   10.2217   17.0255   20.7520 C   0  0  0  0  0  0  0  0  0  0  0  0
    9.5767   15.7931   21.2647 C   0  0  2  0  0  0  0  0  0  0  0  0
    8.2821   12.0288   23.9758 C   0  0  0  0  0  0  0  0  0  0  0  0
    8.1592   10.7350   24.4874 C   0  0  0  0  0  0  0  0  0  0  0  0
    7.0527   10.4135   25.3052 C   0  0  0  0  0  0  0  0  0  0  0  0
    6.1462   11.4138   25.5737 C   0  0  0  0  0  0  0  0  0  0  0  0
    6.2811   12.5962   24.9068 C   0  0  0  0  0  0  0  0  0  0  0  0
    7.3050   12.9433   24.1027 N   0  0  0  0  0  0  0  0  0  0  0  0
    5.2358   13.5657   25.2259 C   0  0  0  0  0  0  0  0  0  0  0  0
    5.2848   14.7417   24.9433 O   0  0  0  0  0  0  0  0  0  0  0  0
    4.2462   12.9640   26.0266 N   0  0  0  0  0  0  0  0  0  0  0  0
    4.8046   11.5326   26.6766 S   0  0  0  0  0  0  0  0  0  0  0  0
    3.8359   10.5027   26.4410 O   0  0  0  0  0  0  0  0  0  0  0  0
    5.2939   11.8800   27.9855 O   0  0  0  0  0  0  0  0  0  0  0  0
  1  2  2  0
  2  3  1  0
  4  3  1  6
  4  5  1  0
  5  6  1  0
  6  7  1  6
  7  8  1  0
  6  9  1  0
 10  9  1  1
  2 11  1  0
 11 12  2  0
 12 13  1  0
 13 14  2  0
 14 15  1  0
 15 16  2  0
 15 17  1  0
 17 18  2  0
 17 19  1  0
 19 20  1  0
 20 21  2  0
 20 22  2  0
 10  4  1  0
 16 11  1  0
 10  6  1  0
 20 14  1  0
M  END
>  <energy_score>  (1888) 
-13.870781

>  <inchikey>  (1888) 
CNNQMYHQBHKRGB-UHFFFAOYSA-N

>  <smiles>  (1888) 
O=C(NC1CC2(CO)CC12)c1ccc2c(n1)C(=O)NS2(=O)=O

>  <ref_pdb>  (1888) 
A0875a

>  <alias>  (1888) 
CNNQMYHQBHKRGB-UHFFFAOYSA-N-P198-P144-P198-601508

>  <HIPPO Pose ID>  (1888) 
514597

>  <name>  (1888) 
CNNQMYHQBHKRGB-UHFFFAOYSA-N-P198-P144-P198-601508

>  <HIPPO Compound ID>  (1888) 
294016

>  <ref_mols>  (1888) 
A3181a,A3618a

>  <distance_score>  (1888) 
1.86499

>  <inspiration_score>  (1888) 
None

$$$$
DNSIRLJDEHELAK-UHFFFAOYSA-N-P198-P144-P198-601508
     RDKit          3D

 22 24  0  0  0  0  0  0  0  0999 V2000
    1.5334   12.9749   26.8829 C   0  0  0  0  0  0  0  0  0  0  0  0
    2.6050   11.9567   27.2971 C   0  0  1  0  0  0  0  0  0  0  0  0
    3.7705   12.0752   26.4450 N   0  0  0  0  0  0  0  0  0  0  0  0
    5.1562   11.3825   26.5313 C   0  0  0  0  0  0  0  0  0  0  0  0
    5.5437   10.5536   27.2567 O   0  0  0  0  0  0  0  0  0  0  0  0
    6.0912   12.0301   25.5173 C   0  0  0  0  0  0  0  0  0  0  0  0
    6.0664   13.3726   25.5266 C   0  0  0  0  0  0  0  0  0  0  0  0
    7.0345   14.0953   24.6983 C   0  0  0  0  0  0  0  0  0  0  0  0
    7.0157   15.3143   24.6278 O   0  0  0  0  0  0  0  0  0  0  0  0
    8.0725   13.3425   24.0115 C   0  0  0  0  0  0  0  0  0  0  0  0
    8.0531   12.0139   24.1231 C   0  0  0  0  0  0  0  0  0  0  0  0
    7.0496   11.2947   24.7799 N   0  0  0  0  0  0  0  0  0  0  0  0
    7.2292    9.8496   24.9739 C   0  0  0  0  0  0  0  0  0  0  0  0
    8.2217    9.2013   23.9850 C   0  0  0  0  0  0  0  0  0  0  0  0
    9.3313   10.0232   23.5993 N   0  0  0  0  0  0  0  0  0  0  0  0
    9.2822   11.3759   23.5666 C   0  0  0  0  0  0  0  0  0  0  0  0
   10.2334   12.0450   23.1876 O   0  0  0  0  0  0  0  0  0  0  0  0
    3.0008   12.1691   28.7249 C   0  0  2  0  0  0  0  0  0  0  0  0
    3.3948   10.9929   29.6017 C   0  0  0  0  0  0  0  0  0  0  0  0
    2.0982   11.6771   29.7972 C   0  0  0  0  0  0  0  0  0  0  0  0
    1.8710   12.4549   30.9077 F   0  0  0  0  0  0  0  0  0  0  0  0
    0.9114   11.0608   29.4744 F   0  0  0  0  0  0  0  0  0  0  0  0
  2  1  1  6
  2  3  1  0
  3  4  1  0
  4  5  2  0
  4  6  1  0
  6  7  2  0
  7  8  1  0
  8  9  2  0
  8 10  1  0
 10 11  2  0
 11 12  1  0
 12 13  1  0
 13 14  1  0
 14 15  1  0
 15 16  1  0
 16 17  2  0
  2 18  1  0
 18 19  1  6
 19 20  1  0
 20 21  1  0
 20 22  1  0
 12  6  1  0
 20 18  1  0
 16 11  1  0
M  END
>  <energy_score>  (1889) 
-47.46273

>  <inchikey>  (1889) 
DNSIRLJDEHELAK-UHFFFAOYSA-N

>  <smiles>  (1889) 
CC(NC(=O)c1cc(=O)cc2n1CCNC2=O)C1CC1(F)F

>  <ref_pdb>  (1889) 
A0875a

>  <alias>  (1889) 
DNSIRLJDEHELAK-UHFFFAOYSA-N-P198-P144-P198-601508

>  <HIPPO Pose ID>  (1889) 
514627

>  <name>  (1889) 
DNSIRLJDEHELAK-UHFFFAOYSA-N-P198-P144-P198-601508

>  <HIPPO Compound ID>  (1889) 
294031

>  <ref_mols>  (1889) 
A3181a,A3618a

>  <distance_score>  (1889) 
1.50953

>  <inspiration_score>  (1889) 
None

$$$$
UFIXVGPYIOPAHB-UHFFFAOYSA-N-P144-P144-P198-601508
     RDKit          3D

 22 25  0  0  0  0  0  0  0  0999 V2000
    6.6090    8.9335   25.0911 O   0  0  0  0  0  0  0  0  0  0  0  0
    7.5413    9.5555   24.5972 C   0  0  0  0  0  0  0  0  0  0  0  0
    8.3687    8.9954   23.6762 N   0  0  0  0  0  0  0  0  0  0  0  0
    9.6700    9.5181   23.3602 C   0  0  0  0  0  0  0  0  0  0  0  0
    9.7467   11.0438   23.3785 C   0  0  0  0  0  0  0  0  0  0  0  0
    8.8894   11.6784   24.3785 N   0  0  0  0  0  0  0  0  0  0  0  0
    7.7797   10.9942   24.8912 C   0  0  0  0  0  0  0  0  0  0  0  0
    6.8076   11.5711   25.6031 C   0  0  0  0  0  0  0  0  0  0  0  0
    6.8904   13.0099   25.8072 C   0  0  0  0  0  0  0  0  0  0  0  0
    6.0008   13.5764   26.4186 O   0  0  0  0  0  0  0  0  0  0  0  0
    8.0729   13.7404   25.3276 C   0  0  0  0  0  0  0  0  0  0  0  0
    9.0072   13.0394   24.6717 C   0  0  0  0  0  0  0  0  0  0  0  0
   10.2598   13.8419   24.4415 C   0  0  0  0  0  0  0  0  0  0  0  0
   10.9884   14.0721   25.3215 O   0  0  0  0  0  0  0  0  0  0  0  0
   10.2810   14.3181   22.9774 N   0  0  0  0  0  0  0  0  0  0  0  0
   11.1351   15.2386   22.3216 C   0  0  1  0  0  0  0  0  0  0  0  0
   12.0964   15.0899   21.1678 C   0  0  0  0  0  0  0  0  0  0  0  0
   13.2384   15.8560   21.1824 F   0  0  0  0  0  0  0  0  0  0  0  0
   12.4470   13.8381   20.7346 F   0  0  0  0  0  0  0  0  0  0  0  0
   10.7942   15.6725   20.9545 C   0  0  0  0  0  0  0  0  0  0  0  0
    9.7083   15.4072   20.0173 C   0  0  0  0  0  0  0  0  0  0  0  0
   10.0345   16.8228   20.4666 C   0  0  0  0  0  0  0  0  0  0  0  0
  1  2  2  0
  2  3  1  0
  3  4  1  0
  4  5  1  0
  5  6  1  0
  6  7  1  0
  7  8  2  0
  8  9  1  0
  9 10  2  0
  9 11  1  0
 11 12  2  0
 12 13  1  0
 13 14  2  0
 13 15  1  0
 16 15  1  6
 16 17  1  0
 17 18  1  0
 17 19  1  0
 17 20  1  0
 20 21  1  0
 21 22  1  0
  7  2  1  0
 20 16  1  0
 12  6  1  0
 22 20  1  0
M  END
>  <energy_score>  (1890) 
-32.180509

>  <inchikey>  (1890) 
UFIXVGPYIOPAHB-UHFFFAOYSA-N

>  <smiles>  (1890) 
O=C1NCCn2c1cc(=O)cc2C(=O)NC1C(F)(F)C12CC2

>  <ref_pdb>  (1890) 
A0875a

>  <alias>  (1890) 
UFIXVGPYIOPAHB-UHFFFAOYSA-N-P144-P144-P198-601508

>  <HIPPO Pose ID>  (1890) 
514632

>  <name>  (1890) 
UFIXVGPYIOPAHB-UHFFFAOYSA-N-P144-P144-P198-601508

>  <HIPPO Compound ID>  (1890) 
294034

>  <ref_mols>  (1890) 
A3181a,A3618a

>  <distance_score>  (1890) 
1.567202

>  <inspiration_score>  (1890) 
None

$$$$
ZCTDCXUPPAGHPD-UHFFFAOYSA-N-P198-P144-P198-601508
     RDKit          3D

 22 25  0  0  0  0  0  0  0  0999 V2000
    6.6204    8.9008   25.1098 O   0  0  0  0  0  0  0  0  0  0  0  0
    7.4715    9.5958   24.5749 C   0  0  0  0  0  0  0  0  0  0  0  0
    8.3636    9.1043   23.6798 N   0  0  0  0  0  0  0  0  0  0  0  0
    9.5998    9.7426   23.3427 C   0  0  0  0  0  0  0  0  0  0  0  0
    9.5675   11.2688   23.4069 C   0  0  0  0  0  0  0  0  0  0  0  0
    8.5032   11.8538   24.2414 N   0  0  0  0  0  0  0  0  0  0  0  0
    7.4913   11.0578   24.7750 C   0  0  0  0  0  0  0  0  0  0  0  0
    6.4226   11.5250   25.4294 C   0  0  0  0  0  0  0  0  0  0  0  0
    6.3116   12.9660   25.5936 C   0  0  0  0  0  0  0  0  0  0  0  0
    5.3322   13.4294   26.1504 O   0  0  0  0  0  0  0  0  0  0  0  0
    7.4088   13.8245   25.1376 C   0  0  0  0  0  0  0  0  0  0  0  0
    8.4311   13.2226   24.5206 C   0  0  0  0  0  0  0  0  0  0  0  0
    9.5805   14.1369   24.2985 C   0  0  0  0  0  0  0  0  0  0  0  0
   10.1527   14.6328   25.1839 O   0  0  0  0  0  0  0  0  0  0  0  0
    9.8438   14.1936   22.7854 N   0  0  0  0  0  0  0  0  0  0  0  0
   10.7976   14.9390   22.0419 C   0  0  1  0  0  0  0  0  0  0  0  0
   11.6955   15.7840   22.8751 C   0  0  0  0  0  0  0  0  0  0  0  0
   12.4288   14.9075   23.7435 O   0  0  0  0  0  0  0  0  0  0  0  0
   11.5428   14.3963   20.9096 C   0  0  0  0  0  0  0  0  0  0  0  0
   10.3183   15.2438   20.6341 C   0  0  0  0  0  0  0  0  0  0  0  0
   10.4742   15.9872   19.3447 C   0  0  0  0  0  0  0  0  0  0  0  0
   10.0152   16.7332   20.5277 C   0  0  0  0  0  0  0  0  0  0  0  0
  1  2  2  0
  2  3  1  0
  3  4  1  0
  4  5  1  0
  5  6  1  0
  6  7  1  0
  7  8  2  0
  8  9  1  0
  9 10  2  0
  9 11  1  0
 11 12  2  0
 12 13  1  0
 13 14  2  0
 13 15  1  0
 15 16  1  0
 16 17  1  1
 17 18  1  0
 16 19  1  0
 19 20  1  0
 20 21  1  0
 21 22  1  0
  7  2  1  0
 20 16  1  0
 12  6  1  0
 22 20  1  0
M  END
>  <energy_score>  (1891) 
-58.263934

>  <inchikey>  (1891) 
ZCTDCXUPPAGHPD-UHFFFAOYSA-N

>  <smiles>  (1891) 
O=C1NCCn2c1cc(=O)cc2C(=O)NC1(CO)CC12CC2

>  <ref_pdb>  (1891) 
A0875a

>  <alias>  (1891) 
ZCTDCXUPPAGHPD-UHFFFAOYSA-N-P198-P144-P198-601508

>  <HIPPO Pose ID>  (1891) 
514637

>  <name>  (1891) 
ZCTDCXUPPAGHPD-UHFFFAOYSA-N-P198-P144-P198-601508

>  <HIPPO Compound ID>  (1891) 
294036

>  <ref_mols>  (1891) 
A3181a,A3618a

>  <distance_score>  (1891) 
1.530977

>  <inspiration_score>  (1891) 
None

$$$$
XOJFDBJVBBDPSV-UHFFFAOYSA-N-P198-P144-P198-601508
     RDKit          3D

 23 26  0  0  0  0  0  0  0  0999 V2000
    6.4813   10.0352   26.2881 O   0  0  0  0  0  0  0  0  0  0  0  0
    7.1383   10.0635   25.2588 C   0  0  0  0  0  0  0  0  0  0  0  0
    7.8004    8.9972   24.7485 N   0  0  0  0  0  0  0  0  0  0  0  0
    8.6696    8.9961   23.5946 C   0  0  0  0  0  0  0  0  0  0  0  0
    9.3391   10.3335   23.3456 C   0  0  0  0  0  0  0  0  0  0  0  0
    8.4884   11.4778   23.7312 N   0  0  0  0  0  0  0  0  0  0  0  0
    7.3666   11.3160   24.5488 C   0  0  0  0  0  0  0  0  0  0  0  0
    6.4901   12.2668   24.8835 C   0  0  0  0  0  0  0  0  0  0  0  0
    6.7865   13.6152   24.4181 C   0  0  0  0  0  0  0  0  0  0  0  0
    6.0130   14.5459   24.5993 O   0  0  0  0  0  0  0  0  0  0  0  0
    8.1140   13.8457   23.8347 C   0  0  0  0  0  0  0  0  0  0  0  0
    8.8827   12.7866   23.5246 C   0  0  0  0  0  0  0  0  0  0  0  0
   10.3125   13.1629   23.3415 C   0  0  0  0  0  0  0  0  0  0  0  0
   11.1600   12.7436   24.0197 O   0  0  0  0  0  0  0  0  0  0  0  0
   10.3597   14.2143   22.2260 N   0  0  0  0  0  0  0  0  0  0  0  0
   11.4141   15.0237   21.7815 C   0  0  0  0  0  0  0  0  0  0  0  0
   11.4941   15.4450   20.3292 C   0  0  1  0  0  0  0  0  0  0  0  0
   10.9880   14.9666   19.0084 C   0  0  0  0  0  0  0  0  0  0  0  0
   10.1752   15.8994   19.7873 C   0  0  0  0  0  0  0  0  0  0  0  0
   10.0457   17.2408   19.5582 F   0  0  0  0  0  0  0  0  0  0  0  0
    9.0308   15.4753   20.4398 F   0  0  0  0  0  0  0  0  0  0  0  0
   12.5886   15.2637   22.6745 C   0  0  0  0  0  0  0  0  0  0  0  0
   11.4718   16.2299   22.7195 C   0  0  0  0  0  0  0  0  0  0  0  0
  1  2  2  0
  2  3  1  0
  3  4  1  0
  4  5  1  0
  5  6  1  0
  6  7  1  0
  7  8  2  0
  8  9  1  0
  9 10  2  0
  9 11  1  0
 11 12  2  0
 12 13  1  0
 13 14  2  0
 13 15  1  0
 15 16  1  0
 17 16  1  1
 17 18  1  0
 18 19  1  0
 19 20  1  0
 19 21  1  0
 16 22  1  0
 22 23  1  0
  7  2  1  0
 23 16  1  0
 12  6  1  0
 19 17  1  0
M  END
>  <energy_score>  (1892) 
-16.958906

>  <inchikey>  (1892) 
XOJFDBJVBBDPSV-UHFFFAOYSA-N

>  <smiles>  (1892) 
O=C1NCCn2c1cc(=O)cc2C(=O)NC1(C2CC2(F)F)CC1

>  <ref_pdb>  (1892) 
A0875a

>  <alias>  (1892) 
XOJFDBJVBBDPSV-UHFFFAOYSA-N-P198-P144-P198-601508

>  <HIPPO Pose ID>  (1892) 
514661

>  <name>  (1892) 
XOJFDBJVBBDPSV-UHFFFAOYSA-N-P198-P144-P198-601508

>  <HIPPO Compound ID>  (1892) 
294048

>  <ref_mols>  (1892) 
A3181a,A3618a

>  <distance_score>  (1892) 
1.811781

>  <inspiration_score>  (1892) 
None

$$$$
ZTRSQZBCTDDJOV-UHFFFAOYSA-N-P198-P144-P198-601508
     RDKit          3D

 23 26  0  0  0  0  0  0  0  0999 V2000
    9.8096   17.8360   20.6955 C   0  0  0  0  0  0  0  0  0  0  0  0
    9.9267   16.4023   21.1689 C   0  0  0  0  0  0  0  0  0  0  0  0
    8.5560   15.9386   21.6953 C   0  0  0  0  0  0  0  0  0  0  0  0
   11.1962   16.1387   22.0762 C   0  0  0  0  0  0  0  0  0  0  0  0
   11.2386   14.7022   21.4719 C   0  0  1  0  0  0  0  0  0  0  0  0
   10.3458   13.9070   22.2866 N   0  0  0  0  0  0  0  0  0  0  0  0
   10.5293   13.3331   23.6939 C   0  0  0  0  0  0  0  0  0  0  0  0
   11.4556   13.3402   24.3961 O   0  0  0  0  0  0  0  0  0  0  0  0
    9.1998   12.7986   24.1236 C   0  0  0  0  0  0  0  0  0  0  0  0
    8.5172   13.7342   24.7968 C   0  0  0  0  0  0  0  0  0  0  0  0
    7.2733   13.3461   25.4729 C   0  0  0  0  0  0  0  0  0  0  0  0
    6.6519   14.1651   26.1351 O   0  0  0  0  0  0  0  0  0  0  0  0
    6.8735   11.9356   25.4182 C   0  0  0  0  0  0  0  0  0  0  0  0
    7.6548   11.0987   24.7181 C   0  0  0  0  0  0  0  0  0  0  0  0
    8.7796   11.4865   23.9770 N   0  0  0  0  0  0  0  0  0  0  0  0
    9.6336   10.5122   23.2892 C   0  0  0  0  0  0  0  0  0  0  0  0
    9.1769    9.0762   23.2927 C   0  0  0  0  0  0  0  0  0  0  0  0
    7.9435    8.8346   23.9761 N   0  0  0  0  0  0  0  0  0  0  0  0
    7.2118    9.6914   24.7246 C   0  0  0  0  0  0  0  0  0  0  0  0
    6.1841    9.3235   25.2811 O   0  0  0  0  0  0  0  0  0  0  0  0
   10.6405   15.4034   20.2960 C   0  0  0  0  0  0  0  0  0  0  0  0
   11.5130   15.7492   19.1101 C   0  0  0  0  0  0  0  0  0  0  0  0
   10.3051   14.9481   18.9300 C   0  0  0  0  0  0  0  0  0  0  0  0
  1  2  1  0
  2  3  1  0
  2  4  1  0
  4  5  1  0
  5  6  1  1
  6  7  1  0
  7  8  2  0
  7  9  1  0
  9 10  2  0
 10 11  1  0
 11 12  2  0
 11 13  1  0
 13 14  2  0
 14 15  1  0
 15 16  1  0
 16 17  1  0
 17 18  1  0
 18 19  1  0
 19 20  2  0
  5 21  1  0
 21 22  1  0
 22 23  1  0
 21  2  1  0
 15  9  1  0
 23 21  1  0
 19 14  1  0
M  END
>  <energy_score>  (1893) 
-18.710381

>  <inchikey>  (1893) 
ZTRSQZBCTDDJOV-UHFFFAOYSA-N

>  <smiles>  (1893) 
CC1(C)CC(NC(=O)c2cc(=O)cc3n2CCNC3=O)C12CC2

>  <ref_pdb>  (1893) 
A0875a

>  <alias>  (1893) 
ZTRSQZBCTDDJOV-UHFFFAOYSA-N-P198-P144-P198-601508

>  <HIPPO Pose ID>  (1893) 
514671

>  <name>  (1893) 
ZTRSQZBCTDDJOV-UHFFFAOYSA-N-P198-P144-P198-601508

>  <HIPPO Compound ID>  (1893) 
294053

>  <ref_mols>  (1893) 
A3181a,A3618a

>  <distance_score>  (1893) 
1.653422

>  <inspiration_score>  (1893) 
None

$$$$
FMKXBNFHOAFPGE-UHFFFAOYSA-N-P198-P144-P198-601508
     RDKit          3D

 23 26  0  0  0  0  0  0  0  0999 V2000
    6.6711    9.0785   25.4042 O   0  0  0  0  0  0  0  0  0  0  0  0
    7.4459    9.7322   24.7223 C   0  0  0  0  0  0  0  0  0  0  0  0
    8.5151    9.1510   24.1410 N   0  0  0  0  0  0  0  0  0  0  0  0
    9.4355    9.7864   23.2599 C   0  0  0  0  0  0  0  0  0  0  0  0
    9.4066   11.3122   23.2910 C   0  0  0  0  0  0  0  0  0  0  0  0
    8.1391   11.9441   23.7096 N   0  0  0  0  0  0  0  0  0  0  0  0
    7.2561   11.1834   24.4984 C   0  0  0  0  0  0  0  0  0  0  0  0
    6.1665   11.6574   25.1079 C   0  0  0  0  0  0  0  0  0  0  0  0
    5.8515   13.0625   24.9330 C   0  0  0  0  0  0  0  0  0  0  0  0
    4.8544   13.5122   25.4707 O   0  0  0  0  0  0  0  0  0  0  0  0
    6.7995   13.9228   24.2204 C   0  0  0  0  0  0  0  0  0  0  0  0
    7.9150   13.3546   23.7352 C   0  0  0  0  0  0  0  0  0  0  0  0
    9.0442   14.3501   23.8572 C   0  0  0  0  0  0  0  0  0  0  0  0
    9.1251   14.9956   24.8222 O   0  0  0  0  0  0  0  0  0  0  0  0
    9.9794   14.2458   22.6536 N   0  0  0  0  0  0  0  0  0  0  0  0
   11.2566   14.8362   22.4182 C   0  0  2  0  0  0  0  0  0  0  0  0
   11.7772   14.9623   20.9909 C   0  0  0  0  0  0  0  0  0  0  0  0
   11.0575   15.8514   20.0597 C   0  0  0  0  0  0  0  0  0  0  0  0
    9.6404   15.5855   19.7351 C   0  0  0  0  0  0  0  0  0  0  0  0
   10.0046   16.8499   20.4629 C   0  0  0  0  0  0  0  0  0  0  0  0
   12.1732   13.8902   23.1501 C   0  0  0  0  0  0  0  0  0  0  0  0
   12.7266   14.3097   24.4722 C   0  0  0  0  0  0  0  0  0  0  0  0
   11.8575   13.1429   24.4242 C   0  0  0  0  0  0  0  0  0  0  0  0
  1  2  2  0
  2  3  1  0
  3  4  1  0
  4  5  1  0
  5  6  1  0
  6  7  1  0
  7  8  2  0
  8  9  1  0
  9 10  2  0
  9 11  1  0
 11 12  2  0
 12 13  1  0
 13 14  2  0
 13 15  1  0
 15 16  1  0
 16 17  1  6
 17 18  1  0
 18 19  1  0
 19 20  1  0
 16 21  1  0
 21 22  1  0
 22 23  1  0
  7  2  1  0
 20 18  1  0
 23 21  1  0
 12  6  1  0
M  END
>  <energy_score>  (1894) 
-14.794037

>  <inchikey>  (1894) 
FMKXBNFHOAFPGE-UHFFFAOYSA-N

>  <smiles>  (1894) 
O=C1NCCn2c1cc(=O)cc2C(=O)NC(CC1CC1)C1CC1

>  <ref_pdb>  (1894) 
A0875a

>  <alias>  (1894) 
FMKXBNFHOAFPGE-UHFFFAOYSA-N-P198-P144-P198-601508

>  <HIPPO Pose ID>  (1894) 
514673

>  <name>  (1894) 
FMKXBNFHOAFPGE-UHFFFAOYSA-N-P198-P144-P198-601508

>  <HIPPO Compound ID>  (1894) 
294054

>  <ref_mols>  (1894) 
A3181a,A3618a

>  <distance_score>  (1894) 
1.630275

>  <inspiration_score>  (1894) 
None

$$$$
OUXQLGIECWUUHA-UHFFFAOYSA-N-P144-P144-P198-601508
     RDKit          3D

 23 25  0  0  0  0  0  0  0  0999 V2000
    9.6609   17.0110   19.8447 C   0  0  0  0  0  0  0  0  0  0  0  0
    9.9164   16.4314   21.1535 N   0  0  0  0  0  0  0  0  0  0  0  0
    8.7090   15.7754   21.5989 C   0  0  0  0  0  0  0  0  0  0  0  0
   11.1786   15.6962   21.2511 C   0  0  1  0  0  0  0  0  0  0  0  0
   11.5468   15.0085   22.5977 C   0  0  0  0  0  0  0  0  0  0  0  0
   10.5666   14.1399   23.2035 N   0  0  0  0  0  0  0  0  0  0  0  0
   10.2496   13.8725   24.6781 C   0  0  0  0  0  0  0  0  0  0  0  0
   10.7777   14.2502   25.6441 O   0  0  0  0  0  0  0  0  0  0  0  0
    8.9814   13.0602   24.7793 C   0  0  0  0  0  0  0  0  0  0  0  0
    8.0134   13.7401   25.4100 C   0  0  0  0  0  0  0  0  0  0  0  0
    6.8145   12.9978   25.8191 C   0  0  0  0  0  0  0  0  0  0  0  0
    5.8824   13.5497   26.3781 O   0  0  0  0  0  0  0  0  0  0  0  0
    6.7645   11.5592   25.6103 C   0  0  0  0  0  0  0  0  0  0  0  0
    7.7609   11.0028   24.9162 C   0  0  0  0  0  0  0  0  0  0  0  0
    8.8774   11.7040   24.4382 N   0  0  0  0  0  0  0  0  0  0  0  0
    9.7408   11.0914   23.4272 C   0  0  0  0  0  0  0  0  0  0  0  0
    9.6747    9.5639   23.3820 C   0  0  0  0  0  0  0  0  0  0  0  0
    8.3775    9.0238   23.6807 N   0  0  0  0  0  0  0  0  0  0  0  0
    7.5405    9.5650   24.6039 C   0  0  0  0  0  0  0  0  0  0  0  0
    6.6133    8.9259   25.0856 O   0  0  0  0  0  0  0  0  0  0  0  0
   11.2519   14.7089   20.1511 C   0  0  0  0  0  0  0  0  0  0  0  0
   12.6217   14.3172   19.7164 C   0  0  0  0  0  0  0  0  0  0  0  0
   11.7050   14.9808   18.7371 C   0  0  0  0  0  0  0  0  0  0  0  0
  1  2  1  0
  2  3  1  0
  2  4  1  0
  4  5  1  1
  5  6  1  0
  6  7  1  0
  7  8  2  0
  7  9  1  0
  9 10  2  0
 10 11  1  0
 11 12  2  0
 11 13  1  0
 13 14  2  0
 14 15  1  0
 15 16  1  0
 16 17  1  0
 17 18  1  0
 18 19  1  0
 19 20  2  0
  4 21  1  0
 21 22  1  0
 22 23  1  0
 15  9  1  0
 23 21  1  0
 19 14  1  0
M  END
>  <energy_score>  (1895) 
-63.810716

>  <inchikey>  (1895) 
OUXQLGIECWUUHA-UHFFFAOYSA-N

>  <smiles>  (1895) 
CN(C)C(CNC(=O)c1cc(=O)cc2n1CCNC2=O)C1CC1

>  <ref_pdb>  (1895) 
A0875a

>  <alias>  (1895) 
OUXQLGIECWUUHA-UHFFFAOYSA-N-P144-P144-P198-601508

>  <HIPPO Pose ID>  (1895) 
514678

>  <name>  (1895) 
OUXQLGIECWUUHA-UHFFFAOYSA-N-P144-P144-P198-601508

>  <HIPPO Compound ID>  (1895) 
294057

>  <ref_mols>  (1895) 
A3181a,A3618a

>  <distance_score>  (1895) 
1.777599

>  <inspiration_score>  (1895) 
None

$$$$
SQIJYXPTRNBMPB-UHFFFAOYSA-N-P198-P144-P198-601508
     RDKit          3D

 23 27  0  0  0  0  0  0  0  0999 V2000
    9.3237   14.5103   25.2964 O   0  0  0  0  0  0  0  0  0  0  0  0
    9.0480   13.9564   24.3097 C   0  0  0  0  0  0  0  0  0  0  0  0
    9.2987   14.3463   22.8455 N   0  0  0  0  0  0  0  0  0  0  0  0
   10.0180   15.4428   22.2903 C   0  0  1  0  0  0  0  0  0  0  0  0
   11.3590   14.9612   21.7724 C   0  0  2  0  0  0  0  0  0  0  0  0
   12.3783   15.9793   21.3894 C   0  0  0  0  0  0  0  0  0  0  0  0
   11.5072   15.3802   20.3211 C   0  0  2  0  0  0  0  0  0  0  0  0
   10.1942   16.0412   19.8913 C   0  0  2  0  0  0  0  0  0  0  0  0
    9.6948   17.3352   20.4921 C   0  0  0  0  0  0  0  0  0  0  0  0
    9.2760   16.0285   21.1066 C   0  0  2  0  0  0  0  0  0  0  0  0
    8.3566   12.6352   24.3977 C   0  0  0  0  0  0  0  0  0  0  0  0
    8.9191   11.5133   23.8085 C   0  0  0  0  0  0  0  0  0  0  0  0
    8.3488   10.2759   24.0834 C   0  0  0  0  0  0  0  0  0  0  0  0
    7.2203   10.2144   24.8924 C   0  0  0  0  0  0  0  0  0  0  0  0
    6.6789   11.3977   25.3741 C   0  0  0  0  0  0  0  0  0  0  0  0
    5.3915   11.3375   26.1298 C   0  0  0  0  0  0  0  0  0  0  0  0
    4.7781   10.2789   26.2214 O   0  0  0  0  0  0  0  0  0  0  0  0
    4.8689   12.5041   26.6247 N   0  0  0  0  0  0  0  0  0  0  0  0
    5.0887   12.9725   27.9704 C   0  0  0  0  0  0  0  0  0  0  0  0
    4.1585   14.1764   28.1005 C   0  0  0  0  0  0  0  0  0  0  0  0
    3.1674   14.0238   26.9491 C   0  0  0  0  0  0  0  0  0  0  0  0
    4.0374   13.4061   25.8673 C   0  0  0  0  0  0  0  0  0  0  0  0
    7.2459   12.6067   25.1610 N   0  0  0  0  0  0  0  0  0  0  0  0
  1  2  2  0
  2  3  1  0
  4  3  1  6
  4  5  1  0
  5  6  1  1
  7  6  1  1
  7  8  1  0
  8  9  1  1
 10  9  1  1
  2 11  1  0
 11 12  2  0
 12 13  1  0
 13 14  2  0
 14 15  1  0
 15 16  1  0
 16 17  2  0
 16 18  1  0
 18 19  1  0
 19 20  1  0
 20 21  1  0
 21 22  1  0
 15 23  2  0
 10  4  1  0
 23 11  1  0
  7  5  1  0
 10  8  1  0
 22 18  1  0
M  END
>  <energy_score>  (1896) 
-47.235726

>  <inchikey>  (1896) 
SQIJYXPTRNBMPB-UHFFFAOYSA-N

>  <smiles>  (1896) 
O=C(NC1C2CC2C2CC21)c1cccc(C(=O)N2CCCC2)n1

>  <ref_pdb>  (1896) 
A0875a

>  <alias>  (1896) 
SQIJYXPTRNBMPB-UHFFFAOYSA-N-P198-P144-P198-601508

>  <HIPPO Pose ID>  (1896) 
514715

>  <name>  (1896) 
SQIJYXPTRNBMPB-UHFFFAOYSA-N-P198-P144-P198-601508

>  <HIPPO Compound ID>  (1896) 
294075

>  <ref_mols>  (1896) 
A3181a,A3618a

>  <distance_score>  (1896) 
1.837411

>  <inspiration_score>  (1896) 
None

$$$$
ASYLSKASVXZOTM-UHFFFAOYSA-N-P198-P144-P198-601508
     RDKit          3D

 23 24  0  0  0  0  0  0  0  0999 V2000
   10.3113   15.5673   18.9011 C   0  0  0  0  0  0  0  0  0  0  0  0
   10.2178   16.4596   19.8908 C   0  0  0  0  0  0  0  0  0  0  0  0
   10.7430   16.2785   21.2754 C   0  0  0  0  0  0  0  0  0  0  0  0
   11.3047   14.8888   21.5781 C   0  0  0  0  0  0  0  0  0  0  0  0
   11.8461   14.7483   23.0053 C   0  0  0  0  0  0  0  0  0  0  0  0
   10.8769   15.2511   24.0810 C   0  0  1  0  0  0  0  0  0  0  0  0
    9.6538   14.5106   24.0477 N   0  0  0  0  0  0  0  0  0  0  0  0
    8.2143   14.9827   23.8796 C   0  0  0  0  0  0  0  0  0  0  0  0
    7.7898   16.0403   23.6638 O   0  0  0  0  0  0  0  0  0  0  0  0
    7.3003   13.8369   24.1488 C   0  0  0  0  0  0  0  0  0  0  0  0
    6.0752   14.1701   24.6981 C   0  0  0  0  0  0  0  0  0  0  0  0
    5.3761   13.1886   25.3759 C   0  0  0  0  0  0  0  0  0  0  0  0
    5.8868   11.8987   25.4517 C   0  0  0  0  0  0  0  0  0  0  0  0
    4.9719   10.7919   26.3934 Cl  0  0  0  0  0  0  0  0  0  0  0  0
    7.0850   11.6247   24.7809 C   0  0  0  0  0  0  0  0  0  0  0  0
    7.6395   10.2281   24.6512 C   0  0  0  0  0  0  0  0  0  0  0  0
    7.1568    9.3588   25.2511 O   0  0  0  0  0  0  0  0  0  0  0  0
    8.7887   10.2167   23.6333 N   0  0  0  0  0  0  0  0  0  0  0  0
    9.6476    9.1491   23.2101 C   0  0  0  0  0  0  0  0  0  0  0  0
    7.8426   12.5844   24.1555 N   0  0  0  0  0  0  0  0  0  0  0  0
   11.3397   15.1401   25.5189 C   0  0  0  0  0  0  0  0  0  0  0  0
   10.3096   15.5141   26.5955 C   0  0  0  0  0  0  0  0  0  0  0  0
   11.5681   16.2832   26.4941 C   0  0  0  0  0  0  0  0  0  0  0  0
  1  2  2  0
  2  3  1  0
  3  4  1  0
  4  5  1  0
  6  5  1  6
  6  7  1  0
  7  8  1  0
  8  9  2  0
  8 10  1  0
 10 11  2  0
 11 12  1  0
 12 13  2  0
 13 14  1  0
 13 15  1  0
 15 16  1  0
 16 17  2  0
 16 18  1  0
 18 19  1  0
 15 20  2  0
  6 21  1  0
 21 22  1  0
 22 23  1  0
 20 10  1  0
 23 21  1  0
M  END
>  <energy_score>  (1897) 
-7.392704

>  <inchikey>  (1897) 
ASYLSKASVXZOTM-UHFFFAOYSA-N

>  <smiles>  (1897) 
C=CCCCC(NC(=O)c1ccc(Cl)c(C(=O)NC)n1)C1CC1

>  <ref_pdb>  (1897) 
A0875a

>  <alias>  (1897) 
ASYLSKASVXZOTM-UHFFFAOYSA-N-P198-P144-P198-601508

>  <HIPPO Pose ID>  (1897) 
514725

>  <name>  (1897) 
ASYLSKASVXZOTM-UHFFFAOYSA-N-P198-P144-P198-601508

>  <HIPPO Compound ID>  (1897) 
294080

>  <ref_mols>  (1897) 
A3181a,A3618a

>  <distance_score>  (1897) 
1.927408

>  <inspiration_score>  (1897) 
None

$$$$
MODNVCCDWYUJID-UHFFFAOYSA-N-P144-P144-P198-601509
     RDKit          3D

 23 27  0  0  0  0  0  0  0  0999 V2000
   10.7245   11.8656   23.7563 O   0  0  0  0  0  0  0  0  0  0  0  0
    9.7811   12.5467   23.7931 C   0  0  0  0  0  0  0  0  0  0  0  0
    9.6162   14.0460   23.4644 N   0  0  0  0  0  0  0  0  0  0  0  0
   10.5366   14.9741   22.9439 C   0  0  2  0  0  0  0  0  0  0  0  0
   10.2831   15.5114   21.5462 C   0  0  1  0  0  0  0  0  0  0  0  0
    9.3956   14.9692   20.5005 C   0  0  0  0  0  0  0  0  0  0  0  0
    9.9748   16.1235   19.6615 C   0  0  0  0  0  0  0  0  0  0  0  0
   10.0995   16.8659   21.0043 C   0  0  0  0  0  0  0  0  0  0  0  0
   11.5226   14.8559   21.8881 C   0  0  2  0  0  0  0  0  0  0  0  0
   12.3901   13.8980   21.2528 C   0  0  0  0  0  0  0  0  0  0  0  0
   12.9349   15.1996   21.8190 C   0  0  0  0  0  0  0  0  0  0  0  0
    8.4613   12.0388   24.3171 C   0  0  0  0  0  0  0  0  0  0  0  0
    8.2899   10.7769   24.8898 C   0  0  0  0  0  0  0  0  0  0  0  0
    7.2086   10.5619   25.7729 C   0  0  0  0  0  0  0  0  0  0  0  0
    6.3896   11.6340   26.0494 C   0  0  0  0  0  0  0  0  0  0  0  0
    6.5363   12.7634   25.2921 C   0  0  0  0  0  0  0  0  0  0  0  0
    7.5341   13.0089   24.4216 N   0  0  0  0  0  0  0  0  0  0  0  0
    5.3919   13.6772   25.3981 C   0  0  0  0  0  0  0  0  0  0  0  0
    5.2045   14.6289   24.6743 O   0  0  0  0  0  0  0  0  0  0  0  0
    4.5074   13.2022   26.3790 N   0  0  0  0  0  0  0  0  0  0  0  0
    5.1297   11.9195   27.2166 S   0  0  0  0  0  0  0  0  0  0  0  0
    4.1772   10.8458   27.2820 O   0  0  0  0  0  0  0  0  0  0  0  0
    5.7335   12.4628   28.4039 O   0  0  0  0  0  0  0  0  0  0  0  0
  1  2  2  0
  2  3  1  0
  4  3  1  6
  4  5  1  0
  5  6  1  6
  6  7  1  0
  7  8  1  0
  5  9  1  0
  9 10  1  6
 10 11  1  0
  2 12  1  0
 12 13  2  0
 13 14  1  0
 14 15  2  0
 15 16  1  0
 16 17  2  0
 16 18  1  0
 18 19  2  0
 18 20  1  0
 20 21  1  0
 21 22  2  0
 21 23  2  0
  9  4  1  0
 17 12  1  0
  8  5  1  0
 11  9  1  0
 21 15  1  0
M  END
>  <energy_score>  (1898) 
-35.180951

>  <inchikey>  (1898) 
MODNVCCDWYUJID-UHFFFAOYSA-N

>  <smiles>  (1898) 
O=C(NC1C2(CCC2)C12CC2)c1ccc2c(n1)C(=O)NS2(=O)=O

>  <ref_pdb>  (1898) 
A3181a

>  <alias>  (1898) 
MODNVCCDWYUJID-UHFFFAOYSA-N-P144-P144-P198-601509

>  <HIPPO Pose ID>  (1898) 
514874

>  <name>  (1898) 
MODNVCCDWYUJID-UHFFFAOYSA-N-P144-P144-P198-601509

>  <HIPPO Compound ID>  (1898) 
294155

>  <ref_mols>  (1898) 
A3181a,A3618a

>  <distance_score>  (1898) 
1.959514

>  <inspiration_score>  (1898) 
None

$$$$
MMIVGPJWZYAWFU-UHFFFAOYSA-N-P144-P144-P198-601509
     RDKit          3D

 24 26  0  0  0  0  0  0  0  0999 V2000
   10.4465   15.6186   18.7881 C   0  0  0  0  0  0  0  0  0  0  0  0
    9.9783   16.2221   20.0861 C   0  0  0  0  0  0  0  0  0  0  0  0
   10.9429   15.9836   21.2289 C   0  0  0  0  0  0  0  0  0  0  0  0
   11.2775   14.5173   21.4482 C   0  0  0  0  0  0  0  0  0  0  0  0
   11.8872   14.2357   22.8205 C   0  0  0  0  0  0  0  0  0  0  0  0
   10.9026   14.4886   23.9652 C   0  0  1  0  0  0  0  0  0  0  0  0
    9.7556   13.6221   24.0301 N   0  0  0  0  0  0  0  0  0  0  0  0
    9.6518   12.0932   23.9167 C   0  0  0  0  0  0  0  0  0  0  0  0
   10.4644   11.2994   23.6764 O   0  0  0  0  0  0  0  0  0  0  0  0
    8.2527   11.6960   24.2896 C   0  0  0  0  0  0  0  0  0  0  0  0
    8.0015   10.4583   24.8915 C   0  0  0  0  0  0  0  0  0  0  0  0
    6.9379   10.3458   25.8104 C   0  0  0  0  0  0  0  0  0  0  0  0
    6.2131   11.4840   26.0824 C   0  0  0  0  0  0  0  0  0  0  0  0
    6.4293   12.5872   25.3036 C   0  0  0  0  0  0  0  0  0  0  0  0
    7.4295   12.7525   24.4175 N   0  0  0  0  0  0  0  0  0  0  0  0
    5.4464   13.6483   25.5272 C   0  0  0  0  0  0  0  0  0  0  0  0
    5.5432   14.7726   25.0885 O   0  0  0  0  0  0  0  0  0  0  0  0
    4.4472   13.1948   26.4183 N   0  0  0  0  0  0  0  0  0  0  0  0
    5.0030   11.8785   27.2728 S   0  0  0  0  0  0  0  0  0  0  0  0
    3.9842   10.8706   27.3870 O   0  0  0  0  0  0  0  0  0  0  0  0
    5.6643   12.4182   28.4310 O   0  0  0  0  0  0  0  0  0  0  0  0
   11.4934   14.4029   25.3512 C   0  0  0  0  0  0  0  0  0  0  0  0
   11.9404   15.5272   26.2639 C   0  0  0  0  0  0  0  0  0  0  0  0
   10.5957   14.9420   26.4697 C   0  0  0  0  0  0  0  0  0  0  0  0
  1  2  1  0
  2  3  1  0
  3  4  1  0
  4  5  1  0
  6  5  1  6
  6  7  1  0
  7  8  1  0
  8  9  2  0
  8 10  1  0
 10 11  2  0
 11 12  1  0
 12 13  2  0
 13 14  1  0
 14 15  2  0
 14 16  1  0
 16 17  2  0
 16 18  1  0
 18 19  1  0
 19 20  2  0
 19 21  2  0
  6 22  1  0
 22 23  1  0
 23 24  1  0
 15 10  1  0
 24 22  1  0
 19 13  1  0
M  END
>  <energy_score>  (1899) 
-18.802694

>  <inchikey>  (1899) 
MMIVGPJWZYAWFU-UHFFFAOYSA-N

>  <smiles>  (1899) 
CCCCCC(NC(=O)c1ccc2c(n1)C(=O)NS2(=O)=O)C1CC1

>  <ref_pdb>  (1899) 
A3181a

>  <alias>  (1899) 
MMIVGPJWZYAWFU-UHFFFAOYSA-N-P144-P144-P198-601509

>  <HIPPO Pose ID>  (1899) 
514946

>  <name>  (1899) 
MMIVGPJWZYAWFU-UHFFFAOYSA-N-P144-P144-P198-601509

>  <HIPPO Compound ID>  (1899) 
294191

>  <ref_mols>  (1899) 
A3181a,A3618a

>  <distance_score>  (1899) 
1.999058

>  <inspiration_score>  (1899) 
None

$$$$
YHSNYZGUCJZJKR-UHFFFAOYSA-N-P198-P144-P198-601509
     RDKit          3D

 24 25  0  0  0  0  0  0  0  0999 V2000
    9.5062    8.9474   23.0745 C   0  0  0  0  0  0  0  0  0  0  0  0
    8.9304   10.1081   23.6872 N   0  0  0  0  0  0  0  0  0  0  0  0
    7.7053   10.2484   24.6104 C   0  0  0  0  0  0  0  0  0  0  0  0
    7.0181    9.4356   25.0796 O   0  0  0  0  0  0  0  0  0  0  0  0
    7.4739   11.7127   24.9005 C   0  0  0  0  0  0  0  0  0  0  0  0
    8.5569   12.4939   24.5854 N   0  0  0  0  0  0  0  0  0  0  0  0
    8.4842   13.8069   24.9395 C   0  0  0  0  0  0  0  0  0  0  0  0
    9.7756   14.5757   24.8675 C   0  0  0  0  0  0  0  0  0  0  0  0
    9.8767   15.6323   25.3434 O   0  0  0  0  0  0  0  0  0  0  0  0
   10.7856   13.7452   24.0687 N   0  0  0  0  0  0  0  0  0  0  0  0
   12.1006   14.0734   23.6038 C   0  0  0  0  0  0  0  0  0  0  0  0
   12.0728   15.0486   22.4160 C   0  0  0  0  0  0  0  0  0  0  0  0
   11.1324   14.5922   21.3887 N   0  0  0  0  0  0  0  0  0  0  0  0
   11.7606   14.5107   20.0854 C   0  0  0  0  0  0  0  0  0  0  0  0
    9.8656   15.3075   21.4805 C   0  0  2  0  0  0  0  0  0  0  0  0
    8.6447   14.3972   21.4465 C   0  0  0  0  0  0  0  0  0  0  0  0
    9.6873   16.5042   20.6097 C   0  0  0  0  0  0  0  0  0  0  0  0
    9.8829   16.4137   19.1470 C   0  0  0  0  0  0  0  0  0  0  0  0
   10.1818   17.7875   21.1418 C   0  0  0  0  0  0  0  0  0  0  0  0
    8.7264   17.5196   21.1840 C   0  0  0  0  0  0  0  0  0  0  0  0
    7.3500   14.4029   25.4532 C   0  0  0  0  0  0  0  0  0  0  0  0
    6.2537   13.5905   25.7259 C   0  0  0  0  0  0  0  0  0  0  0  0
    6.3185   12.2153   25.5002 C   0  0  0  0  0  0  0  0  0  0  0  0
    4.9915   11.2817   26.0659 Cl  0  0  0  0  0  0  0  0  0  0  0  0
  1  2  1  0
  2  3  1  0
  3  4  2  0
  3  5  1  0
  5  6  2  0
  6  7  1  0
  7  8  1  0
  8  9  2  0
  8 10  1  0
 10 11  1  0
 11 12  1  0
 12 13  1  0
 13 14  1  0
 13 15  1  0
 15 16  1  6
 15 17  1  0
 17 18  1  0
 17 19  1  0
 19 20  1  0
  7 21  2  0
 21 22  1  0
 22 23  2  0
 23 24  1  0
 23  5  1  0
 20 17  1  0
M  END
>  <energy_score>  (1900) 
-4.036711

>  <inchikey>  (1900) 
YHSNYZGUCJZJKR-UHFFFAOYSA-N

>  <smiles>  (1900) 
CNC(=O)c1nc(C(=O)NCCN(C)C(C)C2(C)CC2)ccc1Cl

>  <ref_pdb>  (1900) 
A3181a

>  <alias>  (1900) 
YHSNYZGUCJZJKR-UHFFFAOYSA-N-P198-P144-P198-601509

>  <HIPPO Pose ID>  (1900) 
515041

>  <name>  (1900) 
YHSNYZGUCJZJKR-UHFFFAOYSA-N-P198-P144-P198-601509

>  <HIPPO Compound ID>  (1900) 
294238

>  <ref_mols>  (1900) 
A3181a,A3618a

>  <distance_score>  (1900) 
1.729592

>  <inspiration_score>  (1900) 
None

$$$$
UFTVCNKEZCUIJN-UHFFFAOYSA-N-P239-P120-P239-601509
     RDKit          3D

 21 24  0  0  0  0  0  0  0  0999 V2000
    7.8635   15.0789   26.2249 O   0  0  0  0  0  0  0  0  0  0  0  0
    8.6036   14.5254   25.5123 C   0  0  0  0  0  0  0  0  0  0  0  0
    9.7737   15.2376   24.9258 C   0  0  0  0  0  0  0  0  0  0  0  0
   10.0825   15.2791   23.6177 C   0  0  0  0  0  0  0  0  0  0  0  0
   11.3132   15.9872   23.0926 C   0  0  2  0  0  0  0  0  0  0  0  0
   10.9645   16.9385   21.9369 C   0  0  0  0  0  0  0  0  0  0  0  0
   10.2586   16.2254   20.7903 C   0  0  1  0  0  0  0  0  0  0  0  0
   11.1990   15.1610   20.2365 C   0  0  0  0  0  0  0  0  0  0  0  0
   11.5661   14.1984   21.3680 C   0  0  1  0  0  0  0  0  0  0  0  0
   12.2617   14.9370   22.5224 C   0  0  0  0  0  0  0  0  0  0  0  0
   10.2674   13.5800   21.9108 C   0  0  0  0  0  0  0  0  0  0  0  0
    9.3239   14.6203   22.4993 C   0  0  2  0  0  0  0  0  0  0  0  0
    8.9799   15.6259   21.3959 C   0  0  0  0  0  0  0  0  0  0  0  0
    8.6195   13.0506   25.0265 N   0  0  0  0  0  0  0  0  0  0  0  0
    7.8085   11.9690   25.3827 C   0  0  0  0  0  0  0  0  0  0  0  0
    8.1553   10.6727   25.0337 C   0  0  0  0  0  0  0  0  0  0  0  0
    7.4521    9.5730   25.4092 N   0  0  0  0  0  0  0  0  0  0  0  0
    6.3363    9.7743   26.1419 C   0  0  0  0  0  0  0  0  0  0  0  0
    5.8803   11.0164   26.5005 C   0  0  0  0  0  0  0  0  0  0  0  0
    6.6251   12.1088   26.0937 C   0  0  0  0  0  0  0  0  0  0  0  0
    6.1299   13.3110   26.3750 F   0  0  0  0  0  0  0  0  0  0  0  0
  1  2  2  0
  2  3  1  0
  3  4  2  3
  4  5  1  0
  5  6  1  6
  7  6  1  1
  7  8  1  0
  9  8  1  6
  9 10  1  0
  9 11  1  0
 12 11  1  6
 12 13  1  0
  2 14  1  0
 14 15  1  0
 15 16  2  0
 16 17  1  0
 17 18  2  0
 18 19  1  0
 19 20  2  0
 20 21  1  0
 12  4  1  0
 20 15  1  0
 10  5  1  0
 13  7  1  0
M  END
>  <energy_score>  (1901) 
-12.709852

>  <inchikey>  (1901) 
UFTVCNKEZCUIJN-UHFFFAOYSA-N

>  <smiles>  (1901) 
O=C(C=C1C2CC3CC(C2)CC1C3)Nc1cnccc1F

>  <ref_pdb>  (1901) 
A3181a

>  <alias>  (1901) 
UFTVCNKEZCUIJN-UHFFFAOYSA-N-P239-P120-P239-601509

>  <HIPPO Pose ID>  (1901) 
515169

>  <name>  (1901) 
UFTVCNKEZCUIJN-UHFFFAOYSA-N-P239-P120-P239-601509

>  <HIPPO Compound ID>  (1901) 
293585

>  <ref_mols>  (1901) 
A1445a,A3920a

>  <distance_score>  (1901) 
1.631021

>  <inspiration_score>  (1901) 
None

$$$$
LNZBSQNIVZPJEF-UHFFFAOYSA-N-P239-P120-P239-601509
     RDKit          3D

 22 25  0  0  0  0  0  0  0  0999 V2000
    9.5895   10.2545   22.9469 O   0  0  0  0  0  0  0  0  0  0  0  0
    9.4467   11.3290   23.3602 C   0  0  0  0  0  0  0  0  0  0  0  0
   10.2461   12.4166   22.7857 C   0  0  0  0  0  0  0  0  0  0  0  0
   10.1827   13.7130   22.4904 C   0  0  0  0  0  0  0  0  0  0  0  0
   11.4007   14.2975   21.7646 C   0  0  2  0  0  0  0  0  0  0  0  0
   11.9786   15.3613   22.6750 C   0  0  0  0  0  0  0  0  0  0  0  0
   10.8835   16.3899   22.9438 C   0  0  1  0  0  0  0  0  0  0  0  0
   10.4539   17.0160   21.6078 C   0  0  0  0  0  0  0  0  0  0  0  0
    9.8835   15.9506   20.6719 C   0  0  1  0  0  0  0  0  0  0  0  0
   10.9735   14.9122   20.4291 C   0  0  0  0  0  0  0  0  0  0  0  0
    8.6655   15.3330   21.3951 C   0  0  0  0  0  0  0  0  0  0  0  0
    9.0743   14.6950   22.7275 C   0  0  2  0  0  0  0  0  0  0  0  0
    9.6630   15.7643   23.6323 C   0  0  0  0  0  0  0  0  0  0  0  0
    8.4942   11.8598   24.4188 N   0  0  0  0  0  0  0  0  0  0  0  0
    7.6102   11.1998   25.2351 C   0  0  0  0  0  0  0  0  0  0  0  0
    7.5748    9.8187   25.2253 C   0  0  0  0  0  0  0  0  0  0  0  0
    6.6386    9.1062   25.8740 N   0  0  0  0  0  0  0  0  0  0  0  0
    5.7262    9.7931   26.5890 C   0  0  0  0  0  0  0  0  0  0  0  0
    5.6912   11.1737   26.6549 C   0  0  0  0  0  0  0  0  0  0  0  0
    4.3009   12.0224   27.5923 Br  0  0  0  0  0  0  0  0  0  0  0  0
    6.6637   11.8882   25.9701 C   0  0  0  0  0  0  0  0  0  0  0  0
    6.6899   13.2523   25.9250 O   0  0  0  0  0  0  0  0  0  0  0  0
  1  2  2  0
  2  3  1  0
  3  4  2  3
  4  5  1  0
  5  6  1  1
  7  6  1  6
  7  8  1  0
  9  8  1  1
  9 10  1  0
  9 11  1  0
 12 11  1  6
 12 13  1  0
  2 14  1  0
 14 15  1  0
 15 16  2  0
 16 17  1  0
 17 18  2  0
 18 19  1  0
 19 20  1  0
 19 21  2  0
 21 22  1  0
 12  4  1  0
 21 15  1  0
 10  5  1  0
 13  7  1  0
M  END
>  <energy_score>  (1902) 
-11.864812

>  <inchikey>  (1902) 
LNZBSQNIVZPJEF-UHFFFAOYSA-N

>  <smiles>  (1902) 
O=C(C=C1C2CC3CC(C2)CC1C3)Nc1cncc(Br)c1O

>  <ref_pdb>  (1902) 
A3181a

>  <alias>  (1902) 
LNZBSQNIVZPJEF-UHFFFAOYSA-N-P239-P120-P239-601509

>  <HIPPO Pose ID>  (1902) 
515209

>  <name>  (1902) 
LNZBSQNIVZPJEF-UHFFFAOYSA-N-P239-P120-P239-601509

>  <HIPPO Compound ID>  (1902) 
293605

>  <ref_mols>  (1902) 
A1445a,A3920a

>  <distance_score>  (1902) 
1.989732

>  <inspiration_score>  (1902) 
None

$$$$
LSLMHDPWRQLVIY-UHFFFAOYSA-N-P339-P198-P339-601509
     RDKit          3D

 19 21  0  0  0  0  0  0  0  0999 V2000
    9.5176   15.9908   20.7749 C   0  0  0  0  0  0  0  0  0  0  0  0
    9.9838   15.1063   21.9294 C   0  0  1  0  0  0  0  0  0  0  0  0
   10.9704   14.2412   21.3647 O   0  0  0  0  0  0  0  0  0  0  0  0
   10.7254   16.0304   22.9279 C   0  0  0  0  0  0  0  0  0  0  0  0
   11.8282   15.3528   23.5414 O   0  0  0  0  0  0  0  0  0  0  0  0
    8.6353   14.4497   22.5165 C   0  0  0  0  0  0  0  0  0  0  0  0
    7.7975   14.0399   21.7875 O   0  0  0  0  0  0  0  0  0  0  0  0
    8.6464   14.5718   24.0448 N   0  0  0  0  0  0  0  0  0  0  0  0
    7.5436   14.2993   25.0767 C   0  0  0  0  0  0  0  0  0  0  0  0
    6.1287   13.8763   24.7041 C   0  0  0  0  0  0  0  0  0  0  0  0
    6.3912   15.2995   25.0052 C   0  0  0  0  0  0  0  0  0  0  0  0
    9.2488   13.2139   24.7464 C   0  0  2  0  0  0  0  0  0  0  0  0
   10.6396   12.7879   24.1337 C   0  0  0  0  0  0  0  0  0  0  0  0
   10.9073   11.3304   24.1869 N   0  0  0  0  0  0  0  0  0  0  0  0
   10.5282   10.8745   25.5041 C   0  0  0  0  0  0  0  0  0  0  0  0
    9.0357   10.9972   25.7824 C   0  0  0  0  0  0  0  0  0  0  0  0
    8.4195   11.8776   24.7494 C   0  0  0  0  0  0  0  0  0  0  0  0
    8.6087   11.0800   23.5037 C   0  0  0  0  0  0  0  0  0  0  0  0
   10.0290   10.6530   23.2365 C   0  0  0  0  0  0  0  0  0  0  0  0
  2  1  1  6
  2  3  1  0
  2  4  1  0
  4  5  1  0
  2  6  1  0
  6  7  2  0
  6  8  1  0
  8  9  1  0
  9 10  1  0
 10 11  1  0
 12  8  1  6
 12 13  1  0
 13 14  1  0
 14 15  1  0
 15 16  1  0
 16 17  1  0
 17 18  1  0
 18 19  1  0
 11  9  1  0
 17 12  1  0
 19 14  1  0
M  END
>  <energy_score>  (1903) 
-7.693214

>  <inchikey>  (1903) 
LSLMHDPWRQLVIY-UHFFFAOYSA-N

>  <smiles>  (1903) 
CC(O)(CO)C(=O)N(C1CC1)C1CN2CCC1CC2

>  <ref_pdb>  (1903) 
A3181a

>  <alias>  (1903) 
LSLMHDPWRQLVIY-UHFFFAOYSA-N-P339-P198-P339-601509

>  <HIPPO Pose ID>  (1903) 
515579

>  <name>  (1903) 
LSLMHDPWRQLVIY-UHFFFAOYSA-N-P339-P198-P339-601509

>  <HIPPO Compound ID>  (1903) 
303163

>  <ref_mols>  (1903) 
A4237b,A3618a

>  <distance_score>  (1903) 
1.975822

>  <inspiration_score>  (1903) 
None

$$$$
KSLQTJAMFMHYJK-UHFFFAOYSA-N-P103-P12-P103-601509
     RDKit          3D

 24 27  0  0  0  0  0  0  0  0999 V2000
   19.7399   -9.2681   17.6780 C   0  0  0  0  0  0  0  0  0  0  0  0
   20.0092   -7.8644   17.2292 C   0  0  0  0  0  0  0  0  0  0  0  0
   20.0334   -7.5624   15.8805 C   0  0  0  0  0  0  0  0  0  0  0  0
   20.4608   -6.3018   15.5056 C   0  0  0  0  0  0  0  0  0  0  0  0
   20.8071   -5.3749   16.4828 C   0  0  0  0  0  0  0  0  0  0  0  0
   20.6716   -5.6988   17.8312 C   0  0  0  0  0  0  0  0  0  0  0  0
   20.8647   -4.7497   18.8366 N   0  0  0  0  0  0  0  0  0  0  0  0
   20.5221   -3.3370   18.5813 C   0  0  0  0  0  0  0  0  0  0  0  0
   19.7652   -2.8775   19.8348 C   0  0  0  0  0  0  0  0  0  0  0  0
   19.1987   -4.1660   20.4317 C   0  0  1  0  0  0  0  0  0  0  0  0
   17.9050   -4.6572   19.9151 N   0  0  0  0  0  0  0  0  0  0  0  0
   17.6113   -4.3573   18.5128 C   0  0  0  0  0  0  0  0  0  0  0  0
   16.2772   -4.8647   18.0691 C   0  0  0  0  0  0  0  0  0  0  0  0
   15.2137   -3.9688   17.7971 C   0  0  0  0  0  0  0  0  0  0  0  0
   13.9606   -4.3583   17.2577 C   0  0  0  0  0  0  0  0  0  0  0  0
   13.6364   -5.6922   16.9579 C   0  0  0  0  0  0  0  0  0  0  0  0
   14.6259   -6.6239   17.2824 C   0  0  0  0  0  0  0  0  0  0  0  0
   14.6247   -7.9617   17.1436 N   0  0  0  0  0  0  0  0  0  0  0  0
   15.7906   -8.3484   17.6940 N   0  0  0  0  0  0  0  0  0  0  0  0
   16.0516   -9.7574   17.8500 C   0  0  0  0  0  0  0  0  0  0  0  0
   16.6086   -7.3224   18.0637 C   0  0  0  0  0  0  0  0  0  0  0  0
   15.8881   -6.1872   17.8142 C   0  0  0  0  0  0  0  0  0  0  0  0
   20.3816   -5.1257   20.1722 C   0  0  0  0  0  0  0  0  0  0  0  0
   20.3232   -6.9604   18.1870 N   0  0  0  0  0  0  0  0  0  0  0  0
  1  2  1  0
  2  3  2  0
  3  4  1  0
  4  5  2  0
  5  6  1  0
  6  7  1  0
  7  8  1  0
  8  9  1  0
  9 10  1  0
 10 11  1  6
 11 12  1  0
 12 13  1  0
 13 14  2  0
 14 15  1  0
 15 16  2  0
 16 17  1  0
 17 18  2  0
 18 19  1  0
 19 20  1  0
 19 21  1  0
 21 22  2  0
 10 23  1  0
  6 24  2  0
 24  2  1  0
 23  7  1  0
 22 13  1  0
 22 17  1  0
M  END
>  <energy_score>  (1904) 
-38.016751

>  <inchikey>  (1904) 
KSLQTJAMFMHYJK-UHFFFAOYSA-N

>  <smiles>  (1904) 
Cc1cccc(N2CCC(NCc3cccc4nn(C)cc34)C2)n1

>  <ref_pdb>  (1904) 
A3181a

>  <alias>  (1904) 
KSLQTJAMFMHYJK-UHFFFAOYSA-N-P103-P12-P103-601509

>  <HIPPO Pose ID>  (1904) 
516031

>  <name>  (1904) 
KSLQTJAMFMHYJK-UHFFFAOYSA-N-P103-P12-P103-601509

>  <HIPPO Compound ID>  (1904) 
293401

>  <ref_mols>  (1904) 
A0497a,A1105b

>  <distance_score>  (1904) 
1.478558

>  <inspiration_score>  (1904) 
None

$$$$
AXUXFPFYRSBSAT-UHFFFAOYSA-N-P103-P12-P103-601509
     RDKit          3D

 24 27  0  0  0  0  0  0  0  0999 V2000
   15.5457   -7.3631   17.7870 C   0  0  0  0  0  0  0  0  0  0  0  0
   16.7905   -7.4987   17.0676 N   0  0  0  0  0  0  0  0  0  0  0  0
   17.9102   -6.7383   17.2473 C   0  0  0  0  0  0  0  0  0  0  0  0
   18.7809   -7.1523   16.2736 C   0  0  0  0  0  0  0  0  0  0  0  0
   20.0476   -6.6183   15.9916 C   0  0  0  0  0  0  0  0  0  0  0  0
   20.7056   -5.4366   16.6348 C   0  0  0  0  0  0  0  0  0  0  0  0
   22.1390   -5.6364   16.8839 N   0  0  0  0  0  0  0  0  0  0  0  0
   22.8162   -4.4942   17.5433 C   0  0  1  0  0  0  0  0  0  0  0  0
   22.7030   -3.1416   16.8360 C   0  0  0  0  0  0  0  0  0  0  0  0
   21.4436   -2.4943   17.4190 C   0  0  0  0  0  0  0  0  0  0  0  0
   21.3006   -3.0950   18.7470 N   0  0  0  0  0  0  0  0  0  0  0  0
   20.1015   -3.2667   19.4099 C   0  0  0  0  0  0  0  0  0  0  0  0
   20.1883   -3.8285   20.6458 N   0  0  0  0  0  0  0  0  0  0  0  0
   19.0659   -4.0250   21.3624 C   0  0  0  0  0  0  0  0  0  0  0  0
   17.8082   -3.7045   20.9052 C   0  0  0  0  0  0  0  0  0  0  0  0
   17.6910   -3.1607   19.6367 C   0  0  0  0  0  0  0  0  0  0  0  0
   18.8443   -2.9183   18.8994 C   0  0  0  0  0  0  0  0  0  0  0  0
   18.6949   -2.3580   17.6945 F   0  0  0  0  0  0  0  0  0  0  0  0
   22.3085   -4.1416   18.9603 C   0  0  0  0  0  0  0  0  0  0  0  0
   20.6113   -7.2531   14.8548 C   0  0  0  0  0  0  0  0  0  0  0  0
   19.9835   -8.3015   14.1205 C   0  0  0  0  0  0  0  0  0  0  0  0
   18.7120   -8.8183   14.4416 C   0  0  0  0  0  0  0  0  0  0  0  0
   18.1067   -8.2037   15.5495 C   0  0  0  0  0  0  0  0  0  0  0  0
   16.9005   -8.4326   16.0993 N   0  0  0  0  0  0  0  0  0  0  0  0
  1  2  1  0
  2  3  1  0
  3  4  2  0
  4  5  1  0
  5  6  1  0
  6  7  1  0
  8  7  1  6
  8  9  1  0
  9 10  1  0
 10 11  1  0
 11 12  1  0
 12 13  2  0
 13 14  1  0
 14 15  2  0
 15 16  1  0
 16 17  2  0
 17 18  1  0
 11 19  1  0
  5 20  2  0
 20 21  1  0
 21 22  2  0
 22 23  1  0
 23 24  2  0
 24  2  1  0
 23  4  1  0
 19  8  1  0
 17 12  1  0
M  END
>  <energy_score>  (1905) 
-32.916175

>  <inchikey>  (1905) 
AXUXFPFYRSBSAT-UHFFFAOYSA-N

>  <smiles>  (1905) 
Cn1cc2c(CNC3CCN(c4ncccc4F)C3)cccc2n1

>  <ref_pdb>  (1905) 
A3181a

>  <alias>  (1905) 
AXUXFPFYRSBSAT-UHFFFAOYSA-N-P103-P12-P103-601509

>  <HIPPO Pose ID>  (1905) 
516035

>  <name>  (1905) 
AXUXFPFYRSBSAT-UHFFFAOYSA-N-P103-P12-P103-601509

>  <HIPPO Compound ID>  (1905) 
293403

>  <ref_mols>  (1905) 
A0497a,A1105b

>  <distance_score>  (1905) 
1.124089

>  <inspiration_score>  (1905) 
None

$$$$
PUWSDQLCNKPPNX-UHFFFAOYSA-N-P103-P12-P103-601509
     RDKit          3D

 24 27  0  0  0  0  0  0  0  0999 V2000
   18.7132   -8.2996   17.0436 C   0  0  0  0  0  0  0  0  0  0  0  0
   19.5426   -7.0800   16.8591 C   0  0  0  0  0  0  0  0  0  0  0  0
   19.9703   -6.7469   15.5869 C   0  0  0  0  0  0  0  0  0  0  0  0
   20.8144   -5.6618   15.4456 C   0  0  0  0  0  0  0  0  0  0  0  0
   21.1622   -4.9227   16.5679 C   0  0  0  0  0  0  0  0  0  0  0  0
   20.6582   -5.2771   17.8178 C   0  0  0  0  0  0  0  0  0  0  0  0
   20.9379   -4.4734   18.9408 N   0  0  0  0  0  0  0  0  0  0  0  0
   20.4160   -3.0978   18.7951 C   0  0  0  0  0  0  0  0  0  0  0  0
   19.5175   -2.8798   20.0159 C   0  0  0  0  0  0  0  0  0  0  0  0
   19.0898   -4.2912   20.4394 C   0  0  1  0  0  0  0  0  0  0  0  0
   18.0162   -4.9800   19.6871 N   0  0  0  0  0  0  0  0  0  0  0  0
   17.2589   -4.1278   18.7779 C   0  0  0  0  0  0  0  0  0  0  0  0
   16.0438   -4.7696   18.1378 C   0  0  0  0  0  0  0  0  0  0  0  0
   15.0852   -3.8618   17.6482 C   0  0  0  0  0  0  0  0  0  0  0  0
   13.9199   -4.2785   17.0338 C   0  0  0  0  0  0  0  0  0  0  0  0
   13.6425   -5.6304   16.8885 C   0  0  0  0  0  0  0  0  0  0  0  0
   14.5502   -6.5486   17.4096 C   0  0  0  0  0  0  0  0  0  0  0  0
   15.7294   -6.1490   18.0310 C   0  0  0  0  0  0  0  0  0  0  0  0
   16.2478   -7.3624   18.5377 C   0  0  0  0  0  0  0  0  0  0  0  0
   15.5636   -8.4466   18.1592 N   0  0  0  0  0  0  0  0  0  0  0  0
   14.5136   -7.9162   17.5083 N   0  0  0  0  0  0  0  0  0  0  0  0
   13.4561   -8.7894   17.0635 C   0  0  0  0  0  0  0  0  0  0  0  0
   20.4427   -5.0143   20.2249 C   0  0  0  0  0  0  0  0  0  0  0  0
   19.8811   -6.3742   17.9622 N   0  0  0  0  0  0  0  0  0  0  0  0
  1  2  1  0
  2  3  2  0
  3  4  1  0
  4  5  2  0
  5  6  1  0
  6  7  1  0
  7  8  1  0
  8  9  1  0
  9 10  1  0
 10 11  1  6
 11 12  1  0
 12 13  1  0
 13 14  2  0
 14 15  1  0
 15 16  2  0
 16 17  1  0
 17 18  2  0
 18 19  1  0
 19 20  2  0
 20 21  1  0
 21 22  1  0
 10 23  1  0
  6 24  2  0
 24  2  1  0
 23  7  1  0
 18 13  1  0
 21 17  1  0
M  END
>  <energy_score>  (1906) 
-33.842688

>  <inchikey>  (1906) 
PUWSDQLCNKPPNX-UHFFFAOYSA-N

>  <smiles>  (1906) 
Cc1cccc(N2CCC(NCc3cccc4c3cnn4C)C2)n1

>  <ref_pdb>  (1906) 
A3181a

>  <alias>  (1906) 
PUWSDQLCNKPPNX-UHFFFAOYSA-N-P103-P12-P103-601509

>  <HIPPO Pose ID>  (1906) 
516037

>  <name>  (1906) 
PUWSDQLCNKPPNX-UHFFFAOYSA-N-P103-P12-P103-601509

>  <HIPPO Compound ID>  (1906) 
293404

>  <ref_mols>  (1906) 
A0497a,A1105b

>  <distance_score>  (1906) 
1.544878

>  <inspiration_score>  (1906) 
None

$$$$
AQVAQSIXJRTWFK-UHFFFAOYSA-N-P103-P12-P103-601509
     RDKit          3D

 25 28  0  0  0  0  0  0  0  0999 V2000
   13.3972   -3.7746   16.5754 C   0  0  0  0  0  0  0  0  0  0  0  0
   14.2776   -3.9888   17.6648 N   0  0  0  0  0  0  0  0  0  0  0  0
   14.8720   -2.9333   18.2367 N   0  0  0  0  0  0  0  0  0  0  0  0
   16.0778   -3.3884   18.5120 C   0  0  0  0  0  0  0  0  0  0  0  0
   16.1843   -4.7553   18.2059 C   0  0  0  0  0  0  0  0  0  0  0  0
   17.2052   -5.6837   18.3201 C   0  0  0  0  0  0  0  0  0  0  0  0
   18.5491   -5.2198   18.7549 C   0  0  1  0  0  0  0  0  0  0  0  0
   18.8257   -3.9636   18.1575 O   0  0  0  0  0  0  0  0  0  0  0  0
   18.6511   -5.1110   20.1938 N   0  0  0  0  0  0  0  0  0  0  0  0
   20.0336   -5.0701   20.7131 C   0  0  2  0  0  0  0  0  0  0  0  0
   20.8295   -3.8220   20.3490 C   0  0  0  0  0  0  0  0  0  0  0  0
   21.6030   -4.1966   19.0809 C   0  0  0  0  0  0  0  0  0  0  0  0
   21.7268   -5.6773   19.0748 N   0  0  0  0  0  0  0  0  0  0  0  0
   21.4507   -6.3628   17.8728 C   0  0  0  0  0  0  0  0  0  0  0  0
   20.7774   -7.5458   17.9841 N   0  0  0  0  0  0  0  0  0  0  0  0
   20.1572   -8.0740   16.9045 C   0  0  0  0  0  0  0  0  0  0  0  0
   20.2106   -7.5135   15.6513 C   0  0  0  0  0  0  0  0  0  0  0  0
   21.0346   -6.4109   15.4843 C   0  0  0  0  0  0  0  0  0  0  0  0
   21.6977   -5.8528   16.5833 C   0  0  0  0  0  0  0  0  0  0  0  0
   22.8130   -4.5704   16.2458 Cl  0  0  0  0  0  0  0  0  0  0  0  0
   21.0224   -6.1903   20.2791 C   0  0  0  0  0  0  0  0  0  0  0  0
   16.8961   -7.0306   18.0419 C   0  0  0  0  0  0  0  0  0  0  0  0
   15.6312   -7.4197   17.5965 C   0  0  0  0  0  0  0  0  0  0  0  0
   14.6248   -6.4781   17.4181 C   0  0  0  0  0  0  0  0  0  0  0  0
   14.9499   -5.1633   17.7605 C   0  0  0  0  0  0  0  0  0  0  0  0
  1  2  1  0
  2  3  1  0
  3  4  2  0
  4  5  1  0
  5  6  2  0
  6  7  1  0
  7  8  1  6
  7  9  1  0
 10  9  1  6
 10 11  1  0
 11 12  1  0
 12 13  1  0
 13 14  1  0
 14 15  2  0
 15 16  1  0
 16 17  2  0
 17 18  1  0
 18 19  2  0
 19 20  1  0
 13 21  1  0
  6 22  1  0
 22 23  2  0
 23 24  1  0
 24 25  2  0
 25  2  1  0
 25  5  1  0
 21 10  1  0
 19 14  1  0
M  END
>  <energy_score>  (1907) 
-25.10862

>  <inchikey>  (1907) 
AQVAQSIXJRTWFK-UHFFFAOYSA-N

>  <smiles>  (1907) 
Cn1ncc2c(C(O)NC3CCN(c4ncccc4Cl)C3)cccc21

>  <ref_pdb>  (1907) 
A3181a

>  <alias>  (1907) 
AQVAQSIXJRTWFK-UHFFFAOYSA-N-P103-P12-P103-601509

>  <HIPPO Pose ID>  (1907) 
516061

>  <name>  (1907) 
AQVAQSIXJRTWFK-UHFFFAOYSA-N-P103-P12-P103-601509

>  <HIPPO Compound ID>  (1907) 
293416

>  <ref_mols>  (1907) 
A0497a,A1105b

>  <distance_score>  (1907) 
1.927569

>  <inspiration_score>  (1907) 
None

$$$$
GHGCNKDIIQLDRF-UHFFFAOYSA-N-P103-P12-P103-601509
     RDKit          3D

 25 28  0  0  0  0  0  0  0  0999 V2000
   19.2725   -9.5541   17.3278 C   0  0  0  0  0  0  0  0  0  0  0  0
   19.7708   -8.1691   17.0373 C   0  0  0  0  0  0  0  0  0  0  0  0
   19.9094   -7.7456   15.7288 C   0  0  0  0  0  0  0  0  0  0  0  0
   20.5076   -6.5191   15.5005 C   0  0  0  0  0  0  0  0  0  0  0  0
   20.9008   -5.7364   16.5805 C   0  0  0  0  0  0  0  0  0  0  0  0
   20.6351   -6.1597   17.8821 C   0  0  0  0  0  0  0  0  0  0  0  0
   20.8053   -5.3258   18.9883 N   0  0  0  0  0  0  0  0  0  0  0  0
   20.8547   -3.8634   18.8105 C   0  0  0  0  0  0  0  0  0  0  0  0
   20.1201   -3.2781   20.0151 C   0  0  0  0  0  0  0  0  0  0  0  0
   19.1417   -4.3688   20.4383 C   0  0  1  0  0  0  0  0  0  0  0  0
   17.7961   -4.2887   19.8437 N   0  0  0  0  0  0  0  0  0  0  0  0
   17.6993   -4.4833   18.4089 C   0  0  2  0  0  0  0  0  0  0  0  0
   18.0537   -3.2797   17.7573 O   0  0  0  0  0  0  0  0  0  0  0  0
   16.3012   -4.8736   17.9941 C   0  0  0  0  0  0  0  0  0  0  0  0
   15.3139   -3.8911   17.7788 C   0  0  0  0  0  0  0  0  0  0  0  0
   14.0583   -4.2175   17.2858 C   0  0  0  0  0  0  0  0  0  0  0  0
   13.7162   -5.5411   17.0310 C   0  0  0  0  0  0  0  0  0  0  0  0
   14.6451   -6.5317   17.3464 C   0  0  0  0  0  0  0  0  0  0  0  0
   15.9146   -6.2245   17.8176 C   0  0  0  0  0  0  0  0  0  0  0  0
   16.5091   -7.4856   18.0402 C   0  0  0  0  0  0  0  0  0  0  0  0
   15.7275   -8.5110   17.6902 N   0  0  0  0  0  0  0  0  0  0  0  0
   14.5852   -7.9017   17.3149 N   0  0  0  0  0  0  0  0  0  0  0  0
   13.4376   -8.7060   16.9757 C   0  0  0  0  0  0  0  0  0  0  0  0
   19.9623   -5.6503   20.1564 C   0  0  0  0  0  0  0  0  0  0  0  0
   20.1318   -7.4004   18.0923 N   0  0  0  0  0  0  0  0  0  0  0  0
  1  2  1  0
  2  3  2  0
  3  4  1  0
  4  5  2  0
  5  6  1  0
  6  7  1  0
  7  8  1  0
  8  9  1  0
  9 10  1  0
 10 11  1  6
 11 12  1  0
 12 13  1  6
 12 14  1  0
 14 15  2  0
 15 16  1  0
 16 17  2  0
 17 18  1  0
 18 19  2  0
 19 20  1  0
 20 21  2  0
 21 22  1  0
 22 23  1  0
 10 24  1  0
  6 25  2  0
 25  2  1  0
 24  7  1  0
 19 14  1  0
 22 18  1  0
M  END
>  <energy_score>  (1908) 
-28.81279

>  <inchikey>  (1908) 
GHGCNKDIIQLDRF-UHFFFAOYSA-N

>  <smiles>  (1908) 
Cc1cccc(N2CCC(NC(O)c3cccc4c3cnn4C)C2)n1

>  <ref_pdb>  (1908) 
A3181a

>  <alias>  (1908) 
GHGCNKDIIQLDRF-UHFFFAOYSA-N-P103-P12-P103-601509

>  <HIPPO Pose ID>  (1908) 
516063

>  <name>  (1908) 
GHGCNKDIIQLDRF-UHFFFAOYSA-N-P103-P12-P103-601509

>  <HIPPO Compound ID>  (1908) 
293417

>  <ref_mols>  (1908) 
A0497a,A1105b

>  <distance_score>  (1908) 
1.280106

>  <inspiration_score>  (1908) 
None

$$$$
AAMBYPLNGUUZQW-UHFFFAOYSA-N-P103-P12-P103-601509
     RDKit          3D

 26 29  0  0  0  0  0  0  0  0999 V2000
   18.7474   -2.8462   17.8067 C   0  0  0  0  0  0  0  0  0  0  0  0
   18.6508   -4.2409   17.9899 O   0  0  0  0  0  0  0  0  0  0  0  0
   17.6995   -4.6434   18.9462 C   0  0  2  0  0  0  0  0  0  0  0  0
   18.2383   -5.7934   19.6510 N   0  0  0  0  0  0  0  0  0  0  0  0
   19.4826   -5.6592   20.4311 C   0  0  2  0  0  0  0  0  0  0  0  0
   20.5500   -4.6224   20.0722 C   0  0  0  0  0  0  0  0  0  0  0  0
   21.3250   -5.2245   18.8844 C   0  0  0  0  0  0  0  0  0  0  0  0
   21.0867   -6.6863   18.9488 N   0  0  0  0  0  0  0  0  0  0  0  0
   20.4825   -7.2083   17.7788 C   0  0  0  0  0  0  0  0  0  0  0  0
   19.4334   -8.0541   17.9235 N   0  0  0  0  0  0  0  0  0  0  0  0
   18.7622   -8.4563   16.8167 C   0  0  0  0  0  0  0  0  0  0  0  0
   19.0503   -8.0366   15.5376 C   0  0  0  0  0  0  0  0  0  0  0  0
   20.1628   -7.2379   15.3678 C   0  0  0  0  0  0  0  0  0  0  0  0
   20.9030   -6.8647   16.4809 C   0  0  0  0  0  0  0  0  0  0  0  0
   22.0332   -6.1863   16.2568 F   0  0  0  0  0  0  0  0  0  0  0  0
   20.3469   -6.9451   20.2120 C   0  0  0  0  0  0  0  0  0  0  0  0
   16.3728   -4.9800   18.2326 C   0  0  0  0  0  0  0  0  0  0  0  0
   15.5281   -3.8974   17.8827 C   0  0  0  0  0  0  0  0  0  0  0  0
   14.2823   -4.0748   17.2869 C   0  0  0  0  0  0  0  0  0  0  0  0
   13.8031   -5.3439   17.0034 C   0  0  0  0  0  0  0  0  0  0  0  0
   14.5961   -6.4326   17.3600 C   0  0  0  0  0  0  0  0  0  0  0  0
   15.8383   -6.2821   17.9794 C   0  0  0  0  0  0  0  0  0  0  0  0
   16.1764   -7.6175   18.3159 C   0  0  0  0  0  0  0  0  0  0  0  0
   15.3522   -8.5352   17.8041 N   0  0  0  0  0  0  0  0  0  0  0  0
   14.3796   -7.7846   17.2634 N   0  0  0  0  0  0  0  0  0  0  0  0
   13.2369   -8.4511   16.6909 C   0  0  0  0  0  0  0  0  0  0  0  0
  1  2  1  0
  2  3  1  0
  3  4  1  6
  5  4  1  6
  5  6  1  0
  6  7  1  0
  7  8  1  0
  8  9  1  0
  9 10  2  0
 10 11  1  0
 11 12  2  0
 12 13  1  0
 13 14  2  0
 14 15  1  0
  8 16  1  0
  3 17  1  0
 17 18  2  0
 18 19  1  0
 19 20  2  0
 20 21  1  0
 21 22  2  0
 22 23  1  0
 23 24  2  0
 24 25  1  0
 25 26  1  0
 16  5  1  0
 22 17  1  0
 14  9  1  0
 25 21  1  0
M  END
>  <energy_score>  (1909) 
-29.209581

>  <inchikey>  (1909) 
AAMBYPLNGUUZQW-UHFFFAOYSA-N

>  <smiles>  (1909) 
COC(NC1CCN(c2ncccc2F)C1)c1cccc2c1cnn2C

>  <ref_pdb>  (1909) 
A3181a

>  <alias>  (1909) 
AAMBYPLNGUUZQW-UHFFFAOYSA-N-P103-P12-P103-601509

>  <HIPPO Pose ID>  (1909) 
516065

>  <name>  (1909) 
AAMBYPLNGUUZQW-UHFFFAOYSA-N-P103-P12-P103-601509

>  <HIPPO Compound ID>  (1909) 
293418

>  <ref_mols>  (1909) 
A0497a,A1105b

>  <distance_score>  (1909) 
1.343185

>  <inspiration_score>  (1909) 
None

$$$$
AGROORDYIMHXLJ-UHFFFAOYSA-N-P103-P12-P103-601509
     RDKit          3D

 26 29  0  0  0  0  0  0  0  0999 V2000
   13.1675   -4.0877   16.9706 C   0  0  0  0  0  0  0  0  0  0  0  0
   14.4666   -4.1217   17.5247 N   0  0  0  0  0  0  0  0  0  0  0  0
   14.9810   -2.9827   17.9898 N   0  0  0  0  0  0  0  0  0  0  0  0
   16.1673   -3.3435   18.4294 C   0  0  0  0  0  0  0  0  0  0  0  0
   16.3560   -4.7294   18.2950 C   0  0  0  0  0  0  0  0  0  0  0  0
   17.3373   -5.5956   18.7756 C   0  0  0  0  0  0  0  0  0  0  0  0
   18.4264   -4.9783   19.6103 C   0  0  2  0  0  0  0  0  0  0  0  0
   18.8779   -3.8605   18.8759 O   0  0  0  0  0  0  0  0  0  0  0  0
   19.4867   -5.9031   19.8755 N   0  0  0  0  0  0  0  0  0  0  0  0
   20.7222   -5.3766   20.4834 C   0  0  2  0  0  0  0  0  0  0  0  0
   21.1551   -3.9220   20.2797 C   0  0  0  0  0  0  0  0  0  0  0  0
   21.7711   -3.8779   18.8723 C   0  0  0  0  0  0  0  0  0  0  0  0
   22.1838   -5.2722   18.5534 N   0  0  0  0  0  0  0  0  0  0  0  0
   21.4996   -5.8537   17.4528 C   0  0  0  0  0  0  0  0  0  0  0  0
   20.2331   -5.4597   17.1751 N   0  0  0  0  0  0  0  0  0  0  0  0
   19.4992   -6.1684   16.2778 C   0  0  0  0  0  0  0  0  0  0  0  0
   19.9650   -7.2710   15.6039 C   0  0  0  0  0  0  0  0  0  0  0  0
   21.2724   -7.6557   15.8509 C   0  0  0  0  0  0  0  0  0  0  0  0
   22.0395   -6.9510   16.7763 C   0  0  0  0  0  0  0  0  0  0  0  0
   23.2782   -7.3893   17.0524 F   0  0  0  0  0  0  0  0  0  0  0  0
   21.9399   -6.0720   19.7878 C   0  0  0  0  0  0  0  0  0  0  0  0
   17.1402   -6.9732   18.5291 C   0  0  0  0  0  0  0  0  0  0  0  0
   16.0154   -7.4415   17.8409 C   0  0  0  0  0  0  0  0  0  0  0  0
   15.8270   -9.2990   17.5311 Br  0  0  0  0  0  0  0  0  0  0  0  0
   15.0141   -6.5786   17.4096 C   0  0  0  0  0  0  0  0  0  0  0  0
   15.2271   -5.2265   17.6806 C   0  0  0  0  0  0  0  0  0  0  0  0
  1  2  1  0
  2  3  1  0
  3  4  2  0
  4  5  1  0
  5  6  2  0
  6  7  1  0
  7  8  1  6
  7  9  1  0
 10  9  1  6
 10 11  1  0
 11 12  1  0
 12 13  1  0
 13 14  1  0
 14 15  2  0
 15 16  1  0
 16 17  2  0
 17 18  1  0
 18 19  2  0
 19 20  1  0
 13 21  1  0
  6 22  1  0
 22 23  2  0
 23 24  1  0
 23 25  1  0
 25 26  2  0
 26  2  1  0
 26  5  1  0
 21 10  1  0
 19 14  1  0
M  END
>  <energy_score>  (1910) 
-11.369249

>  <inchikey>  (1910) 
AGROORDYIMHXLJ-UHFFFAOYSA-N

>  <smiles>  (1910) 
Cn1ncc2c(C(O)NC3CCN(c4ncccc4F)C3)cc(Br)cc21

>  <ref_pdb>  (1910) 
A3181a

>  <alias>  (1910) 
AGROORDYIMHXLJ-UHFFFAOYSA-N-P103-P12-P103-601509

>  <HIPPO Pose ID>  (1910) 
516073

>  <name>  (1910) 
AGROORDYIMHXLJ-UHFFFAOYSA-N-P103-P12-P103-601509

>  <HIPPO Compound ID>  (1910) 
293422

>  <ref_mols>  (1910) 
A0497a,A1105b

>  <distance_score>  (1910) 
1.904481

>  <inspiration_score>  (1910) 
None

$$$$
IUGNENPJFVKWOS-UHFFFAOYSA-N-P103-P12-P103-601509
     RDKit          3D

 26 29  0  0  0  0  0  0  0  0999 V2000
   19.2396   -8.9934   16.8323 C   0  0  0  0  0  0  0  0  0  0  0  0
   19.8489   -7.6321   16.6821 C   0  0  0  0  0  0  0  0  0  0  0  0
   20.0031   -7.1099   15.4126 C   0  0  0  0  0  0  0  0  0  0  0  0
   20.7329   -5.9443   15.2743 C   0  0  0  0  0  0  0  0  0  0  0  0
   21.2291   -5.3068   16.4045 C   0  0  0  0  0  0  0  0  0  0  0  0
   20.9462   -5.8098   17.6725 C   0  0  0  0  0  0  0  0  0  0  0  0
   21.2970   -5.0826   18.8329 N   0  0  0  0  0  0  0  0  0  0  0  0
   20.9662   -3.6312   18.7626 C   0  0  0  0  0  0  0  0  0  0  0  0
   20.0491   -3.3536   19.9583 C   0  0  0  0  0  0  0  0  0  0  0  0
   19.4347   -4.7126   20.2898 C   0  0  1  0  0  0  0  0  0  0  0  0
   18.3531   -5.2348   19.4441 N   0  0  0  0  0  0  0  0  0  0  0  0
   17.4532   -4.3071   18.8300 C   0  0  1  0  0  0  0  0  0  0  0  0
   18.1272   -3.5461   17.8487 O   0  0  0  0  0  0  0  0  0  0  0  0
   16.2374   -4.9448   18.1869 C   0  0  0  0  0  0  0  0  0  0  0  0
   15.2442   -4.0077   17.7492 C   0  0  0  0  0  0  0  0  0  0  0  0
   14.0209   -4.3316   17.1277 C   0  0  0  0  0  0  0  0  0  0  0  0
   13.6557   -5.6493   16.8565 C   0  0  0  0  0  0  0  0  0  0  0  0
   14.5612   -6.6277   17.2797 C   0  0  0  0  0  0  0  0  0  0  0  0
   14.4465   -7.9538   17.1376 N   0  0  0  0  0  0  0  0  0  0  0  0
   15.4552   -8.4491   17.8630 N   0  0  0  0  0  0  0  0  0  0  0  0
   15.5193   -9.8848   18.0243 C   0  0  0  0  0  0  0  0  0  0  0  0
   16.2646   -7.5001   18.4489 C   0  0  0  0  0  0  0  0  0  0  0  0
   17.2521   -7.8977   19.4889 C   0  0  0  0  0  0  0  0  0  0  0  0
   15.8058   -6.2847   17.9539 C   0  0  0  0  0  0  0  0  0  0  0  0
   20.6996   -5.5966   20.0887 C   0  0  0  0  0  0  0  0  0  0  0  0
   20.2993   -6.9965   17.7942 N   0  0  0  0  0  0  0  0  0  0  0  0
  1  2  1  0
  2  3  2  0
  3  4  1  0
  4  5  2  0
  5  6  1  0
  6  7  1  0
  7  8  1  0
  8  9  1  0
  9 10  1  0
 10 11  1  6
 11 12  1  0
 12 13  1  6
 12 14  1  0
 14 15  2  0
 15 16  1  0
 16 17  2  0
 17 18  1  0
 18 19  2  0
 19 20  1  0
 20 21  1  0
 20 22  1  0
 22 23  1  0
 22 24  2  0
 10 25  1  0
  6 26  2  0
 26  2  1  0
 25  7  1  0
 24 14  1  0
 24 18  1  0
M  END
>  <energy_score>  (1911) 
-29.867587

>  <inchikey>  (1911) 
IUGNENPJFVKWOS-UHFFFAOYSA-N

>  <smiles>  (1911) 
Cc1cccc(N2CCC(NC(O)c3cccc4nn(C)c(C)c34)C2)n1

>  <ref_pdb>  (1911) 
A3181a

>  <alias>  (1911) 
IUGNENPJFVKWOS-UHFFFAOYSA-N-P103-P12-P103-601509

>  <HIPPO Pose ID>  (1911) 
516081

>  <name>  (1911) 
IUGNENPJFVKWOS-UHFFFAOYSA-N-P103-P12-P103-601509

>  <HIPPO Compound ID>  (1911) 
293426

>  <ref_mols>  (1911) 
A0497a,A1105b

>  <distance_score>  (1911) 
1.490506

>  <inspiration_score>  (1911) 
None

$$$$
SPCOKEYOJIRPQK-UHFFFAOYSA-N-P12-P12-P103-601509
     RDKit          3D

 26 29  0  0  0  0  0  0  0  0999 V2000
   15.4778   -7.8124   17.7155 C   0  0  0  0  0  0  0  0  0  0  0  0
   16.7647   -7.7914   17.0607 N   0  0  0  0  0  0  0  0  0  0  0  0
   17.9865   -7.8097   17.6651 C   0  0  0  0  0  0  0  0  0  0  0  0
   18.9025   -7.6905   16.6517 C   0  0  0  0  0  0  0  0  0  0  0  0
   20.3080   -7.6721   16.7738 C   0  0  0  0  0  0  0  0  0  0  0  0
   21.1277   -7.9703   18.0096 C   0  0  2  0  0  0  0  0  0  0  0  0
   20.4247   -8.8568   18.8740 O   0  0  0  0  0  0  0  0  0  0  0  0
   21.5679   -6.7745   18.7076 N   0  0  0  0  0  0  0  0  0  0  0  0
   21.8988   -7.0369   20.1246 C   0  0  1  0  0  0  0  0  0  0  0  0
   22.8887   -6.0067   20.6634 C   0  0  0  0  0  0  0  0  0  0  0  0
   22.0299   -4.7745   20.9374 C   0  0  0  0  0  0  0  0  0  0  0  0
   20.6633   -5.2944   21.1922 N   0  0  0  0  0  0  0  0  0  0  0  0
   19.6756   -4.5093   20.5900 C   0  0  0  0  0  0  0  0  0  0  0  0
   19.9769   -3.1938   20.4188 N   0  0  0  0  0  0  0  0  0  0  0  0
   19.1244   -2.4024   19.7365 C   0  0  0  0  0  0  0  0  0  0  0  0
   17.9350   -2.8437   19.2087 C   0  0  0  0  0  0  0  0  0  0  0  0
   17.5943   -4.1661   19.4012 C   0  0  0  0  0  0  0  0  0  0  0  0
   18.4367   -4.9868   20.1428 C   0  0  0  0  0  0  0  0  0  0  0  0
   18.0062   -6.2298   20.4038 F   0  0  0  0  0  0  0  0  0  0  0  0
   20.6940   -6.7622   21.0542 C   0  0  0  0  0  0  0  0  0  0  0  0
   20.8835   -7.4183   15.4912 C   0  0  0  0  0  0  0  0  0  0  0  0
   22.7794   -7.2278   15.2960 Br  0  0  0  0  0  0  0  0  0  0  0  0
   20.1440   -7.3191   14.2655 C   0  0  0  0  0  0  0  0  0  0  0  0
   18.7454   -7.4537   14.1876 C   0  0  0  0  0  0  0  0  0  0  0  0
   18.1269   -7.6193   15.4335 C   0  0  0  0  0  0  0  0  0  0  0  0
   16.8211   -7.7655   15.7164 N   0  0  0  0  0  0  0  0  0  0  0  0
  1  2  1  0
  2  3  1  0
  3  4  2  0
  4  5  1  0
  5  6  1  0
  6  7  1  1
  6  8  1  0
  9  8  1  6
  9 10  1  0
 10 11  1  0
 11 12  1  0
 12 13  1  0
 13 14  2  0
 14 15  1  0
 15 16  2  0
 16 17  1  0
 17 18  2  0
 18 19  1  0
 12 20  1  0
  5 21  2  0
 21 22  1  0
 21 23  1  0
 23 24  2  0
 24 25  1  0
 25 26  2  0
 26  2  1  0
 25  4  1  0
 20  9  1  0
 18 13  1  0
M  END
>  <energy_score>  (1912) 
-59.183205

>  <inchikey>  (1912) 
SPCOKEYOJIRPQK-UHFFFAOYSA-N

>  <smiles>  (1912) 
Cn1cc2c(C(O)NC3CCN(c4ncccc4F)C3)c(Br)ccc2n1

>  <ref_pdb>  (1912) 
A3181a

>  <alias>  (1912) 
SPCOKEYOJIRPQK-UHFFFAOYSA-N-P12-P12-P103-601509

>  <HIPPO Pose ID>  (1912) 
516084

>  <name>  (1912) 
SPCOKEYOJIRPQK-UHFFFAOYSA-N-P12-P12-P103-601509

>  <HIPPO Compound ID>  (1912) 
293428

>  <ref_mols>  (1912) 
A0497a,A1105b

>  <distance_score>  (1912) 
0.956004

>  <inspiration_score>  (1912) 
None

$$$$
TURKHCRTUPZTLB-UHFFFAOYSA-N-P12-P12-P103-601509
     RDKit          3D

 26 29  0  0  0  0  0  0  0  0999 V2000
   19.3262   -9.5474   16.4848 C   0  0  0  0  0  0  0  0  0  0  0  0
   19.8859   -8.1602   16.5587 C   0  0  0  0  0  0  0  0  0  0  0  0
   20.1134   -7.4595   15.3892 C   0  0  0  0  0  0  0  0  0  0  0  0
   20.8079   -6.2674   15.4707 C   0  0  0  0  0  0  0  0  0  0  0  0
   21.1874   -5.7835   16.7167 C   0  0  0  0  0  0  0  0  0  0  0  0
   20.8219   -6.4669   17.8749 C   0  0  0  0  0  0  0  0  0  0  0  0
   21.0049   -5.9050   19.1427 N   0  0  0  0  0  0  0  0  0  0  0  0
   20.9217   -4.4355   19.2760 C   0  0  0  0  0  0  0  0  0  0  0  0
   20.1863   -4.1812   20.5907 C   0  0  0  0  0  0  0  0  0  0  0  0
   19.3302   -5.4300   20.8048 C   0  0  1  0  0  0  0  0  0  0  0  0
   17.9388   -5.3900   20.3053 N   0  0  0  0  0  0  0  0  0  0  0  0
   17.7684   -5.1795   18.8737 C   0  0  2  0  0  0  0  0  0  0  0  0
   18.0072   -3.8067   18.6963 O   0  0  0  0  0  0  0  0  0  0  0  0
   16.4128   -5.6385   18.3474 C   0  0  0  0  0  0  0  0  0  0  0  0
   15.2629   -4.8257   18.0735 C   0  0  0  0  0  0  0  0  0  0  0  0
   15.3233   -2.9799   18.4173 Br  0  0  0  0  0  0  0  0  0  0  0  0
   14.0273   -5.2556   17.4762 C   0  0  0  0  0  0  0  0  0  0  0  0
   13.7700   -6.5856   17.1263 C   0  0  0  0  0  0  0  0  0  0  0  0
   14.8135   -7.4486   17.4683 C   0  0  0  0  0  0  0  0  0  0  0  0
   14.8690   -8.7851   17.3431 N   0  0  0  0  0  0  0  0  0  0  0  0
   16.0247   -9.1286   17.9366 N   0  0  0  0  0  0  0  0  0  0  0  0
   16.3156  -10.5279   18.1352 C   0  0  0  0  0  0  0  0  0  0  0  0
   16.7939   -8.0739   18.3254 C   0  0  0  0  0  0  0  0  0  0  0  0
   16.0511   -6.9606   18.0442 C   0  0  0  0  0  0  0  0  0  0  0  0
   20.2482   -6.5378   20.2387 C   0  0  0  0  0  0  0  0  0  0  0  0
   20.2364   -7.6848   17.7768 N   0  0  0  0  0  0  0  0  0  0  0  0
  1  2  1  0
  2  3  2  0
  3  4  1  0
  4  5  2  0
  5  6  1  0
  6  7  1  0
  7  8  1  0
  8  9  1  0
  9 10  1  0
 10 11  1  6
 11 12  1  0
 12 13  1  1
 12 14  1  0
 14 15  2  0
 15 16  1  0
 15 17  1  0
 17 18  2  0
 18 19  1  0
 19 20  2  0
 20 21  1  0
 21 22  1  0
 21 23  1  0
 23 24  2  0
 10 25  1  0
  6 26  2  0
 26  2  1  0
 25  7  1  0
 24 14  1  0
 24 19  1  0
M  END
>  <energy_score>  (1913) 
-36.393521

>  <inchikey>  (1913) 
TURKHCRTUPZTLB-UHFFFAOYSA-N

>  <smiles>  (1913) 
Cc1cccc(N2CCC(NC(O)c3c(Br)ccc4nn(C)cc34)C2)n1

>  <ref_pdb>  (1913) 
A3181a

>  <alias>  (1913) 
TURKHCRTUPZTLB-UHFFFAOYSA-N-P12-P12-P103-601509

>  <HIPPO Pose ID>  (1913) 
516088

>  <name>  (1913) 
TURKHCRTUPZTLB-UHFFFAOYSA-N-P12-P12-P103-601509

>  <HIPPO Compound ID>  (1913) 
293430

>  <ref_mols>  (1913) 
A0497a,A1105b

>  <distance_score>  (1913) 
1.436355

>  <inspiration_score>  (1913) 
None

$$$$
UWUYRHHVQIKSGI-UHFFFAOYSA-N-P103-P12-P103-601509
     RDKit          3D

 26 30  0  0  0  0  0  0  0  0999 V2000
   16.0437   -7.5515   18.2266 C   0  0  0  0  0  0  0  0  0  0  0  0
   17.1724   -7.6058   17.3289 N   0  0  0  0  0  0  0  0  0  0  0  0
   18.4277   -7.1213   17.5722 C   0  0  0  0  0  0  0  0  0  0  0  0
   19.1327   -7.3647   16.4225 C   0  0  0  0  0  0  0  0  0  0  0  0
   20.4714   -7.0338   16.1576 C   0  0  0  0  0  0  0  0  0  0  0  0
   21.4916   -6.3517   17.0384 C   0  0  0  0  0  0  0  0  0  0  0  0
   22.0241   -5.1460   16.3904 N   0  0  0  0  0  0  0  0  0  0  0  0
   20.9577   -4.1084   16.2895 C   0  0  0  0  0  0  0  0  0  0  0  0
   21.5389   -2.9021   17.0353 C   0  0  2  0  0  0  0  0  0  0  0  0
   22.9969   -3.0236   16.5730 C   0  0  0  0  0  0  0  0  0  0  0  0
   23.1242   -4.4444   17.1243 C   0  0  1  0  0  0  0  0  0  0  0  0
   22.8088   -4.1379   18.6093 C   0  0  0  0  0  0  0  0  0  0  0  0
   21.6646   -3.1951   18.4854 N   0  0  0  0  0  0  0  0  0  0  0  0
   20.6347   -3.4614   19.3519 C   0  0  0  0  0  0  0  0  0  0  0  0
   19.2795   -3.2678   19.0875 C   0  0  0  0  0  0  0  0  0  0  0  0
   18.3256   -3.6461   20.0466 C   0  0  0  0  0  0  0  0  0  0  0  0
   18.7679   -4.1717   21.2532 C   0  0  0  0  0  0  0  0  0  0  0  0
   17.6809   -4.6554   22.6932 Br  0  0  0  0  0  0  0  0  0  0  0  0
   20.1176   -4.3006   21.4558 C   0  0  0  0  0  0  0  0  0  0  0  0
   21.0312   -3.9542   20.5455 N   0  0  0  0  0  0  0  0  0  0  0  0
   20.8086   -7.4011   14.8257 C   0  0  0  0  0  0  0  0  0  0  0  0
   19.9149   -8.0264   13.9081 C   0  0  0  0  0  0  0  0  0  0  0  0
   20.5532   -8.4167   12.1607 Br  0  0  0  0  0  0  0  0  0  0  0  0
   18.5888   -8.3721   14.2156 C   0  0  0  0  0  0  0  0  0  0  0  0
   18.2079   -8.0125   15.5156 C   0  0  0  0  0  0  0  0  0  0  0  0
   17.0240   -8.1900   16.1249 N   0  0  0  0  0  0  0  0  0  0  0  0
  1  2  1  0
  2  3  1  0
  3  4  2  0
  4  5  1  0
  5  6  1  0
  6  7  1  0
  7  8  1  0
  9  8  1  6
  9 10  1  0
 10 11  1  0
 11 12  1  1
 12 13  1  0
 13 14  1  0
 14 15  2  0
 15 16  1  0
 16 17  2  0
 17 18  1  0
 17 19  1  0
 19 20  2  0
  5 21  2  0
 21 22  1  0
 22 23  1  0
 22 24  2  0
 24 25  1  0
 25 26  2  0
 26  2  1  0
 25  4  1  0
 11  7  1  0
 20 14  1  0
 13  9  1  0
M  END
>  <energy_score>  (1914) 
-42.389629

>  <inchikey>  (1914) 
UWUYRHHVQIKSGI-UHFFFAOYSA-N

>  <smiles>  (1914) 
Cn1cc2c(CN3CC4CC3CN4c3ccc(Br)cn3)cc(Br)cc2n1

>  <ref_pdb>  (1914) 
A3181a

>  <alias>  (1914) 
UWUYRHHVQIKSGI-UHFFFAOYSA-N-P103-P12-P103-601509

>  <HIPPO Pose ID>  (1914) 
516091

>  <name>  (1914) 
UWUYRHHVQIKSGI-UHFFFAOYSA-N-P103-P12-P103-601509

>  <HIPPO Compound ID>  (1914) 
293431

>  <ref_mols>  (1914) 
A0497a,A1105b

>  <distance_score>  (1914) 
1.342804

>  <inspiration_score>  (1914) 
None

$$$$
DZPUMAFRPFGSDQ-UHFFFAOYSA-N-P103-P12-P103-601509
     RDKit          3D

 26 29  0  0  0  0  0  0  0  0999 V2000
   13.1357   -4.1117   16.9976 C   0  0  0  0  0  0  0  0  0  0  0  0
   14.4676   -4.1927   17.4572 N   0  0  0  0  0  0  0  0  0  0  0  0
   15.1000   -3.0552   17.7409 N   0  0  0  0  0  0  0  0  0  0  0  0
   16.3012   -3.4609   18.0957 C   0  0  0  0  0  0  0  0  0  0  0  0
   16.3667   -4.8616   18.1428 C   0  0  0  0  0  0  0  0  0  0  0  0
   17.3146   -5.7329   18.6729 C   0  0  0  0  0  0  0  0  0  0  0  0
   18.5364   -5.0879   19.2353 C   0  0  1  0  0  0  0  0  0  0  0  0
   18.1562   -4.0559   20.1185 O   0  0  0  0  0  0  0  0  0  0  0  0
   19.4388   -5.9143   19.9810 N   0  0  0  0  0  0  0  0  0  0  0  0
   20.8099   -5.3286   20.0895 C   0  0  2  0  0  0  0  0  0  0  0  0
   21.1402   -4.0003   19.3817 C   0  0  0  0  0  0  0  0  0  0  0  0
   21.4160   -4.3862   17.9123 C   0  0  0  0  0  0  0  0  0  0  0  0
   21.7206   -5.8436   17.9335 N   0  0  0  0  0  0  0  0  0  0  0  0
   20.8479   -6.6652   17.1859 C   0  0  0  0  0  0  0  0  0  0  0  0
   20.2798   -7.7162   17.8466 N   0  0  0  0  0  0  0  0  0  0  0  0
   19.3917   -8.5103   17.2060 C   0  0  0  0  0  0  0  0  0  0  0  0
   18.9794   -8.3091   15.9137 C   0  0  0  0  0  0  0  0  0  0  0  0
   19.5781   -7.2792   15.2151 C   0  0  0  0  0  0  0  0  0  0  0  0
   20.5342   -6.4664   15.8286 C   0  0  0  0  0  0  0  0  0  0  0  0
   21.2814   -5.3125   14.7955 Cl  0  0  0  0  0  0  0  0  0  0  0  0
   21.8564   -6.2242   19.3608 C   0  0  0  0  0  0  0  0  0  0  0  0
   16.9763   -7.0970   18.6612 C   0  0  0  0  0  0  0  0  0  0  0  0
   15.7810   -7.5570   18.0904 C   0  0  0  0  0  0  0  0  0  0  0  0
   15.4144   -9.4150   18.0899 Br  0  0  0  0  0  0  0  0  0  0  0  0
   14.8327   -6.6819   17.5719 C   0  0  0  0  0  0  0  0  0  0  0  0
   15.1601   -5.3308   17.6726 C   0  0  0  0  0  0  0  0  0  0  0  0
  1  2  1  0
  2  3  1  0
  3  4  2  0
  4  5  1  0
  5  6  2  0
  6  7  1  0
  7  8  1  1
  7  9  1  0
 10  9  1  6
 10 11  1  0
 11 12  1  0
 12 13  1  0
 13 14  1  0
 14 15  2  0
 15 16  1  0
 16 17  2  0
 17 18  1  0
 18 19  2  0
 19 20  1  0
 13 21  1  0
  6 22  1  0
 22 23  2  0
 23 24  1  0
 23 25  1  0
 25 26  2  0
 26  2  1  0
 26  5  1  0
 21 10  1  0
 19 14  1  0
M  END
>  <energy_score>  (1915) 
-16.936306

>  <inchikey>  (1915) 
DZPUMAFRPFGSDQ-UHFFFAOYSA-N

>  <smiles>  (1915) 
Cn1ncc2c(C(O)NC3CCN(c4ncccc4Cl)C3)cc(Br)cc21

>  <ref_pdb>  (1915) 
A3181a

>  <alias>  (1915) 
DZPUMAFRPFGSDQ-UHFFFAOYSA-N-P103-P12-P103-601509

>  <HIPPO Pose ID>  (1915) 
516093

>  <name>  (1915) 
DZPUMAFRPFGSDQ-UHFFFAOYSA-N-P103-P12-P103-601509

>  <HIPPO Compound ID>  (1915) 
293432

>  <ref_mols>  (1915) 
A0497a,A1105b

>  <distance_score>  (1915) 
1.859549

>  <inspiration_score>  (1915) 
None

$$$$
RISGRMLRLHPKSX-UHFFFAOYSA-N-P12-P12-P103-601509
     RDKit          3D

 26 30  0  0  0  0  0  0  0  0999 V2000
   15.9671   -8.4111   17.9375 C   0  0  0  0  0  0  0  0  0  0  0  0
   17.1396   -8.1542   17.1357 N   0  0  0  0  0  0  0  0  0  0  0  0
   18.4287   -8.0789   17.5751 C   0  0  0  0  0  0  0  0  0  0  0  0
   19.1751   -7.7742   16.4677 C   0  0  0  0  0  0  0  0  0  0  0  0
   20.5687   -7.5860   16.4044 C   0  0  0  0  0  0  0  0  0  0  0  0
   21.6182   -7.6859   17.4936 C   0  0  2  0  0  0  0  0  0  0  0  0
   21.5369   -9.0028   18.0161 O   0  0  0  0  0  0  0  0  0  0  0  0
   21.4324   -6.7204   18.5464 N   0  0  0  0  0  0  0  0  0  0  0  0
   21.4296   -5.3089   18.0715 C   0  0  0  0  0  0  0  0  0  0  0  0
   22.0223   -4.5611   19.2959 C   0  0  2  0  0  0  0  0  0  0  0  0
   23.2336   -5.4756   19.5056 C   0  0  0  0  0  0  0  0  0  0  0  0
   22.3543   -6.7073   19.7091 C   0  0  1  0  0  0  0  0  0  0  0  0
   21.5354   -6.1967   20.9368 C   0  0  0  0  0  0  0  0  0  0  0  0
   21.2090   -4.7951   20.5541 N   0  0  0  0  0  0  0  0  0  0  0  0
   19.8757   -4.4388   20.2830 C   0  0  0  0  0  0  0  0  0  0  0  0
   18.9017   -5.3929   19.9794 C   0  0  0  0  0  0  0  0  0  0  0  0
   17.7335   -5.0110   19.3438 C   0  0  0  0  0  0  0  0  0  0  0  0
   17.4718   -3.6732   19.1585 C   0  0  0  0  0  0  0  0  0  0  0  0
   15.8182   -3.1913   18.4153 Br  0  0  0  0  0  0  0  0  0  0  0  0
   18.4323   -2.7662   19.5562 C   0  0  0  0  0  0  0  0  0  0  0  0
   19.6270   -3.1211   20.0990 N   0  0  0  0  0  0  0  0  0  0  0  0
   20.9489   -7.2919   15.0619 C   0  0  0  0  0  0  0  0  0  0  0  0
   20.0572   -7.2466   13.9470 C   0  0  0  0  0  0  0  0  0  0  0  0
   18.6745   -7.4812   14.0546 C   0  0  0  0  0  0  0  0  0  0  0  0
   18.2401   -7.7360   15.3640 C   0  0  0  0  0  0  0  0  0  0  0  0
   16.9966   -7.9931   15.8069 N   0  0  0  0  0  0  0  0  0  0  0  0
  1  2  1  0
  2  3  1  0
  3  4  2  0
  4  5  1  0
  5  6  1  0
  6  7  1  1
  6  8  1  0
  8  9  1  0
 10  9  1  6
 10 11  1  0
 11 12  1  0
 12 13  1  1
 13 14  1  0
 14 15  1  0
 15 16  2  0
 16 17  1  0
 17 18  2  0
 18 19  1  0
 18 20  1  0
 20 21  2  0
  5 22  2  0
 22 23  1  0
 23 24  2  0
 24 25  1  0
 25 26  2  0
 26  2  1  0
 25  4  1  0
 12  8  1  0
 21 15  1  0
 14 10  1  0
M  END
>  <energy_score>  (1916) 
-24.338044

>  <inchikey>  (1916) 
RISGRMLRLHPKSX-UHFFFAOYSA-N

>  <smiles>  (1916) 
Cn1cc2c(C(O)N3CC4CC3CN4c3ccc(Br)cn3)cccc2n1

>  <ref_pdb>  (1916) 
A3181a

>  <alias>  (1916) 
RISGRMLRLHPKSX-UHFFFAOYSA-N-P12-P12-P103-601509

>  <HIPPO Pose ID>  (1916) 
516102

>  <name>  (1916) 
RISGRMLRLHPKSX-UHFFFAOYSA-N-P12-P12-P103-601509

>  <HIPPO Compound ID>  (1916) 
293437

>  <ref_mols>  (1916) 
A0497a,A1105b

>  <distance_score>  (1916) 
1.185253

>  <inspiration_score>  (1916) 
None

$$$$
AXXZJBBLOABIGM-UHFFFAOYSA-N-P103-P12-P103-601509
     RDKit          3D

 26 29  0  0  0  0  0  0  0  0999 V2000
   15.3427   -7.9698   17.7533 C   0  0  0  0  0  0  0  0  0  0  0  0
   16.6431   -7.8937   17.1293 N   0  0  0  0  0  0  0  0  0  0  0  0
   17.7842   -7.4051   17.6958 C   0  0  0  0  0  0  0  0  0  0  0  0
   18.7316   -7.4776   16.7078 C   0  0  0  0  0  0  0  0  0  0  0  0
   20.0710   -7.0699   16.8052 C   0  0  0  0  0  0  0  0  0  0  0  0
   20.7443   -6.5158   18.0269 C   0  0  2  0  0  0  0  0  0  0  0  0
   21.7731   -5.6319   17.6457 O   0  0  0  0  0  0  0  0  0  0  0  0
   21.3138   -7.5589   18.8530 N   0  0  0  0  0  0  0  0  0  0  0  0
   21.6239   -7.2039   20.2499 C   0  0  1  0  0  0  0  0  0  0  0  0
   22.8448   -6.3150   20.4755 C   0  0  0  0  0  0  0  0  0  0  0  0
   22.3099   -4.9078   20.7453 C   0  0  0  0  0  0  0  0  0  0  0  0
   20.8827   -5.0509   21.0855 N   0  0  0  0  0  0  0  0  0  0  0  0
   19.9757   -4.2543   20.3622 C   0  0  0  0  0  0  0  0  0  0  0  0
   20.4158   -3.6792   19.2119 N   0  0  0  0  0  0  0  0  0  0  0  0
   19.5162   -3.1334   18.3600 C   0  0  0  0  0  0  0  0  0  0  0  0
   18.1652   -3.1048   18.6041 C   0  0  0  0  0  0  0  0  0  0  0  0
   17.7218   -3.5690   19.8306 C   0  0  0  0  0  0  0  0  0  0  0  0
   18.6236   -4.1462   20.7262 C   0  0  0  0  0  0  0  0  0  0  0  0
   18.0378   -4.6885   22.2609 Cl  0  0  0  0  0  0  0  0  0  0  0  0
   20.5331   -6.4895   21.0796 C   0  0  0  0  0  0  0  0  0  0  0  0
   20.7232   -7.2446   15.5549 C   0  0  0  0  0  0  0  0  0  0  0  0
   20.0946   -7.7798   14.3884 C   0  0  0  0  0  0  0  0  0  0  0  0
   21.1303   -7.9207   12.8000 Br  0  0  0  0  0  0  0  0  0  0  0  0
   18.7563   -8.2141   14.3411 C   0  0  0  0  0  0  0  0  0  0  0  0
   18.0724   -8.0371   15.5526 C   0  0  0  0  0  0  0  0  0  0  0  0
   16.7969   -8.3315   15.8629 N   0  0  0  0  0  0  0  0  0  0  0  0
  1  2  1  0
  2  3  1  0
  3  4  2  0
  4  5  1  0
  5  6  1  0
  6  7  1  6
  6  8  1  0
  9  8  1  6
  9 10  1  0
 10 11  1  0
 11 12  1  0
 12 13  1  0
 13 14  2  0
 14 15  1  0
 15 16  2  0
 16 17  1  0
 17 18  2  0
 18 19  1  0
 12 20  1  0
  5 21  2  0
 21 22  1  0
 22 23  1  0
 22 24  2  0
 24 25  1  0
 25 26  2  0
 26  2  1  0
 25  4  1  0
 20  9  1  0
 18 13  1  0
M  END
>  <energy_score>  (1917) 
-50.336964

>  <inchikey>  (1917) 
AXXZJBBLOABIGM-UHFFFAOYSA-N

>  <smiles>  (1917) 
Cn1cc2c(C(O)NC3CCN(c4ncccc4Cl)C3)cc(Br)cc2n1

>  <ref_pdb>  (1917) 
A3181a

>  <alias>  (1917) 
AXXZJBBLOABIGM-UHFFFAOYSA-N-P103-P12-P103-601509

>  <HIPPO Pose ID>  (1917) 
516105

>  <name>  (1917) 
AXXZJBBLOABIGM-UHFFFAOYSA-N-P103-P12-P103-601509

>  <HIPPO Compound ID>  (1917) 
293438

>  <ref_mols>  (1917) 
A0497a,A1105b

>  <distance_score>  (1917) 
1.098602

>  <inspiration_score>  (1917) 
None

$$$$
GHAWEEQFOZLMGU-UHFFFAOYSA-N-P103-P12-P103-601509
     RDKit          3D

 26 29  0  0  0  0  0  0  0  0999 V2000
   19.2151   -8.8342   17.4392 C   0  0  0  0  0  0  0  0  0  0  0  0
   19.8634   -7.5227   17.1512 C   0  0  0  0  0  0  0  0  0  0  0  0
   19.9155   -7.0417   15.8579 C   0  0  0  0  0  0  0  0  0  0  0  0
   20.6844   -5.9159   15.6188 C   0  0  0  0  0  0  0  0  0  0  0  0
   21.3276   -5.2808   16.6781 C   0  0  0  0  0  0  0  0  0  0  0  0
   21.1571   -5.7501   17.9785 C   0  0  0  0  0  0  0  0  0  0  0  0
   21.6417   -5.0254   19.0941 N   0  0  0  0  0  0  0  0  0  0  0  0
   21.2482   -3.5891   19.0883 C   0  0  0  0  0  0  0  0  0  0  0  0
   20.2936   -3.3999   20.2795 C   0  0  0  0  0  0  0  0  0  0  0  0
   19.8395   -4.8116   20.6652 C   0  0  1  0  0  0  0  0  0  0  0  0
   18.7331   -5.4670   19.9385 N   0  0  0  0  0  0  0  0  0  0  0  0
   17.8819   -4.6337   19.1356 C   0  0  1  0  0  0  0  0  0  0  0  0
   18.5881   -3.9240   18.1397 O   0  0  0  0  0  0  0  0  0  0  0  0
   16.7660   -5.3747   18.4491 C   0  0  0  0  0  0  0  0  0  0  0  0
   15.8119   -4.5479   17.8471 C   0  0  0  0  0  0  0  0  0  0  0  0
   14.6128   -5.0067   17.2735 C   0  0  0  0  0  0  0  0  0  0  0  0
   13.6139   -3.6353   16.5749 Br  0  0  0  0  0  0  0  0  0  0  0  0
   14.1979   -6.3337   17.1563 C   0  0  0  0  0  0  0  0  0  0  0  0
   15.1083   -7.2004   17.7542 C   0  0  0  0  0  0  0  0  0  0  0  0
   15.0332   -8.5352   17.8882 N   0  0  0  0  0  0  0  0  0  0  0  0
   16.0293   -8.8348   18.7358 N   0  0  0  0  0  0  0  0  0  0  0  0
   16.1492  -10.1869   19.2247 C   0  0  0  0  0  0  0  0  0  0  0  0
   16.8288   -7.7791   19.0640 C   0  0  0  0  0  0  0  0  0  0  0  0
   16.3282   -6.7080   18.3784 C   0  0  0  0  0  0  0  0  0  0  0  0
   21.1765   -5.5671   20.3957 C   0  0  0  0  0  0  0  0  0  0  0  0
   20.4700   -6.8994   18.1897 N   0  0  0  0  0  0  0  0  0  0  0  0
  1  2  1  0
  2  3  2  0
  3  4  1  0
  4  5  2  0
  5  6  1  0
  6  7  1  0
  7  8  1  0
  8  9  1  0
  9 10  1  0
 10 11  1  6
 11 12  1  0
 12 13  1  6
 12 14  1  0
 14 15  2  0
 15 16  1  0
 16 17  1  0
 16 18  2  0
 18 19  1  0
 19 20  2  0
 20 21  1  0
 21 22  1  0
 21 23  1  0
 23 24  2  0
 10 25  1  0
  6 26  2  0
 26  2  1  0
 25  7  1  0
 24 14  1  0
 24 19  1  0
M  END
>  <energy_score>  (1918) 
-25.021342

>  <inchikey>  (1918) 
GHAWEEQFOZLMGU-UHFFFAOYSA-N

>  <smiles>  (1918) 
Cc1cccc(N2CCC(NC(O)c3cc(Br)cc4nn(C)cc34)C2)n1

>  <ref_pdb>  (1918) 
A3181a

>  <alias>  (1918) 
GHAWEEQFOZLMGU-UHFFFAOYSA-N-P103-P12-P103-601509

>  <HIPPO Pose ID>  (1918) 
516107

>  <name>  (1918) 
GHAWEEQFOZLMGU-UHFFFAOYSA-N-P103-P12-P103-601509

>  <HIPPO Compound ID>  (1918) 
293439

>  <ref_mols>  (1918) 
A0497a,A1105b

>  <distance_score>  (1918) 
1.614494

>  <inspiration_score>  (1918) 
None

$$$$
JODFJVHYVCFDBX-UHFFFAOYSA-N-P103-P12-P103-601509
     RDKit          3D

 26 29  0  0  0  0  0  0  0  0999 V2000
   15.4119   -7.7591   17.9542 C   0  0  0  0  0  0  0  0  0  0  0  0
   16.7071   -7.7340   17.3151 N   0  0  0  0  0  0  0  0  0  0  0  0
   17.8786   -7.3213   17.8806 C   0  0  0  0  0  0  0  0  0  0  0  0
   18.8169   -7.3979   16.8841 C   0  0  0  0  0  0  0  0  0  0  0  0
   20.1826   -7.0693   16.9626 C   0  0  0  0  0  0  0  0  0  0  0  0
   21.0615   -6.6807   18.1417 C   0  0  2  0  0  0  0  0  0  0  0  0
   22.2634   -7.4352   18.0783 O   0  0  0  0  0  0  0  0  0  0  0  0
   20.4575   -6.9475   19.4229 N   0  0  0  0  0  0  0  0  0  0  0  0
   21.2171   -6.5936   20.6352 C   0  0  1  0  0  0  0  0  0  0  0  0
   22.3355   -5.5289   20.5871 C   0  0  0  0  0  0  0  0  0  0  0  0
   21.8371   -4.3382   21.4156 C   0  0  0  0  0  0  0  0  0  0  0  0
   20.3867   -4.5341   21.5646 N   0  0  0  0  0  0  0  0  0  0  0  0
   19.6511   -4.0154   20.4613 C   0  0  0  0  0  0  0  0  0  0  0  0
   20.3203   -3.4424   19.4323 N   0  0  0  0  0  0  0  0  0  0  0  0
   19.6295   -3.0850   18.3262 C   0  0  0  0  0  0  0  0  0  0  0  0
   18.2649   -3.2267   18.1929 C   0  0  0  0  0  0  0  0  0  0  0  0
   17.5588   -3.7227   19.2747 C   0  0  0  0  0  0  0  0  0  0  0  0
   18.2556   -4.1189   20.4146 C   0  0  0  0  0  0  0  0  0  0  0  0
   17.5781   -4.6116   21.4637 F   0  0  0  0  0  0  0  0  0  0  0  0
   20.2242   -5.9994   21.6718 C   0  0  0  0  0  0  0  0  0  0  0  0
   20.7583   -7.1493   15.6552 C   0  0  0  0  0  0  0  0  0  0  0  0
   20.0751   -7.5936   14.4826 C   0  0  0  0  0  0  0  0  0  0  0  0
   21.0424   -7.6473   12.8475 Br  0  0  0  0  0  0  0  0  0  0  0  0
   18.7342   -8.0058   14.4698 C   0  0  0  0  0  0  0  0  0  0  0  0
   18.1013   -7.8693   15.7130 C   0  0  0  0  0  0  0  0  0  0  0  0
   16.8267   -8.1452   16.0393 N   0  0  0  0  0  0  0  0  0  0  0  0
  1  2  1  0
  2  3  1  0
  3  4  2  0
  4  5  1  0
  5  6  1  0
  6  7  1  1
  6  8  1  0
  9  8  1  6
  9 10  1  0
 10 11  1  0
 11 12  1  0
 12 13  1  0
 13 14  2  0
 14 15  1  0
 15 16  2  0
 16 17  1  0
 17 18  2  0
 18 19  1  0
 12 20  1  0
  5 21  2  0
 21 22  1  0
 22 23  1  0
 22 24  2  0
 24 25  1  0
 25 26  2  0
 26  2  1  0
 25  4  1  0
 20  9  1  0
 18 13  1  0
M  END
>  <energy_score>  (1919) 
-44.548259

>  <inchikey>  (1919) 
JODFJVHYVCFDBX-UHFFFAOYSA-N

>  <smiles>  (1919) 
Cn1cc2c(C(O)NC3CCN(c4ncccc4F)C3)cc(Br)cc2n1

>  <ref_pdb>  (1919) 
A3181a

>  <alias>  (1919) 
JODFJVHYVCFDBX-UHFFFAOYSA-N-P103-P12-P103-601509

>  <HIPPO Pose ID>  (1919) 
516109

>  <name>  (1919) 
JODFJVHYVCFDBX-UHFFFAOYSA-N-P103-P12-P103-601509

>  <HIPPO Compound ID>  (1919) 
293440

>  <ref_mols>  (1919) 
A0497a,A1105b

>  <distance_score>  (1919) 
0.881868

>  <inspiration_score>  (1919) 
None

$$$$
PIQUSVZGLQEALW-UHFFFAOYSA-N-P103-P12-P103-601509
     RDKit          3D

 26 29  0  0  0  0  0  0  0  0999 V2000
   19.8432   -9.5427   17.3365 C   0  0  0  0  0  0  0  0  0  0  0  0
   20.1445   -8.0963   17.0729 C   0  0  0  0  0  0  0  0  0  0  0  0
   19.9235   -7.5667   15.8157 C   0  0  0  0  0  0  0  0  0  0  0  0
   20.4197   -6.3044   15.5533 C   0  0  0  0  0  0  0  0  0  0  0  0
   21.0627   -5.5937   16.5625 C   0  0  0  0  0  0  0  0  0  0  0  0
   21.1401   -6.1163   17.8541 C   0  0  0  0  0  0  0  0  0  0  0  0
   21.6507   -5.3609   18.9358 N   0  0  0  0  0  0  0  0  0  0  0  0
   21.3858   -3.8985   18.9174 C   0  0  0  0  0  0  0  0  0  0  0  0
   20.5277   -3.6013   20.1548 C   0  0  0  0  0  0  0  0  0  0  0  0
   19.9412   -4.9524   20.5606 C   0  0  1  0  0  0  0  0  0  0  0  0
   18.7767   -5.4868   19.8513 N   0  0  0  0  0  0  0  0  0  0  0  0
   17.9383   -4.6059   19.0994 C   0  0  1  0  0  0  0  0  0  0  0  0
   18.6296   -3.8699   18.1160 O   0  0  0  0  0  0  0  0  0  0  0  0
   16.8046   -5.3266   18.4017 C   0  0  0  0  0  0  0  0  0  0  0  0
   15.8367   -4.4619   17.9036 C   0  0  0  0  0  0  0  0  0  0  0  0
   14.6727   -4.9462   17.3591 C   0  0  0  0  0  0  0  0  0  0  0  0
   13.5931   -3.6570   16.6437 Br  0  0  0  0  0  0  0  0  0  0  0  0
   14.3617   -6.2905   17.2569 C   0  0  0  0  0  0  0  0  0  0  0  0
   15.3408   -7.1606   17.7229 C   0  0  0  0  0  0  0  0  0  0  0  0
   16.5476   -6.7174   18.2719 C   0  0  0  0  0  0  0  0  0  0  0  0
   17.1949   -7.9169   18.6398 C   0  0  0  0  0  0  0  0  0  0  0  0
   16.4987   -9.0170   18.3404 N   0  0  0  0  0  0  0  0  0  0  0  0
   15.3693   -8.5286   17.8060 N   0  0  0  0  0  0  0  0  0  0  0  0
   14.3138   -9.4324   17.4174 C   0  0  0  0  0  0  0  0  0  0  0  0
   21.1684   -5.8544   20.2484 C   0  0  0  0  0  0  0  0  0  0  0  0
   20.7444   -7.3960   18.0688 N   0  0  0  0  0  0  0  0  0  0  0  0
  1  2  1  0
  2  3  2  0
  3  4  1  0
  4  5  2  0
  5  6  1  0
  6  7  1  0
  7  8  1  0
  8  9  1  0
  9 10  1  0
 10 11  1  6
 11 12  1  0
 12 13  1  6
 12 14  1  0
 14 15  2  0
 15 16  1  0
 16 17  1  0
 16 18  2  0
 18 19  1  0
 19 20  2  0
 20 21  1  0
 21 22  2  0
 22 23  1  0
 23 24  1  0
 10 25  1  0
  6 26  2  0
 26  2  1  0
 25  7  1  0
 20 14  1  0
 23 19  1  0
M  END
>  <energy_score>  (1920) 
-29.873973

>  <inchikey>  (1920) 
PIQUSVZGLQEALW-UHFFFAOYSA-N

>  <smiles>  (1920) 
Cc1cccc(N2CCC(NC(O)c3cc(Br)cc4c3cnn4C)C2)n1

>  <ref_pdb>  (1920) 
A3181a

>  <alias>  (1920) 
PIQUSVZGLQEALW-UHFFFAOYSA-N-P103-P12-P103-601509

>  <HIPPO Pose ID>  (1920) 
516111

>  <name>  (1920) 
PIQUSVZGLQEALW-UHFFFAOYSA-N-P103-P12-P103-601509

>  <HIPPO Compound ID>  (1920) 
293441

>  <ref_mols>  (1920) 
A0497a,A1105b

>  <distance_score>  (1920) 
1.473275

>  <inspiration_score>  (1920) 
None

$$$$
DYFVACPTKCZATH-UHFFFAOYSA-N-P103-P12-P103-601509
     RDKit          3D

 27 30  0  0  0  0  0  0  0  0999 V2000
   18.5823   -9.1232   12.1101 C   0  0  0  0  0  0  0  0  0  0  0  0
   17.9016   -8.6197   13.2495 O   0  0  0  0  0  0  0  0  0  0  0  0
   18.6877   -8.1438   14.2602 C   0  0  0  0  0  0  0  0  0  0  0  0
   20.0644   -7.8437   14.1859 C   0  0  0  0  0  0  0  0  0  0  0  0
   20.8328   -7.3650   15.2947 C   0  0  0  0  0  0  0  0  0  0  0  0
   20.3219   -7.0971   16.5932 C   0  0  0  0  0  0  0  0  0  0  0  0
   21.1884   -6.7140   17.7654 C   0  0  1  0  0  0  0  0  0  0  0  0
   21.4105   -7.8794   18.5566 O   0  0  0  0  0  0  0  0  0  0  0  0
   22.5238   -6.2594   17.4195 N   0  0  0  0  0  0  0  0  0  0  0  0
   22.7623   -4.8036   17.4026 C   0  0  1  0  0  0  0  0  0  0  0  0
   22.1339   -4.0521   16.2325 C   0  0  0  0  0  0  0  0  0  0  0  0
   20.7884   -3.5773   16.7631 C   0  0  0  0  0  0  0  0  0  0  0  0
   21.0050   -3.3898   18.2003 N   0  0  0  0  0  0  0  0  0  0  0  0
   19.9157   -3.4686   19.0589 C   0  0  0  0  0  0  0  0  0  0  0  0
   20.1541   -3.8572   20.3384 N   0  0  0  0  0  0  0  0  0  0  0  0
   19.1184   -3.9668   21.1934 C   0  0  0  0  0  0  0  0  0  0  0  0
   17.8109   -3.7097   20.8437 C   0  0  0  0  0  0  0  0  0  0  0  0
   17.5467   -3.3118   19.5425 C   0  0  0  0  0  0  0  0  0  0  0  0
   18.6057   -3.1698   18.6574 C   0  0  0  0  0  0  0  0  0  0  0  0
   18.3329   -2.7192   17.4268 F   0  0  0  0  0  0  0  0  0  0  0  0
   22.2771   -3.9851   18.6235 C   0  0  0  0  0  0  0  0  0  0  0  0
   18.9442   -7.3668   16.6175 C   0  0  0  0  0  0  0  0  0  0  0  0
   18.1080   -7.2052   17.6921 C   0  0  0  0  0  0  0  0  0  0  0  0
   16.8786   -7.5923   17.2424 N   0  0  0  0  0  0  0  0  0  0  0  0
   15.6396   -7.5346   17.9817 C   0  0  0  0  0  0  0  0  0  0  0  0
   16.8756   -8.0819   15.9906 N   0  0  0  0  0  0  0  0  0  0  0  0
   18.1297   -7.8854   15.5361 C   0  0  0  0  0  0  0  0  0  0  0  0
  1  2  1  0
  2  3  1  0
  3  4  2  0
  4  5  1  0
  5  6  2  0
  6  7  1  0
  7  8  1  1
  7  9  1  0
 10  9  1  1
 10 11  1  0
 11 12  1  0
 12 13  1  0
 13 14  1  0
 14 15  2  0
 15 16  1  0
 16 17  2  0
 17 18  1  0
 18 19  2  0
 19 20  1  0
 13 21  1  0
  6 22  1  0
 22 23  2  0
 23 24  1  0
 24 25  1  0
 24 26  1  0
 26 27  2  0
 27  3  1  0
 21 10  1  0
 27 22  1  0
 19 14  1  0
M  END
>  <energy_score>  (1921) 
-59.693574

>  <inchikey>  (1921) 
DYFVACPTKCZATH-UHFFFAOYSA-N

>  <smiles>  (1921) 
COc1ccc(C(O)NC2CCN(c3ncccc3F)C2)c2cn(C)nc12

>  <ref_pdb>  (1921) 
A3181a

>  <alias>  (1921) 
DYFVACPTKCZATH-UHFFFAOYSA-N-P103-P12-P103-601509

>  <HIPPO Pose ID>  (1921) 
516125

>  <name>  (1921) 
DYFVACPTKCZATH-UHFFFAOYSA-N-P103-P12-P103-601509

>  <HIPPO Compound ID>  (1921) 
293448

>  <ref_mols>  (1921) 
A0497a,A1105b

>  <distance_score>  (1921) 
1.016785

>  <inspiration_score>  (1921) 
None

$$$$
VYNRLKHWSRQBHG-UHFFFAOYSA-N-P103-P12-P103-601509
     RDKit          3D

 27 30  0  0  0  0  0  0  0  0999 V2000
   18.6818   -2.8602   17.6856 C   0  0  0  0  0  0  0  0  0  0  0  0
   18.6954   -4.2392   17.9793 O   0  0  0  0  0  0  0  0  0  0  0  0
   17.7979   -4.6351   18.9875 C   0  0  2  0  0  0  0  0  0  0  0  0
   18.4227   -5.6009   19.8596 N   0  0  0  0  0  0  0  0  0  0  0  0
   19.7764   -5.4101   20.3967 C   0  0  2  0  0  0  0  0  0  0  0  0
   20.6912   -4.2657   19.9563 C   0  0  0  0  0  0  0  0  0  0  0  0
   21.4293   -4.7701   18.6987 C   0  0  0  0  0  0  0  0  0  0  0  0
   21.2951   -6.2374   18.7046 N   0  0  0  0  0  0  0  0  0  0  0  0
   20.6488   -6.8439   17.6064 C   0  0  0  0  0  0  0  0  0  0  0  0
   20.0618   -8.0507   17.8304 N   0  0  0  0  0  0  0  0  0  0  0  0
   19.2859   -8.5993   16.8677 C   0  0  0  0  0  0  0  0  0  0  0  0
   19.1090   -8.0618   15.6165 C   0  0  0  0  0  0  0  0  0  0  0  0
   19.8261   -6.9224   15.3211 C   0  0  0  0  0  0  0  0  0  0  0  0
   20.6053   -6.3193   16.3004 C   0  0  0  0  0  0  0  0  0  0  0  0
   21.2894   -5.2364   15.9056 F   0  0  0  0  0  0  0  0  0  0  0  0
   20.7030   -6.6057   20.0131 C   0  0  0  0  0  0  0  0  0  0  0  0
   16.4940   -5.0966   18.3190 C   0  0  0  0  0  0  0  0  0  0  0  0
   15.5800   -4.0409   17.9542 C   0  0  0  0  0  0  0  0  0  0  0  0
   14.3144   -4.1913   17.3320 C   0  0  0  0  0  0  0  0  0  0  0  0
   13.8087   -5.4346   16.9688 C   0  0  0  0  0  0  0  0  0  0  0  0
   14.6253   -6.5210   17.3002 C   0  0  0  0  0  0  0  0  0  0  0  0
   14.3731   -7.8132   17.0570 N   0  0  0  0  0  0  0  0  0  0  0  0
   15.3430   -8.4635   17.7053 N   0  0  0  0  0  0  0  0  0  0  0  0
   15.2883   -9.9085   17.7146 C   0  0  0  0  0  0  0  0  0  0  0  0
   16.2254   -7.6532   18.3839 C   0  0  0  0  0  0  0  0  0  0  0  0
   17.1428   -8.2388   19.3903 C   0  0  0  0  0  0  0  0  0  0  0  0
   15.9118   -6.3595   17.9847 C   0  0  0  0  0  0  0  0  0  0  0  0
  1  2  1  0
  2  3  1  0
  3  4  1  6
  5  4  1  6
  5  6  1  0
  6  7  1  0
  7  8  1  0
  8  9  1  0
  9 10  2  0
 10 11  1  0
 11 12  2  0
 12 13  1  0
 13 14  2  0
 14 15  1  0
  8 16  1  0
  3 17  1  0
 17 18  2  0
 18 19  1  0
 19 20  2  0
 20 21  1  0
 21 22  2  0
 22 23  1  0
 23 24  1  0
 23 25  1  0
 25 26  1  0
 25 27  2  0
 16  5  1  0
 27 17  1  0
 14  9  1  0
 27 21  1  0
M  END
>  <energy_score>  (1922) 
-12.168621

>  <inchikey>  (1922) 
VYNRLKHWSRQBHG-UHFFFAOYSA-N

>  <smiles>  (1922) 
COC(NC1CCN(c2ncccc2F)C1)c1cccc2nn(C)c(C)c12

>  <ref_pdb>  (1922) 
A3181a

>  <alias>  (1922) 
VYNRLKHWSRQBHG-UHFFFAOYSA-N-P103-P12-P103-601509

>  <HIPPO Pose ID>  (1922) 
516139

>  <name>  (1922) 
VYNRLKHWSRQBHG-UHFFFAOYSA-N-P103-P12-P103-601509

>  <HIPPO Compound ID>  (1922) 
293455

>  <ref_mols>  (1922) 
A0497a,A1105b

>  <distance_score>  (1922) 
1.622754

>  <inspiration_score>  (1922) 
None

$$$$
AABLCWSLERZKHU-UHFFFAOYSA-N-P103-P12-P103-601509
     RDKit          3D

 27 30  0  0  0  0  0  0  0  0999 V2000
   18.8263   -2.8305   17.7917 C   0  0  0  0  0  0  0  0  0  0  0  0
   18.6019   -4.2147   17.9311 O   0  0  0  0  0  0  0  0  0  0  0  0
   17.6807   -4.5455   18.9432 C   0  0  2  0  0  0  0  0  0  0  0  0
   18.3149   -5.4767   19.8493 N   0  0  0  0  0  0  0  0  0  0  0  0
   19.5254   -4.9582   20.5178 C   0  0  1  0  0  0  0  0  0  0  0  0
   20.0233   -6.0710   21.4332 C   0  0  0  0  0  0  0  0  0  0  0  0
   20.8084   -7.0129   20.4967 C   0  0  0  0  0  0  0  0  0  0  0  0
   21.2854   -6.1672   19.3781 N   0  0  0  0  0  0  0  0  0  0  0  0
   20.8105   -6.5224   18.0825 C   0  0  0  0  0  0  0  0  0  0  0  0
   19.6862   -7.2778   17.9869 N   0  0  0  0  0  0  0  0  0  0  0  0
   19.1299   -7.4590   16.7657 C   0  0  0  0  0  0  0  0  0  0  0  0
   19.6478   -6.9478   15.5987 C   0  0  0  0  0  0  0  0  0  0  0  0
   20.8206   -6.2145   15.6769 C   0  0  0  0  0  0  0  0  0  0  0  0
   21.4157   -6.0020   16.9188 C   0  0  0  0  0  0  0  0  0  0  0  0
   22.8835   -5.0827   16.9667 Cl  0  0  0  0  0  0  0  0  0  0  0  0
   20.8271   -4.7884   19.6815 C   0  0  0  0  0  0  0  0  0  0  0  0
   16.4007   -5.0560   18.2809 C   0  0  0  0  0  0  0  0  0  0  0  0
   15.4865   -4.0259   17.8609 C   0  0  0  0  0  0  0  0  0  0  0  0
   14.2298   -4.2198   17.2383 C   0  0  0  0  0  0  0  0  0  0  0  0
   13.7508   -5.4859   16.9164 C   0  0  0  0  0  0  0  0  0  0  0  0
   14.5810   -6.5494   17.2869 C   0  0  0  0  0  0  0  0  0  0  0  0
   14.3675   -7.8521   17.0594 N   0  0  0  0  0  0  0  0  0  0  0  0
   15.3388   -8.4639   17.7416 N   0  0  0  0  0  0  0  0  0  0  0  0
   15.3510   -9.9101   17.7470 C   0  0  0  0  0  0  0  0  0  0  0  0
   16.1560   -7.6187   18.4594 C   0  0  0  0  0  0  0  0  0  0  0  0
   16.9936   -8.1892   19.5494 C   0  0  0  0  0  0  0  0  0  0  0  0
   15.8482   -6.3444   17.9923 C   0  0  0  0  0  0  0  0  0  0  0  0
  1  2  1  0
  2  3  1  0
  3  4  1  1
  5  4  1  6
  5  6  1  0
  6  7  1  0
  7  8  1  0
  8  9  1  0
  9 10  2  0
 10 11  1  0
 11 12  2  0
 12 13  1  0
 13 14  2  0
 14 15  1  0
  8 16  1  0
  3 17  1  0
 17 18  2  0
 18 19  1  0
 19 20  2  0
 20 21  1  0
 21 22  2  0
 22 23  1  0
 23 24  1  0
 23 25  1  0
 25 26  1  0
 25 27  2  0
 16  5  1  0
 27 17  1  0
 14  9  1  0
 27 21  1  0
M  END
>  <energy_score>  (1923) 
-45.465936

>  <inchikey>  (1923) 
AABLCWSLERZKHU-UHFFFAOYSA-N

>  <smiles>  (1923) 
COC(NC1CCN(c2ncccc2Cl)C1)c1cccc2nn(C)c(C)c12

>  <ref_pdb>  (1923) 
A3181a

>  <alias>  (1923) 
AABLCWSLERZKHU-UHFFFAOYSA-N-P103-P12-P103-601509

>  <HIPPO Pose ID>  (1923) 
516143

>  <name>  (1923) 
AABLCWSLERZKHU-UHFFFAOYSA-N-P103-P12-P103-601509

>  <HIPPO Compound ID>  (1923) 
293457

>  <ref_mols>  (1923) 
A0497a,A1105b

>  <distance_score>  (1923) 
1.409355

>  <inspiration_score>  (1923) 
None

$$$$
UUGZLHFXGKUBRX-UHFFFAOYSA-N-P103-P12-P103-601509
     RDKit          3D

 27 31  0  0  0  0  0  0  0  0999 V2000
   15.7182   -7.4240   17.9147 C   0  0  0  0  0  0  0  0  0  0  0  0
   16.9333   -7.4959   17.1375 N   0  0  0  0  0  0  0  0  0  0  0  0
   18.1558   -7.0077   17.5039 C   0  0  0  0  0  0  0  0  0  0  0  0
   18.9846   -7.2622   16.4386 C   0  0  0  0  0  0  0  0  0  0  0  0
   20.3633   -6.9628   16.3421 C   0  0  0  0  0  0  0  0  0  0  0  0
   21.1890   -6.3708   17.4492 C   0  0  1  0  0  0  0  0  0  0  0  0
   21.8852   -7.4605   18.0356 O   0  0  0  0  0  0  0  0  0  0  0  0
   22.1881   -5.3614   17.1072 N   0  0  0  0  0  0  0  0  0  0  0  0
   22.6677   -4.6884   18.3564 C   0  0  0  0  0  0  0  0  0  0  0  0
   22.3420   -3.1959   18.1231 C   0  0  1  0  0  0  0  0  0  0  0  0
   22.7026   -3.1277   16.6377 C   0  0  0  0  0  0  0  0  0  0  0  0
   21.6885   -4.2158   16.2777 C   0  0  2  0  0  0  0  0  0  0  0  0
   20.4009   -3.5364   16.8137 C   0  0  0  0  0  0  0  0  0  0  0  0
   20.8705   -2.9326   18.0777 N   0  0  0  0  0  0  0  0  0  0  0  0
   20.1130   -3.2213   19.2002 C   0  0  0  0  0  0  0  0  0  0  0  0
   18.7170   -3.2057   19.1582 C   0  0  0  0  0  0  0  0  0  0  0  0
   17.9863   -3.6457   20.2605 C   0  0  0  0  0  0  0  0  0  0  0  0
   18.6713   -4.0934   21.3781 C   0  0  0  0  0  0  0  0  0  0  0  0
   17.8374   -4.7778   22.9129 Br  0  0  0  0  0  0  0  0  0  0  0  0
   20.0450   -4.0069   21.3749 C   0  0  0  0  0  0  0  0  0  0  0  0
   20.7630   -3.5551   20.3306 N   0  0  0  0  0  0  0  0  0  0  0  0
   20.8584   -7.4390   15.0907 C   0  0  0  0  0  0  0  0  0  0  0  0
   22.7278   -7.3849   14.6590 Br  0  0  0  0  0  0  0  0  0  0  0  0
   20.0556   -8.0644   14.0776 C   0  0  0  0  0  0  0  0  0  0  0  0
   18.6838   -8.3366   14.2224 C   0  0  0  0  0  0  0  0  0  0  0  0
   18.1612   -7.9310   15.4554 C   0  0  0  0  0  0  0  0  0  0  0  0
   16.9170   -8.0939   15.9328 N   0  0  0  0  0  0  0  0  0  0  0  0
  1  2  1  0
  2  3  1  0
  3  4  2  0
  4  5  1  0
  5  6  1  0
  6  7  1  6
  6  8  1  0
  8  9  1  0
 10  9  1  6
 10 11  1  0
 11 12  1  0
 12 13  1  1
 13 14  1  0
 14 15  1  0
 15 16  2  0
 16 17  1  0
 17 18  2  0
 18 19  1  0
 18 20  1  0
 20 21  2  0
  5 22  2  0
 22 23  1  0
 22 24  1  0
 24 25  2  0
 25 26  1  0
 26 27  2  0
 27  2  1  0
 26  4  1  0
 12  8  1  0
 21 15  1  0
 14 10  1  0
M  END
>  <energy_score>  (1924) 
-47.405621

>  <inchikey>  (1924) 
UUGZLHFXGKUBRX-UHFFFAOYSA-N

>  <smiles>  (1924) 
Cn1cc2c(C(O)N3CC4CC3CN4c3ccc(Br)cn3)c(Br)ccc2n1

>  <ref_pdb>  (1924) 
A3181a

>  <alias>  (1924) 
UUGZLHFXGKUBRX-UHFFFAOYSA-N-P103-P12-P103-601509

>  <HIPPO Pose ID>  (1924) 
516149

>  <name>  (1924) 
UUGZLHFXGKUBRX-UHFFFAOYSA-N-P103-P12-P103-601509

>  <HIPPO Compound ID>  (1924) 
293460

>  <ref_mols>  (1924) 
A0497a,A1105b

>  <distance_score>  (1924) 
1.235783

>  <inspiration_score>  (1924) 
None

$$$$
IVURZZFCMMQIGD-UHFFFAOYSA-N-P12-P12-P103-601509
     RDKit          3D

 28 31  0  0  0  0  0  0  0  0999 V2000
   17.9652   -1.9181   19.8435 C   0  0  0  0  0  0  0  0  0  0  0  0
   17.9189   -2.9389   18.8708 O   0  0  0  0  0  0  0  0  0  0  0  0
   17.4269   -4.1675   19.3658 C   0  0  2  0  0  0  0  0  0  0  0  0
   18.4686   -5.1563   19.3531 N   0  0  0  0  0  0  0  0  0  0  0  0
   19.5902   -5.0259   20.2850 C   0  0  2  0  0  0  0  0  0  0  0  0
   20.6529   -3.9847   19.9294 C   0  0  0  0  0  0  0  0  0  0  0  0
   21.4021   -4.5980   18.7437 C   0  0  0  0  0  0  0  0  0  0  0  0
   21.2499   -6.0591   18.8949 N   0  0  0  0  0  0  0  0  0  0  0  0
   20.7560   -6.7667   17.7830 C   0  0  0  0  0  0  0  0  0  0  0  0
   20.9654   -6.3276   16.4747 C   0  0  0  0  0  0  0  0  0  0  0  0
   20.3091   -6.9471   15.4174 C   0  0  0  0  0  0  0  0  0  0  0  0
   19.5143   -8.0518   15.6652 C   0  0  0  0  0  0  0  0  0  0  0  0
   19.4374   -8.5215   16.9637 C   0  0  0  0  0  0  0  0  0  0  0  0
   18.7613   -9.8289   17.2524 C   0  0  0  0  0  0  0  0  0  0  0  0
   20.0476   -7.8987   18.0001 N   0  0  0  0  0  0  0  0  0  0  0  0
   20.4797   -6.2971   20.1435 C   0  0  0  0  0  0  0  0  0  0  0  0
   16.2215   -4.6525   18.5263 C   0  0  0  0  0  0  0  0  0  0  0  0
   15.2045   -3.7200   18.2088 C   0  0  0  0  0  0  0  0  0  0  0  0
   14.0447   -4.0885   17.5304 C   0  0  0  0  0  0  0  0  0  0  0  0
   13.8073   -5.4033   17.1529 C   0  0  0  0  0  0  0  0  0  0  0  0
   14.7681   -6.3598   17.4884 C   0  0  0  0  0  0  0  0  0  0  0  0
   15.9551   -6.0155   18.1424 C   0  0  0  0  0  0  0  0  0  0  0  0
   16.5950   -7.2617   18.3263 C   0  0  0  0  0  0  0  0  0  0  0  0
   15.9127   -8.2985   17.8424 N   0  0  0  0  0  0  0  0  0  0  0  0
   14.7864   -7.7410   17.3162 N   0  0  0  0  0  0  0  0  0  0  0  0
   13.8224   -8.5680   16.6821 C   0  0  0  0  0  0  0  0  0  0  0  0
   12.8552   -8.0314   16.1452 O   0  0  0  0  0  0  0  0  0  0  0  0
   14.1045  -10.2924   16.6885 Cl  0  0  0  0  0  0  0  0  0  0  0  0
  1  2  1  0
  2  3  1  0
  3  4  1  6
  5  4  1  6
  5  6  1  0
  6  7  1  0
  7  8  1  0
  8  9  1  0
  9 10  2  0
 10 11  1  0
 11 12  2  0
 12 13  1  0
 13 14  1  0
 13 15  2  0
  8 16  1  0
  3 17  1  0
 17 18  2  0
 18 19  1  0
 19 20  2  0
 20 21  1  0
 21 22  2  0
 22 23  1  0
 23 24  2  0
 24 25  1  0
 25 26  1  0
 26 27  2  0
 26 28  1  0
 16  5  1  0
 22 17  1  0
 15  9  1  0
 25 21  1  0
M  END
>  <energy_score>  (1925) 
-41.260288

>  <inchikey>  (1925) 
IVURZZFCMMQIGD-UHFFFAOYSA-N

>  <smiles>  (1925) 
COC(NC1CCN(c2cccc(C)n2)C1)c1cccc2c1cnn2C(=O)Cl

>  <ref_pdb>  (1925) 
A3181a

>  <alias>  (1925) 
IVURZZFCMMQIGD-UHFFFAOYSA-N-P12-P12-P103-601509

>  <HIPPO Pose ID>  (1925) 
516154

>  <name>  (1925) 
IVURZZFCMMQIGD-UHFFFAOYSA-N-P12-P12-P103-601509

>  <HIPPO Compound ID>  (1925) 
293463

>  <ref_mols>  (1925) 
A0497a,A1105b

>  <distance_score>  (1925) 
1.30354

>  <inspiration_score>  (1925) 
None

$$$$
HRCWNRFWMXKAKC-UHFFFAOYSA-N-P103-P12-P103-601509
     RDKit          3D

 29 33  0  0  0  0  0  0  0  0999 V2000
   17.7277   -9.6413   11.5833 C   0  0  0  0  0  0  0  0  0  0  0  0
   17.8005   -9.1233   12.9617 C   0  0  0  0  0  0  0  0  0  0  0  0
   16.8317   -9.3419   13.8589 N   0  0  0  0  0  0  0  0  0  0  0  0
   17.3189   -8.7059   15.0071 O   0  0  0  0  0  0  0  0  0  0  0  0
   18.5264   -8.1546   14.6668 C   0  0  0  0  0  0  0  0  0  0  0  0
   19.2196   -7.4047   15.6910 C   0  0  0  0  0  0  0  0  0  0  0  0
   20.1621   -6.4326   15.3748 C   0  0  0  0  0  0  0  0  0  0  0  0
   20.7381   -5.6629   16.3838 C   0  0  0  0  0  0  0  0  0  0  0  0
   20.3578   -5.8631   17.7099 C   0  0  0  0  0  0  0  0  0  0  0  0
   20.8387   -5.0015   18.7147 N   0  0  0  0  0  0  0  0  0  0  0  0
   20.5169   -3.5746   18.4790 C   0  0  0  0  0  0  0  0  0  0  0  0
   19.7444   -3.1226   19.7247 C   0  0  0  0  0  0  0  0  0  0  0  0
   19.1871   -4.4176   20.3263 C   0  0  1  0  0  0  0  0  0  0  0  0
   17.9919   -5.0341   19.7124 N   0  0  0  0  0  0  0  0  0  0  0  0
   17.2712   -4.1965   18.7616 C   0  0  0  0  0  0  0  0  0  0  0  0
   16.0439   -4.8423   18.1452 C   0  0  0  0  0  0  0  0  0  0  0  0
   15.0773   -3.9405   17.6579 C   0  0  0  0  0  0  0  0  0  0  0  0
   13.9153   -4.3698   17.0444 C   0  0  0  0  0  0  0  0  0  0  0  0
   13.6587   -5.7253   16.8821 C   0  0  0  0  0  0  0  0  0  0  0  0
   14.5800   -6.6368   17.3924 C   0  0  0  0  0  0  0  0  0  0  0  0
   15.7454   -6.2288   18.0338 C   0  0  0  0  0  0  0  0  0  0  0  0
   16.2710   -7.4455   18.5343 C   0  0  0  0  0  0  0  0  0  0  0  0
   15.6156   -8.5319   18.1185 N   0  0  0  0  0  0  0  0  0  0  0  0
   14.5763   -8.0080   17.4457 N   0  0  0  0  0  0  0  0  0  0  0  0
   13.5675   -8.8913   16.9155 C   0  0  0  0  0  0  0  0  0  0  0  0
   20.4153   -5.3338   20.0913 C   0  0  0  0  0  0  0  0  0  0  0  0
   19.5099   -6.8715   18.0336 N   0  0  0  0  0  0  0  0  0  0  0  0
   18.9864   -7.6192   17.0323 C   0  0  0  0  0  0  0  0  0  0  0  0
   18.8522   -8.3694   13.4098 N   0  0  0  0  0  0  0  0  0  0  0  0
  1  2  1  0
  2  3  2  0
  3  4  1  0
  4  5  1  0
  5  6  1  0
  6  7  2  0
  7  8  1  0
  8  9  2  0
  9 10  1  0
 10 11  1  0
 11 12  1  0
 12 13  1  0
 13 14  1  6
 14 15  1  0
 15 16  1  0
 16 17  2  0
 17 18  1  0
 18 19  2  0
 19 20  1  0
 20 21  2  0
 21 22  1  0
 22 23  2  0
 23 24  1  0
 24 25  1  0
 13 26  1  0
  9 27  1  0
 27 28  2  0
  5 29  2  0
 29  2  1  0
 28  6  1  0
 26 10  1  0
 21 16  1  0
 24 20  1  0
M  END
>  <energy_score>  (1926) 
-40.092025

>  <inchikey>  (1926) 
HRCWNRFWMXKAKC-UHFFFAOYSA-N

>  <smiles>  (1926) 
Cc1noc(-c2ccc(N3CCC(NCc4cccc5c4cnn5C)C3)nc2)n1

>  <ref_pdb>  (1926) 
A3181a

>  <alias>  (1926) 
HRCWNRFWMXKAKC-UHFFFAOYSA-N-P103-P12-P103-601509

>  <HIPPO Pose ID>  (1926) 
516171

>  <name>  (1926) 
HRCWNRFWMXKAKC-UHFFFAOYSA-N-P103-P12-P103-601509

>  <HIPPO Compound ID>  (1926) 
293471

>  <ref_mols>  (1926) 
A0497a,A1105b

>  <distance_score>  (1926) 
1.580077

>  <inspiration_score>  (1926) 
None

$$$$
ZCHQNVIKJDEJOV-UHFFFAOYSA-N-P103-P12-P103-601509
     RDKit          3D

 29 32  0  0  0  0  0  0  0  0999 V2000
   16.0209   -6.9221   17.5791 C   0  0  0  0  0  0  0  0  0  0  0  0
   17.2291   -7.2544   16.8627 N   0  0  0  0  0  0  0  0  0  0  0  0
   18.3898   -6.5383   16.8281 C   0  0  0  0  0  0  0  0  0  0  0  0
   19.2006   -7.1679   15.9276 C   0  0  0  0  0  0  0  0  0  0  0  0
   20.4665   -6.7509   15.4767 C   0  0  0  0  0  0  0  0  0  0  0  0
   21.3054   -5.5226   15.7792 C   0  0  2  0  0  0  0  0  0  0  0  0
   22.6544   -5.7726   15.3933 O   0  0  0  0  0  0  0  0  0  0  0  0
   21.3843   -5.1105   17.1708 N   0  0  0  0  0  0  0  0  0  0  0  0
   21.8233   -3.6898   17.2259 C   0  0  2  0  0  0  0  0  0  0  0  0
   22.6661   -3.3529   18.4712 C   0  0  0  0  0  0  0  0  0  0  0  0
   21.9680   -2.1395   19.1029 C   0  0  0  0  0  0  0  0  0  0  0  0
   20.5444   -2.3065   18.7453 N   0  0  0  0  0  0  0  0  0  0  0  0
   19.8920   -3.2506   19.5793 C   0  0  0  0  0  0  0  0  0  0  0  0
   20.5697   -3.7019   20.6699 N   0  0  0  0  0  0  0  0  0  0  0  0
   20.1187   -4.7758   21.3528 C   0  0  0  0  0  0  0  0  0  0  0  0
   18.9986   -5.4851   20.9988 C   0  0  0  0  0  0  0  0  0  0  0  0
   18.6077   -6.7207   21.7339 C   0  0  0  0  0  0  0  0  0  0  0  0
   19.6494   -7.3544   22.3368 F   0  0  0  0  0  0  0  0  0  0  0  0
   17.7020   -6.4689   22.7240 F   0  0  0  0  0  0  0  0  0  0  0  0
   18.0138   -7.6490   20.9349 F   0  0  0  0  0  0  0  0  0  0  0  0
   18.2511   -4.9606   19.9562 C   0  0  0  0  0  0  0  0  0  0  0  0
   18.6364   -3.7922   19.3024 C   0  0  0  0  0  0  0  0  0  0  0  0
   17.4822   -3.1321   18.2197 Cl  0  0  0  0  0  0  0  0  0  0  0  0
   20.6105   -2.7350   17.3228 C   0  0  0  0  0  0  0  0  0  0  0  0
   20.8593   -7.6069   14.3992 C   0  0  0  0  0  0  0  0  0  0  0  0
   20.1308   -8.7291   13.9068 C   0  0  0  0  0  0  0  0  0  0  0  0
   18.8886   -9.1221   14.4217 C   0  0  0  0  0  0  0  0  0  0  0  0
   18.4190   -8.2917   15.4455 C   0  0  0  0  0  0  0  0  0  0  0  0
   17.2464   -8.3606   16.0966 N   0  0  0  0  0  0  0  0  0  0  0  0
  1  2  1  0
  2  3  1  0
  3  4  2  0
  4  5  1  0
  5  6  1  0
  6  7  1  1
  6  8  1  0
  9  8  1  1
  9 10  1  0
 10 11  1  0
 11 12  1  0
 12 13  1  0
 13 14  2  0
 14 15  1  0
 15 16  2  0
 16 17  1  0
 17 18  1  0
 17 19  1  0
 17 20  1  0
 16 21  1  0
 21 22  2  0
 22 23  1  0
 12 24  1  0
  5 25  2  0
 25 26  1  0
 26 27  2  0
 27 28  1  0
 28 29  2  0
 29  2  1  0
 28  4  1  0
 24  9  1  0
 22 13  1  0
M  END
>  <energy_score>  (1927) 
-41.649101

>  <inchikey>  (1927) 
ZCHQNVIKJDEJOV-UHFFFAOYSA-N

>  <smiles>  (1927) 
Cn1cc2c(C(O)NC3CCN(c4ncc(C(F)(F)F)cc4Cl)C3)cccc2n1

>  <ref_pdb>  (1927) 
A3181a

>  <alias>  (1927) 
ZCHQNVIKJDEJOV-UHFFFAOYSA-N-P103-P12-P103-601509

>  <HIPPO Pose ID>  (1927) 
516173

>  <name>  (1927) 
ZCHQNVIKJDEJOV-UHFFFAOYSA-N-P103-P12-P103-601509

>  <HIPPO Compound ID>  (1927) 
293472

>  <ref_mols>  (1927) 
A0497a,A1105b

>  <distance_score>  (1927) 
1.32097

>  <inspiration_score>  (1927) 
None

$$$$
XOLWKGIRIPIXTM-UHFFFAOYSA-N-P103-P12-P103-601509
     RDKit          3D

 30 34  0  0  0  0  0  0  0  0999 V2000
   15.6616   -7.5899   17.8657 C   0  0  0  0  0  0  0  0  0  0  0  0
   16.8982   -7.5994   17.1189 N   0  0  0  0  0  0  0  0  0  0  0  0
   18.0958   -7.0934   17.5340 C   0  0  0  0  0  0  0  0  0  0  0  0
   18.9515   -7.2901   16.4806 C   0  0  0  0  0  0  0  0  0  0  0  0
   20.3091   -6.9334   16.4302 C   0  0  0  0  0  0  0  0  0  0  0  0
   21.1339   -6.3474   17.5406 C   0  0  1  0  0  0  0  0  0  0  0  0
   21.7570   -7.4606   18.1634 O   0  0  0  0  0  0  0  0  0  0  0  0
   22.2096   -5.4292   17.1520 N   0  0  0  0  0  0  0  0  0  0  0  0
   22.7043   -4.7268   18.3851 C   0  0  0  0  0  0  0  0  0  0  0  0
   22.4062   -3.2338   18.1176 C   0  0  1  0  0  0  0  0  0  0  0  0
   22.7989   -3.2080   16.6393 C   0  0  0  0  0  0  0  0  0  0  0  0
   21.7658   -4.2800   16.2833 C   0  0  2  0  0  0  0  0  0  0  0  0
   20.4842   -3.5495   16.7714 C   0  0  0  0  0  0  0  0  0  0  0  0
   20.9403   -2.9458   18.0393 N   0  0  0  0  0  0  0  0  0  0  0  0
   20.1595   -3.2097   19.1540 C   0  0  0  0  0  0  0  0  0  0  0  0
   18.7636   -3.1908   19.0911 C   0  0  0  0  0  0  0  0  0  0  0  0
   18.0130   -3.6245   20.1845 C   0  0  0  0  0  0  0  0  0  0  0  0
   18.6802   -4.0608   21.3172 C   0  0  0  0  0  0  0  0  0  0  0  0
   17.8274   -4.7313   22.8472 Br  0  0  0  0  0  0  0  0  0  0  0  0
   20.0539   -3.9749   21.3351 C   0  0  0  0  0  0  0  0  0  0  0  0
   20.7905   -3.5381   20.2974 N   0  0  0  0  0  0  0  0  0  0  0  0
   20.8597   -7.3016   15.1758 C   0  0  0  0  0  0  0  0  0  0  0  0
   20.1287   -7.9247   14.1220 C   0  0  0  0  0  0  0  0  0  0  0  0
   18.7590   -8.2899   14.2125 C   0  0  0  0  0  0  0  0  0  0  0  0
   18.0254   -8.9257   13.0854 C   0  0  0  0  0  0  0  0  0  0  0  0
   18.8703   -9.4930   12.1701 F   0  0  0  0  0  0  0  0  0  0  0  0
   17.2867   -8.0306   12.3646 F   0  0  0  0  0  0  0  0  0  0  0  0
   17.1731   -9.9231   13.4442 F   0  0  0  0  0  0  0  0  0  0  0  0
   18.1808   -7.9464   15.4459 C   0  0  0  0  0  0  0  0  0  0  0  0
   16.9273   -8.1462   15.8881 N   0  0  0  0  0  0  0  0  0  0  0  0
  1  2  1  0
  2  3  1  0
  3  4  2  0
  4  5  1  0
  5  6  1  0
  6  7  1  6
  6  8  1  0
  8  9  1  0
 10  9  1  6
 10 11  1  0
 11 12  1  0
 12 13  1  1
 13 14  1  0
 14 15  1  0
 15 16  2  0
 16 17  1  0
 17 18  2  0
 18 19  1  0
 18 20  1  0
 20 21  2  0
  5 22  2  0
 22 23  1  0
 23 24  2  0
 24 25  1  0
 25 26  1  0
 25 27  1  0
 25 28  1  0
 24 29  1  0
 29 30  2  0
 30  2  1  0
 29  4  1  0
 12  8  1  0
 21 15  1  0
 14 10  1  0
M  END
>  <energy_score>  (1928) 
-55.21973

>  <inchikey>  (1928) 
XOLWKGIRIPIXTM-UHFFFAOYSA-N

>  <smiles>  (1928) 
Cn1cc2c(C(O)N3CC4CC3CN4c3ccc(Br)cn3)ccc(C(F)(F)F)c2n1

>  <ref_pdb>  (1928) 
A3181a

>  <alias>  (1928) 
XOLWKGIRIPIXTM-UHFFFAOYSA-N-P103-P12-P103-601509

>  <HIPPO Pose ID>  (1928) 
516185

>  <name>  (1928) 
XOLWKGIRIPIXTM-UHFFFAOYSA-N-P103-P12-P103-601509

>  <HIPPO Compound ID>  (1928) 
293478

>  <ref_mols>  (1928) 
A0497a,A1105b

>  <distance_score>  (1928) 
1.200064

>  <inspiration_score>  (1928) 
None

$$$$
MBMJZUQNYIXZQB-UHFFFAOYSA-N-P103-P12-P103-601509
     RDKit          3D

 30 33  0  0  0  0  0  0  0  0999 V2000
   16.0922   -7.7383   18.1408 C   0  0  0  0  0  0  0  0  0  0  0  0
   17.2212   -7.6608   17.2443 N   0  0  0  0  0  0  0  0  0  0  0  0
   18.4290   -7.0748   17.5020 C   0  0  0  0  0  0  0  0  0  0  0  0
   19.1381   -7.1689   16.3344 C   0  0  0  0  0  0  0  0  0  0  0  0
   20.4312   -6.6788   16.0743 C   0  0  0  0  0  0  0  0  0  0  0  0
   21.3895   -5.9396   16.9749 C   0  0  1  0  0  0  0  0  0  0  0  0
   22.5973   -6.6811   16.9887 O   0  0  0  0  0  0  0  0  0  0  0  0
   21.6423   -4.5953   16.5053 N   0  0  0  0  0  0  0  0  0  0  0  0
   22.7043   -3.8312   17.1839 C   0  0  1  0  0  0  0  0  0  0  0  0
   22.5518   -2.3541   16.8289 C   0  0  0  0  0  0  0  0  0  0  0  0
   21.3647   -1.9226   17.6950 C   0  0  0  0  0  0  0  0  0  0  0  0
   21.4847   -2.7271   18.9131 N   0  0  0  0  0  0  0  0  0  0  0  0
   20.4683   -3.2813   19.6572 C   0  0  0  0  0  0  0  0  0  0  0  0
   20.9194   -3.7078   20.8700 N   0  0  0  0  0  0  0  0  0  0  0  0
   20.1813   -4.5376   21.6224 C   0  0  0  0  0  0  0  0  0  0  0  0
   18.9565   -5.0136   21.2360 C   0  0  0  0  0  0  0  0  0  0  0  0
   18.3247   -6.0842   22.0503 C   0  0  0  0  0  0  0  0  0  0  0  0
   17.4167   -5.6148   22.9460 F   0  0  0  0  0  0  0  0  0  0  0  0
   19.2136   -6.8157   22.7782 F   0  0  0  0  0  0  0  0  0  0  0  0
   17.6544   -6.9919   21.2880 F   0  0  0  0  0  0  0  0  0  0  0  0
   18.4160   -4.4671   20.0751 C   0  0  0  0  0  0  0  0  0  0  0  0
   19.1556   -3.5791   19.2819 C   0  0  0  0  0  0  0  0  0  0  0  0
   18.3433   -3.0688   17.8657 Cl  0  0  0  0  0  0  0  0  0  0  0  0
   22.5780   -3.7041   18.7153 C   0  0  0  0  0  0  0  0  0  0  0  0
   20.8006   -7.0130   14.7395 C   0  0  0  0  0  0  0  0  0  0  0  0
   19.9860   -7.7366   13.8262 C   0  0  0  0  0  0  0  0  0  0  0  0
   20.4800   -7.9716   12.5996 F   0  0  0  0  0  0  0  0  0  0  0  0
   18.7070   -8.2219   14.1219 C   0  0  0  0  0  0  0  0  0  0  0  0
   18.2880   -7.9102   15.4205 C   0  0  0  0  0  0  0  0  0  0  0  0
   17.1292   -8.2238   16.0250 N   0  0  0  0  0  0  0  0  0  0  0  0
  1  2  1  0
  2  3  1  0
  3  4  2  0
  4  5  1  0
  5  6  1  0
  6  7  1  6
  6  8  1  0
  9  8  1  6
  9 10  1  0
 10 11  1  0
 11 12  1  0
 12 13  1  0
 13 14  2  0
 14 15  1  0
 15 16  2  0
 16 17  1  0
 17 18  1  0
 17 19  1  0
 17 20  1  0
 16 21  1  0
 21 22  2  0
 22 23  1  0
 12 24  1  0
  5 25  2  0
 25 26  1  0
 26 27  1  0
 26 28  2  0
 28 29  1  0
 29 30  2  0
 30  2  1  0
 29  4  1  0
 24  9  1  0
 22 13  1  0
M  END
>  <energy_score>  (1929) 
-51.277467

>  <inchikey>  (1929) 
MBMJZUQNYIXZQB-UHFFFAOYSA-N

>  <smiles>  (1929) 
Cn1cc2c(C(O)NC3CCN(c4ncc(C(F)(F)F)cc4Cl)C3)cc(F)cc2n1

>  <ref_pdb>  (1929) 
A3181a

>  <alias>  (1929) 
MBMJZUQNYIXZQB-UHFFFAOYSA-N-P103-P12-P103-601509

>  <HIPPO Pose ID>  (1929) 
516193

>  <name>  (1929) 
MBMJZUQNYIXZQB-UHFFFAOYSA-N-P103-P12-P103-601509

>  <HIPPO Compound ID>  (1929) 
293482

>  <ref_mols>  (1929) 
A0497a,A1105b

>  <distance_score>  (1929) 
1.283497

>  <inspiration_score>  (1929) 
None

$$$$
PYBMSLFSJHCZHU-UHFFFAOYSA-N-P103-P12-P103-601509
     RDKit          3D

 30 33  0  0  0  0  0  0  0  0999 V2000
   18.8386   -2.9045   17.6849 C   0  0  0  0  0  0  0  0  0  0  0  0
   18.2712   -3.4569   18.8526 O   0  0  0  0  0  0  0  0  0  0  0  0
   17.9343   -4.8296   18.7255 C   0  0  1  0  0  0  0  0  0  0  0  0
   18.0864   -5.3628   20.0776 N   0  0  0  0  0  0  0  0  0  0  0  0
   19.4436   -5.7592   20.5004 C   0  0  2  0  0  0  0  0  0  0  0  0
   20.5871   -4.7658   20.3098 C   0  0  0  0  0  0  0  0  0  0  0  0
   21.2465   -5.1542   18.9794 C   0  0  0  0  0  0  0  0  0  0  0  0
   20.8389   -6.5390   18.6972 N   0  0  0  0  0  0  0  0  0  0  0  0
   20.4357   -6.9393   17.4220 C   0  0  0  0  0  0  0  0  0  0  0  0
   19.5241   -7.9474   17.3788 N   0  0  0  0  0  0  0  0  0  0  0  0
   18.9698   -8.3539   16.2186 C   0  0  0  0  0  0  0  0  0  0  0  0
   19.2799   -7.7955   15.0105 C   0  0  0  0  0  0  0  0  0  0  0  0
   18.6528   -8.3230   13.7633 C   0  0  0  0  0  0  0  0  0  0  0  0
   18.8651   -9.6606   13.6016 F   0  0  0  0  0  0  0  0  0  0  0  0
   19.1287   -7.7471   12.6206 F   0  0  0  0  0  0  0  0  0  0  0  0
   17.3013   -8.1616   13.7169 F   0  0  0  0  0  0  0  0  0  0  0  0
   20.2635   -6.8091   15.0159 C   0  0  0  0  0  0  0  0  0  0  0  0
   20.8749   -6.3997   16.2091 C   0  0  0  0  0  0  0  0  0  0  0  0
   22.2076   -5.3093   16.0387 Cl  0  0  0  0  0  0  0  0  0  0  0  0
   20.0343   -7.0262   19.8348 C   0  0  0  0  0  0  0  0  0  0  0  0
   16.5183   -5.0425   18.1881 C   0  0  0  0  0  0  0  0  0  0  0  0
   15.6416   -3.9579   17.9503 C   0  0  0  0  0  0  0  0  0  0  0  0
   14.3640   -4.1314   17.4190 C   0  0  0  0  0  0  0  0  0  0  0  0
   13.8838   -5.3963   17.1073 C   0  0  0  0  0  0  0  0  0  0  0  0
   14.7089   -6.4855   17.3861 C   0  0  0  0  0  0  0  0  0  0  0  0
   15.9878   -6.3352   17.9189 C   0  0  0  0  0  0  0  0  0  0  0  0
   16.4160   -7.6664   18.1239 C   0  0  0  0  0  0  0  0  0  0  0  0
   15.5584   -8.5835   17.6693 N   0  0  0  0  0  0  0  0  0  0  0  0
   14.5112   -7.8387   17.2699 N   0  0  0  0  0  0  0  0  0  0  0  0
   13.3194   -8.5065   16.8093 C   0  0  0  0  0  0  0  0  0  0  0  0
  1  2  1  0
  2  3  1  0
  3  4  1  1
  5  4  1  6
  5  6  1  0
  6  7  1  0
  7  8  1  0
  8  9  1  0
  9 10  2  0
 10 11  1  0
 11 12  2  0
 12 13  1  0
 13 14  1  0
 13 15  1  0
 13 16  1  0
 12 17  1  0
 17 18  2  0
 18 19  1  0
  8 20  1  0
  3 21  1  0
 21 22  2  0
 22 23  1  0
 23 24  2  0
 24 25  1  0
 25 26  2  0
 26 27  1  0
 27 28  2  0
 28 29  1  0
 29 30  1  0
 20  5  1  0
 26 21  1  0
 18  9  1  0
 29 25  1  0
M  END
>  <energy_score>  (1930) 
-39.834863

>  <inchikey>  (1930) 
PYBMSLFSJHCZHU-UHFFFAOYSA-N

>  <smiles>  (1930) 
COC(NC1CCN(c2ncc(C(F)(F)F)cc2Cl)C1)c1cccc2c1cnn2C

>  <ref_pdb>  (1930) 
A3181a

>  <alias>  (1930) 
PYBMSLFSJHCZHU-UHFFFAOYSA-N-P103-P12-P103-601509

>  <HIPPO Pose ID>  (1930) 
516203

>  <name>  (1930) 
PYBMSLFSJHCZHU-UHFFFAOYSA-N-P103-P12-P103-601509

>  <HIPPO Compound ID>  (1930) 
293487

>  <ref_mols>  (1930) 
A0497a,A1105b

>  <distance_score>  (1930) 
1.691934

>  <inspiration_score>  (1930) 
None

$$$$
CHPCQAOFIQMZCM-UHFFFAOYSA-N-P103-P12-P103-601509
     RDKit          3D

 31 34  0  0  0  0  0  0  0  0999 V2000
   18.0027   -3.3396   17.8903 O   0  0  0  0  0  0  0  0  0  0  0  0
   17.3659   -4.0681   18.9085 C   0  0  2  0  0  0  0  0  0  0  0  0
   18.2878   -4.9097   19.6308 N   0  0  0  0  0  0  0  0  0  0  0  0
   19.4878   -4.3105   20.2288 C   0  0  2  0  0  0  0  0  0  0  0  0
   20.1553   -3.0914   19.5992 C   0  0  0  0  0  0  0  0  0  0  0  0
   20.9471   -3.6394   18.4058 C   0  0  0  0  0  0  0  0  0  0  0  0
   21.2091   -5.0712   18.7022 N   0  0  0  0  0  0  0  0  0  0  0  0
   20.6016   -5.9842   17.7891 C   0  0  0  0  0  0  0  0  0  0  0  0
   19.5635   -5.5745   17.0273 N   0  0  0  0  0  0  0  0  0  0  0  0
   18.7642   -6.4958   16.4564 C   0  0  0  0  0  0  0  0  0  0  0  0
   18.9658   -7.8456   16.5454 C   0  0  0  0  0  0  0  0  0  0  0  0
   17.9928   -8.7818   15.9453 C   0  0  0  0  0  0  0  0  0  0  0  0
   16.8898   -8.2056   15.4030 F   0  0  0  0  0  0  0  0  0  0  0  0
   18.5520   -9.5040   14.9296 F   0  0  0  0  0  0  0  0  0  0  0  0
   17.5366   -9.7167   16.8261 F   0  0  0  0  0  0  0  0  0  0  0  0
   20.1129   -8.2751   17.1979 C   0  0  0  0  0  0  0  0  0  0  0  0
   20.9434   -7.3442   17.8190 C   0  0  0  0  0  0  0  0  0  0  0  0
   22.3238   -7.9432   18.6744 Cl  0  0  0  0  0  0  0  0  0  0  0  0
   20.6599   -5.3179   20.0686 C   0  0  0  0  0  0  0  0  0  0  0  0
   16.2187   -4.8069   18.2422 C   0  0  0  0  0  0  0  0  0  0  0  0
   15.1626   -4.0188   17.6990 C   0  0  0  0  0  0  0  0  0  0  0  0
   13.9904   -4.5257   17.0795 C   0  0  0  0  0  0  0  0  0  0  0  0
   13.7285   -5.8973   16.9451 C   0  0  0  0  0  0  0  0  0  0  0  0
   14.6923   -6.7275   17.5226 C   0  0  0  0  0  0  0  0  0  0  0  0
   14.6860   -8.0673   17.6368 N   0  0  0  0  0  0  0  0  0  0  0  0
   15.7146   -8.3300   18.4745 N   0  0  0  0  0  0  0  0  0  0  0  0
   15.8687   -9.6519   19.0752 C   0  0  0  0  0  0  0  0  0  0  0  0
   17.1750   -9.9106   19.3739 F   0  0  0  0  0  0  0  0  0  0  0  0
   15.1942   -9.7416   20.2542 F   0  0  0  0  0  0  0  0  0  0  0  0
   16.5364   -7.2512   18.6841 C   0  0  0  0  0  0  0  0  0  0  0  0
   15.8901   -6.1769   18.1249 C   0  0  0  0  0  0  0  0  0  0  0  0
  2  1  1  6
  2  3  1  0
  4  3  1  6
  4  5  1  0
  5  6  1  0
  6  7  1  0
  7  8  1  0
  8  9  2  0
  9 10  1  0
 10 11  2  0
 11 12  1  0
 12 13  1  0
 12 14  1  0
 12 15  1  0
 11 16  1  0
 16 17  2  0
 17 18  1  0
  7 19  1  0
  2 20  1  0
 20 21  2  0
 21 22  1  0
 22 23  2  0
 23 24  1  0
 24 25  2  0
 25 26  1  0
 26 27  1  0
 27 28  1  0
 27 29  1  0
 26 30  1  0
 30 31  2  0
 19  4  1  0
 31 20  1  0
 17  8  1  0
 31 24  1  0
M  END
>  <energy_score>  (1931) 
-43.536017

>  <inchikey>  (1931) 
CHPCQAOFIQMZCM-UHFFFAOYSA-N

>  <smiles>  (1931) 
OC(NC1CCN(c2ncc(C(F)(F)F)cc2Cl)C1)c1cccc2nn(C(F)F)cc12

>  <ref_pdb>  (1931) 
A3181a

>  <alias>  (1931) 
CHPCQAOFIQMZCM-UHFFFAOYSA-N-P103-P12-P103-601509

>  <HIPPO Pose ID>  (1931) 
516217

>  <name>  (1931) 
CHPCQAOFIQMZCM-UHFFFAOYSA-N-P103-P12-P103-601509

>  <HIPPO Compound ID>  (1931) 
293494

>  <ref_mols>  (1931) 
A0497a,A1105b

>  <distance_score>  (1931) 
1.941901

>  <inspiration_score>  (1931) 
None

$$$$
MCRXBMAILDIDDA-UHFFFAOYSA-N-P103-P12-P103-601509
     RDKit          3D

 31 35  0  0  0  0  0  0  0  0999 V2000
   19.0675   -2.4527   18.4439 C   0  0  0  0  0  0  0  0  0  0  0  0
   18.5939   -3.7352   18.0855 O   0  0  0  0  0  0  0  0  0  0  0  0
   17.7160   -4.2990   19.0335 C   0  0  2  0  0  0  0  0  0  0  0  0
   18.3719   -5.3269   19.8368 N   0  0  0  0  0  0  0  0  0  0  0  0
   19.6711   -4.9534   20.4130 C   0  0  1  0  0  0  0  0  0  0  0  0
   20.1210   -6.0267   21.3975 C   0  0  0  0  0  0  0  0  0  0  0  0
   20.7225   -7.1347   20.5138 C   0  0  0  0  0  0  0  0  0  0  0  0
   21.1745   -6.4576   19.2758 N   0  0  0  0  0  0  0  0  0  0  0  0
   20.6187   -6.9879   18.0884 C   0  0  0  0  0  0  0  0  0  0  0  0
   20.7727   -6.3278   16.8632 C   0  0  0  0  0  0  0  0  0  0  0  0
   20.0520   -6.7412   15.7433 C   0  0  0  0  0  0  0  0  0  0  0  0
   19.2072   -7.8374   15.8379 C   0  0  0  0  0  0  0  0  0  0  0  0
   18.4067   -8.2829   14.7202 C   0  0  0  0  0  0  0  0  0  0  0  0
   18.6554   -8.2344   13.4281 N   0  0  0  0  0  0  0  0  0  0  0  0
   17.5657   -8.8716   12.8988 C   0  0  0  0  0  0  0  0  0  0  0  0
   17.4056   -9.0928   11.4500 C   0  0  0  0  0  0  0  0  0  0  0  0
   16.6443   -9.2631   13.7872 N   0  0  0  0  0  0  0  0  0  0  0  0
   17.2098   -8.8815   15.0114 O   0  0  0  0  0  0  0  0  0  0  0  0
   19.2173   -8.5190   17.0407 C   0  0  0  0  0  0  0  0  0  0  0  0
   19.9204   -8.1413   18.1376 N   0  0  0  0  0  0  0  0  0  0  0  0
   20.8886   -5.0163   19.4509 C   0  0  0  0  0  0  0  0  0  0  0  0
   16.4741   -4.8003   18.2829 C   0  0  0  0  0  0  0  0  0  0  0  0
   15.5197   -3.8297   17.8861 C   0  0  0  0  0  0  0  0  0  0  0  0
   14.2989   -4.1635   17.3017 C   0  0  0  0  0  0  0  0  0  0  0  0
   13.9614   -5.4908   17.0728 C   0  0  0  0  0  0  0  0  0  0  0  0
   14.8835   -6.4667   17.4557 C   0  0  0  0  0  0  0  0  0  0  0  0
   16.1095   -6.1547   18.0453 C   0  0  0  0  0  0  0  0  0  0  0  0
   16.6373   -7.4225   18.3822 C   0  0  0  0  0  0  0  0  0  0  0  0
   15.8821   -8.4483   17.9828 N   0  0  0  0  0  0  0  0  0  0  0  0
   14.8250   -7.8382   17.4192 N   0  0  0  0  0  0  0  0  0  0  0  0
   13.7417   -8.6421   16.9096 C   0  0  0  0  0  0  0  0  0  0  0  0
  1  2  1  0
  2  3  1  0
  3  4  1  6
  5  4  1  6
  5  6  1  0
  6  7  1  0
  7  8  1  0
  8  9  1  0
  9 10  2  0
 10 11  1  0
 11 12  2  0
 12 13  1  0
 13 14  2  0
 14 15  1  0
 15 16  1  0
 15 17  2  0
 17 18  1  0
 12 19  1  0
 19 20  2  0
  8 21  1  0
  3 22  1  0
 22 23  2  0
 23 24  1  0
 24 25  2  0
 25 26  1  0
 26 27  2  0
 27 28  1  0
 28 29  2  0
 29 30  1  0
 30 31  1  0
 21  5  1  0
 27 22  1  0
 20  9  1  0
 30 26  1  0
 18 13  1  0
M  END
>  <energy_score>  (1932) 
-43.895336

>  <inchikey>  (1932) 
MCRXBMAILDIDDA-UHFFFAOYSA-N

>  <smiles>  (1932) 
COC(NC1CCN(c2ccc(-c3nc(C)no3)cn2)C1)c1cccc2c1cnn2C

>  <ref_pdb>  (1932) 
A3181a

>  <alias>  (1932) 
MCRXBMAILDIDDA-UHFFFAOYSA-N-P103-P12-P103-601509

>  <HIPPO Pose ID>  (1932) 
516221

>  <name>  (1932) 
MCRXBMAILDIDDA-UHFFFAOYSA-N-P103-P12-P103-601509

>  <HIPPO Compound ID>  (1932) 
293496

>  <ref_mols>  (1932) 
A0497a,A1105b

>  <distance_score>  (1932) 
1.207042

>  <inspiration_score>  (1932) 
None

$$$$
XEPDZTJRPVZLAW-UHFFFAOYSA-N-P103-P12-P103-601509
     RDKit          3D

 31 34  0  0  0  0  0  0  0  0999 V2000
   18.0215   -3.2949   17.8352 O   0  0  0  0  0  0  0  0  0  0  0  0
   17.3678   -3.9677   18.8784 C   0  0  2  0  0  0  0  0  0  0  0  0
   18.2631   -4.8247   19.6224 N   0  0  0  0  0  0  0  0  0  0  0  0
   19.4974   -4.2496   20.1774 C   0  0  2  0  0  0  0  0  0  0  0  0
   20.1950   -3.0710   19.5049 C   0  0  0  0  0  0  0  0  0  0  0  0
   20.9442   -3.6774   18.3126 C   0  0  0  0  0  0  0  0  0  0  0  0
   21.1742   -5.1043   18.6533 N   0  0  0  0  0  0  0  0  0  0  0  0
   20.5551   -6.0341   17.7681 C   0  0  0  0  0  0  0  0  0  0  0  0
   19.5171   -5.6390   16.9976 N   0  0  0  0  0  0  0  0  0  0  0  0
   18.7294   -6.5709   16.4265 C   0  0  0  0  0  0  0  0  0  0  0  0
   18.9240   -7.9201   16.5515 C   0  0  0  0  0  0  0  0  0  0  0  0
   17.9608   -8.8687   15.9502 C   0  0  0  0  0  0  0  0  0  0  0  0
   18.4489   -9.3879   14.7822 F   0  0  0  0  0  0  0  0  0  0  0  0
   17.7039   -9.9575   16.7280 F   0  0  0  0  0  0  0  0  0  0  0  0
   16.7507   -8.3451   15.6113 F   0  0  0  0  0  0  0  0  0  0  0  0
   20.0652   -8.3365   17.2224 C   0  0  0  0  0  0  0  0  0  0  0  0
   20.8932   -7.3941   17.8291 C   0  0  0  0  0  0  0  0  0  0  0  0
   22.2672   -7.9784   18.7054 Cl  0  0  0  0  0  0  0  0  0  0  0  0
   20.6308   -5.3009   20.0278 C   0  0  0  0  0  0  0  0  0  0  0  0
   16.1898   -4.6968   18.2367 C   0  0  0  0  0  0  0  0  0  0  0  0
   15.1563   -3.8806   17.7262 C   0  0  0  0  0  0  0  0  0  0  0  0
   14.0145   -4.4021   17.1348 C   0  0  0  0  0  0  0  0  0  0  0  0
   13.8283   -5.7760   17.0395 C   0  0  0  0  0  0  0  0  0  0  0  0
   14.8054   -6.6022   17.5951 C   0  0  0  0  0  0  0  0  0  0  0  0
   15.9706   -6.1013   18.1717 C   0  0  0  0  0  0  0  0  0  0  0  0
   16.6206   -7.2595   18.6701 C   0  0  0  0  0  0  0  0  0  0  0  0
   15.9684   -8.3932   18.4142 N   0  0  0  0  0  0  0  0  0  0  0  0
   14.8565   -7.9674   17.7592 N   0  0  0  0  0  0  0  0  0  0  0  0
   13.8707   -8.9281   17.2828 C   0  0  0  0  0  0  0  0  0  0  0  0
   12.6837   -8.8077   17.9366 F   0  0  0  0  0  0  0  0  0  0  0  0
   13.5998   -8.7517   15.9572 F   0  0  0  0  0  0  0  0  0  0  0  0
  2  1  1  6
  2  3  1  0
  4  3  1  6
  4  5  1  0
  5  6  1  0
  6  7  1  0
  7  8  1  0
  8  9  2  0
  9 10  1  0
 10 11  2  0
 11 12  1  0
 12 13  1  0
 12 14  1  0
 12 15  1  0
 11 16  1  0
 16 17  2  0
 17 18  1  0
  7 19  1  0
  2 20  1  0
 20 21  2  0
 21 22  1  0
 22 23  2  0
 23 24  1  0
 24 25  2  0
 25 26  1  0
 26 27  2  0
 27 28  1  0
 28 29  1  0
 29 30  1  0
 29 31  1  0
 19  4  1  0
 25 20  1  0
 17  8  1  0
 28 24  1  0
M  END
>  <energy_score>  (1933) 
-47.55476

>  <inchikey>  (1933) 
XEPDZTJRPVZLAW-UHFFFAOYSA-N

>  <smiles>  (1933) 
OC(NC1CCN(c2ncc(C(F)(F)F)cc2Cl)C1)c1cccc2c1cnn2C(F)F

>  <ref_pdb>  (1933) 
A3181a

>  <alias>  (1933) 
XEPDZTJRPVZLAW-UHFFFAOYSA-N-P103-P12-P103-601509

>  <HIPPO Pose ID>  (1933) 
516229

>  <name>  (1933) 
XEPDZTJRPVZLAW-UHFFFAOYSA-N-P103-P12-P103-601509

>  <HIPPO Compound ID>  (1933) 
293500

>  <ref_mols>  (1933) 
A0497a,A1105b

>  <distance_score>  (1933) 
1.921507

>  <inspiration_score>  (1933) 
None

$$$$
LWCGQZUDNWYOQC-UHFFFAOYSA-N-P103-P12-P103-601509
     RDKit          3D

 31 35  0  0  0  0  0  0  0  0999 V2000
   15.7043   -9.0782   17.6417 C   0  0  0  0  0  0  0  0  0  0  0  0
   16.9616   -8.7215   17.0277 N   0  0  0  0  0  0  0  0  0  0  0  0
   18.1549   -8.5259   17.6656 C   0  0  0  0  0  0  0  0  0  0  0  0
   19.0202   -8.1228   16.6829 C   0  0  0  0  0  0  0  0  0  0  0  0
   20.3760   -7.8034   16.8474 C   0  0  0  0  0  0  0  0  0  0  0  0
   21.1884   -8.0157   18.0934 C   0  0  0  0  0  0  0  0  0  0  0  0
   22.4887   -7.3344   18.1000 N   0  0  0  0  0  0  0  0  0  0  0  0
   22.4662   -6.1374   18.9529 C   0  0  0  0  0  0  0  0  0  0  0  0
   22.6349   -6.4833   20.4371 C   0  0  0  0  0  0  0  0  0  0  0  0
   22.5056   -5.2169   21.2915 C   0  0  0  0  0  0  0  0  0  0  0  0
   22.7364   -3.9904   20.5146 N   0  0  0  0  0  0  0  0  0  0  0  0
   22.6189   -2.7634   21.3238 C   0  0  1  0  0  0  0  0  0  0  0  0
   22.7184   -1.4647   20.5103 C   0  0  0  0  0  0  0  0  0  0  0  0
   21.3788   -1.4161   19.7768 C   0  0  0  0  0  0  0  0  0  0  0  0
   20.4040   -1.9968   20.7308 N   0  0  0  0  0  0  0  0  0  0  0  0
   19.5070   -2.8901   20.1065 C   0  0  0  0  0  0  0  0  0  0  0  0
   18.8070   -2.4616   18.9769 C   0  0  0  0  0  0  0  0  0  0  0  0
   17.9519   -3.3174   18.2958 C   0  0  0  0  0  0  0  0  0  0  0  0
   17.7670   -4.5894   18.7788 C   0  0  0  0  0  0  0  0  0  0  0  0
   16.6570   -5.6113   17.9790 Cl  0  0  0  0  0  0  0  0  0  0  0  0
   18.4567   -4.9534   19.9206 C   0  0  0  0  0  0  0  0  0  0  0  0
   19.2980   -4.1306   20.5990 N   0  0  0  0  0  0  0  0  0  0  0  0
   21.1703   -2.5489   21.8706 C   0  0  0  0  0  0  0  0  0  0  0  0
   23.8991   -4.1348   19.6478 C   0  0  0  0  0  0  0  0  0  0  0  0
   23.6068   -5.1829   18.5547 C   0  0  0  0  0  0  0  0  0  0  0  0
   20.9389   -7.4397   15.5934 C   0  0  0  0  0  0  0  0  0  0  0  0
   20.2296   -7.4600   14.3536 C   0  0  0  0  0  0  0  0  0  0  0  0
   21.1765   -6.9784   12.7753 Br  0  0  0  0  0  0  0  0  0  0  0  0
   18.8850   -7.8511   14.2248 C   0  0  0  0  0  0  0  0  0  0  0  0
   18.2761   -8.1646   15.4463 C   0  0  0  0  0  0  0  0  0  0  0  0
   17.0199   -8.5783   15.6895 N   0  0  0  0  0  0  0  0  0  0  0  0
  1  2  1  0
  2  3  1  0
  3  4  2  0
  4  5  1  0
  5  6  1  0
  6  7  1  0
  7  8  1  0
  8  9  1  0
  9 10  1  0
 10 11  1  0
 12 11  1  6
 12 13  1  0
 13 14  1  0
 14 15  1  0
 15 16  1  0
 16 17  2  0
 17 18  1  0
 18 19  2  0
 19 20  1  0
 19 21  1  0
 21 22  2  0
 15 23  1  0
 11 24  1  0
 24 25  1  0
  5 26  2  0
 26 27  1  0
 27 28  1  0
 27 29  2  0
 29 30  1  0
 30 31  2  0
 31  2  1  0
 30  4  1  0
 25  8  1  0
 23 12  1  0
 22 16  1  0
M  END
>  <energy_score>  (1934) 
-69.024232

>  <inchikey>  (1934) 
LWCGQZUDNWYOQC-UHFFFAOYSA-N

>  <smiles>  (1934) 
Cn1cc2c(CNC3CCN(C4CCN(c5ccc(Cl)cn5)C4)CC3)cc(Br)cc2n1

>  <ref_pdb>  (1934) 
A3181a

>  <alias>  (1934) 
LWCGQZUDNWYOQC-UHFFFAOYSA-N-P103-P12-P103-601509

>  <HIPPO Pose ID>  (1934) 
516231

>  <name>  (1934) 
LWCGQZUDNWYOQC-UHFFFAOYSA-N-P103-P12-P103-601509

>  <HIPPO Compound ID>  (1934) 
293501

>  <ref_mols>  (1934) 
A0497a,A1105b

>  <distance_score>  (1934) 
1.434483

>  <inspiration_score>  (1934) 
None

$$$$
HZSRUMMGEKPYAY-UHFFFAOYSA-N-P12-P12-P103-601509
     RDKit          3D

 31 35  0  0  0  0  0  0  0  0999 V2000
   15.7606   -7.9905   18.0075 C   0  0  0  0  0  0  0  0  0  0  0  0
   16.9423   -7.8356   17.1920 N   0  0  0  0  0  0  0  0  0  0  0  0
   18.2242   -7.6716   17.6325 C   0  0  0  0  0  0  0  0  0  0  0  0
   18.9773   -7.5009   16.5012 C   0  0  0  0  0  0  0  0  0  0  0  0
   20.3685   -7.3032   16.4398 C   0  0  0  0  0  0  0  0  0  0  0  0
   21.3402   -7.3869   17.5955 C   0  0  1  0  0  0  0  0  0  0  0  0
   21.6072   -8.7618   17.8411 O   0  0  0  0  0  0  0  0  0  0  0  0
   22.6285   -6.7470   17.3999 N   0  0  0  0  0  0  0  0  0  0  0  0
   22.6291   -5.3073   17.6447 C   0  0  0  0  0  0  0  0  0  0  0  0
   23.7511   -4.6047   16.8678 C   0  0  0  0  0  0  0  0  0  0  0  0
   23.7773   -3.0996   17.1962 C   0  0  0  0  0  0  0  0  0  0  0  0
   23.7170   -2.7771   18.6354 N   0  0  0  0  0  0  0  0  0  0  0  0
   22.6769   -1.7838   18.9769 C   0  0  2  0  0  0  0  0  0  0  0  0
   22.5125   -1.4370   20.4613 C   0  0  0  0  0  0  0  0  0  0  0  0
   21.1411   -0.7730   20.5112 C   0  0  0  0  0  0  0  0  0  0  0  0
   20.3074   -1.5039   19.5437 N   0  0  0  0  0  0  0  0  0  0  0  0
   19.6114   -2.6092   20.0950 C   0  0  0  0  0  0  0  0  0  0  0  0
   18.5795   -3.1892   19.3544 C   0  0  0  0  0  0  0  0  0  0  0  0
   18.0843   -4.4450   19.7067 C   0  0  0  0  0  0  0  0  0  0  0  0
   18.5850   -5.0589   20.8428 C   0  0  0  0  0  0  0  0  0  0  0  0
   18.1164   -6.6370   21.3271 Cl  0  0  0  0  0  0  0  0  0  0  0  0
   19.5238   -4.3731   21.5887 C   0  0  0  0  0  0  0  0  0  0  0  0
   20.0431   -3.1744   21.2395 N   0  0  0  0  0  0  0  0  0  0  0  0
   21.2231   -2.0357   18.4982 C   0  0  0  0  0  0  0  0  0  0  0  0
   23.8081   -3.9705   19.4738 C   0  0  0  0  0  0  0  0  0  0  0  0
   22.7763   -5.0501   19.1559 C   0  0  0  0  0  0  0  0  0  0  0  0
   20.7673   -7.2020   15.0750 C   0  0  0  0  0  0  0  0  0  0  0  0
   19.8919   -7.3131   13.9502 C   0  0  0  0  0  0  0  0  0  0  0  0
   18.5114   -7.5517   14.0656 C   0  0  0  0  0  0  0  0  0  0  0  0
   18.0623   -7.6371   15.3910 C   0  0  0  0  0  0  0  0  0  0  0  0
   16.8215   -7.8717   15.8514 N   0  0  0  0  0  0  0  0  0  0  0  0
  1  2  1  0
  2  3  1  0
  3  4  2  0
  4  5  1  0
  5  6  1  0
  6  7  1  6
  6  8  1  0
  8  9  1  0
  9 10  1  0
 10 11  1  0
 11 12  1  0
 13 12  1  1
 13 14  1  0
 14 15  1  0
 15 16  1  0
 16 17  1  0
 17 18  2  0
 18 19  1  0
 19 20  2  0
 20 21  1  0
 20 22  1  0
 22 23  2  0
 16 24  1  0
 12 25  1  0
 25 26  1  0
  5 27  2  0
 27 28  1  0
 28 29  2  0
 29 30  1  0
 30 31  2  0
 31  2  1  0
 30  4  1  0
 26  9  1  0
 24 13  1  0
 23 17  1  0
M  END
>  <energy_score>  (1935) 
-63.301575

>  <inchikey>  (1935) 
HZSRUMMGEKPYAY-UHFFFAOYSA-N

>  <smiles>  (1935) 
Cn1cc2c(C(O)NC3CCN(C4CCN(c5ccc(Cl)cn5)C4)CC3)cccc2n1

>  <ref_pdb>  (1935) 
A3181a

>  <alias>  (1935) 
HZSRUMMGEKPYAY-UHFFFAOYSA-N-P12-P12-P103-601509

>  <HIPPO Pose ID>  (1935) 
516234

>  <name>  (1935) 
HZSRUMMGEKPYAY-UHFFFAOYSA-N-P12-P12-P103-601509

>  <HIPPO Compound ID>  (1935) 
293503

>  <ref_mols>  (1935) 
A0497a,A1105b

>  <distance_score>  (1935) 
1.065752

>  <inspiration_score>  (1935) 
None

$$$$
OCNNHGNAZQPDFQ-UHFFFAOYSA-N-P103-P12-P103-601509
     RDKit          3D

 31 35  0  0  0  0  0  0  0  0999 V2000
   17.6929   -9.4124   11.6314 C   0  0  0  0  0  0  0  0  0  0  0  0
   17.9122   -9.0441   13.0420 C   0  0  0  0  0  0  0  0  0  0  0  0
   17.1048   -9.4629   14.0235 N   0  0  0  0  0  0  0  0  0  0  0  0
   17.6728   -8.8909   15.1641 O   0  0  0  0  0  0  0  0  0  0  0  0
   18.7745   -8.1932   14.7456 C   0  0  0  0  0  0  0  0  0  0  0  0
   19.5439   -7.5179   15.7677 C   0  0  0  0  0  0  0  0  0  0  0  0
   20.3541   -6.4269   15.4804 C   0  0  0  0  0  0  0  0  0  0  0  0
   20.9865   -5.7336   16.5149 C   0  0  0  0  0  0  0  0  0  0  0  0
   20.7655   -6.1089   17.8407 C   0  0  0  0  0  0  0  0  0  0  0  0
   21.0982   -5.2704   18.9118 N   0  0  0  0  0  0  0  0  0  0  0  0
   20.9603   -3.8057   18.6951 C   0  0  0  0  0  0  0  0  0  0  0  0
   20.1926   -3.2697   19.9073 C   0  0  0  0  0  0  0  0  0  0  0  0
   19.4058   -4.4674   20.4260 C   0  0  1  0  0  0  0  0  0  0  0  0
   18.0449   -4.7082   19.9035 N   0  0  0  0  0  0  0  0  0  0  0  0
   17.8325   -4.6170   18.4679 C   0  0  2  0  0  0  0  0  0  0  0  0
   18.0693   -3.3090   17.9825 O   0  0  0  0  0  0  0  0  0  0  0  0
   16.4406   -5.0279   18.0764 C   0  0  0  0  0  0  0  0  0  0  0  0
   15.4253   -4.0810   17.7925 C   0  0  0  0  0  0  0  0  0  0  0  0
   14.1518   -4.4139   17.2740 C   0  0  0  0  0  0  0  0  0  0  0  0
   13.3486   -3.4042   16.9355 F   0  0  0  0  0  0  0  0  0  0  0  0
   13.7187   -5.7163   17.0139 C   0  0  0  0  0  0  0  0  0  0  0  0
   14.6417   -6.6929   17.3818 C   0  0  0  0  0  0  0  0  0  0  0  0
   14.5433   -8.0306   17.3071 N   0  0  0  0  0  0  0  0  0  0  0  0
   15.6678   -8.4818   17.8895 N   0  0  0  0  0  0  0  0  0  0  0  0
   15.8407   -9.9033   18.0651 C   0  0  0  0  0  0  0  0  0  0  0  0
   16.5402   -7.5000   18.2609 C   0  0  0  0  0  0  0  0  0  0  0  0
   15.9386   -6.3271   17.8962 C   0  0  0  0  0  0  0  0  0  0  0  0
   20.4379   -5.6008   20.1901 C   0  0  0  0  0  0  0  0  0  0  0  0
   20.1187   -7.2685   18.1047 N   0  0  0  0  0  0  0  0  0  0  0  0
   19.5302   -7.9337   17.0829 C   0  0  0  0  0  0  0  0  0  0  0  0
   18.9496   -8.2438   13.4431 N   0  0  0  0  0  0  0  0  0  0  0  0
  1  2  1  0
  2  3  2  0
  3  4  1  0
  4  5  1  0
  5  6  1  0
  6  7  2  0
  7  8  1  0
  8  9  2  0
  9 10  1  0
 10 11  1  0
 11 12  1  0
 12 13  1  0
 13 14  1  6
 14 15  1  0
 15 16  1  1
 15 17  1  0
 17 18  2  0
 18 19  1  0
 19 20  1  0
 19 21  2  0
 21 22  1  0
 22 23  2  0
 23 24  1  0
 24 25  1  0
 24 26  1  0
 26 27  2  0
 13 28  1  0
  9 29  1  0
 29 30  2  0
  5 31  2  0
 31  2  1  0
 30  6  1  0
 28 10  1  0
 27 17  1  0
 27 22  1  0
M  END
>  <energy_score>  (1936) 
-49.675689

>  <inchikey>  (1936) 
OCNNHGNAZQPDFQ-UHFFFAOYSA-N

>  <smiles>  (1936) 
Cc1noc(-c2ccc(N3CCC(NC(O)c4cc(F)cc5nn(C)cc45)C3)nc2)n1

>  <ref_pdb>  (1936) 
A3181a

>  <alias>  (1936) 
OCNNHGNAZQPDFQ-UHFFFAOYSA-N-P103-P12-P103-601509

>  <HIPPO Pose ID>  (1936) 
516241

>  <name>  (1936) 
OCNNHGNAZQPDFQ-UHFFFAOYSA-N-P103-P12-P103-601509

>  <HIPPO Compound ID>  (1936) 
293506

>  <ref_mols>  (1936) 
A0497a,A1105b

>  <distance_score>  (1936) 
1.082887

>  <inspiration_score>  (1936) 
None

$$$$
VOUYSJXOJLZLEG-UHFFFAOYSA-N-P103-P12-P103-601509
     RDKit          3D

 31 35  0  0  0  0  0  0  0  0999 V2000
   17.4540   -9.4063   11.6137 C   0  0  0  0  0  0  0  0  0  0  0  0
   17.6579   -8.9585   13.0036 C   0  0  0  0  0  0  0  0  0  0  0  0
   16.7681   -9.2068   13.9722 N   0  0  0  0  0  0  0  0  0  0  0  0
   17.3656   -8.6344   15.1008 O   0  0  0  0  0  0  0  0  0  0  0  0
   18.5507   -8.0877   14.6821 C   0  0  0  0  0  0  0  0  0  0  0  0
   19.3695   -7.4468   15.6880 C   0  0  0  0  0  0  0  0  0  0  0  0
   20.3076   -6.4690   15.3732 C   0  0  0  0  0  0  0  0  0  0  0  0
   21.0692   -5.8692   16.3807 C   0  0  0  0  0  0  0  0  0  0  0  0
   20.8681   -6.2272   17.7128 C   0  0  0  0  0  0  0  0  0  0  0  0
   21.5379   -5.5438   18.7544 N   0  0  0  0  0  0  0  0  0  0  0  0
   21.3544   -4.0637   18.7145 C   0  0  0  0  0  0  0  0  0  0  0  0
   20.5772   -3.6940   19.9916 C   0  0  0  0  0  0  0  0  0  0  0  0
   19.9728   -5.0086   20.4903 C   0  0  1  0  0  0  0  0  0  0  0  0
   18.7385   -5.5425   19.8915 N   0  0  0  0  0  0  0  0  0  0  0  0
   17.9040   -4.6634   19.1231 C   0  0  1  0  0  0  0  0  0  0  0  0
   18.5993   -3.9630   18.1141 O   0  0  0  0  0  0  0  0  0  0  0  0
   16.7587   -5.4024   18.4551 C   0  0  0  0  0  0  0  0  0  0  0  0
   15.8411   -4.5427   17.8617 C   0  0  0  0  0  0  0  0  0  0  0  0
   14.6693   -5.0176   17.3277 C   0  0  0  0  0  0  0  0  0  0  0  0
   13.6061   -3.7063   16.6177 Br  0  0  0  0  0  0  0  0  0  0  0  0
   14.3300   -6.3594   17.2762 C   0  0  0  0  0  0  0  0  0  0  0  0
   15.2398   -7.2292   17.8741 C   0  0  0  0  0  0  0  0  0  0  0  0
   16.4182   -6.7863   18.4821 C   0  0  0  0  0  0  0  0  0  0  0  0
   16.9177   -7.9575   19.1101 C   0  0  0  0  0  0  0  0  0  0  0  0
   16.2194   -9.0573   18.8202 N   0  0  0  0  0  0  0  0  0  0  0  0
   15.1968   -8.5850   18.0853 N   0  0  0  0  0  0  0  0  0  0  0  0
   14.1561   -9.4869   17.6545 C   0  0  0  0  0  0  0  0  0  0  0  0
   21.1507   -5.9637   20.1231 C   0  0  0  0  0  0  0  0  0  0  0  0
   19.9941   -7.2242   18.0135 N   0  0  0  0  0  0  0  0  0  0  0  0
   19.2977   -7.8157   17.0126 C   0  0  0  0  0  0  0  0  0  0  0  0
   18.7591   -8.2426   13.3921 N   0  0  0  0  0  0  0  0  0  0  0  0
  1  2  1  0
  2  3  2  0
  3  4  1  0
  4  5  1  0
  5  6  1  0
  6  7  2  0
  7  8  1  0
  8  9  2  0
  9 10  1  0
 10 11  1  0
 11 12  1  0
 12 13  1  0
 13 14  1  6
 14 15  1  0
 15 16  1  6
 15 17  1  0
 17 18  2  0
 18 19  1  0
 19 20  1  0
 19 21  2  0
 21 22  1  0
 22 23  2  0
 23 24  1  0
 24 25  2  0
 25 26  1  0
 26 27  1  0
 13 28  1  0
  9 29  1  0
 29 30  2  0
  5 31  2  0
 31  2  1  0
 30  6  1  0
 28 10  1  0
 23 17  1  0
 26 22  1  0
M  END
>  <energy_score>  (1937) 
-34.652967

>  <inchikey>  (1937) 
VOUYSJXOJLZLEG-UHFFFAOYSA-N

>  <smiles>  (1937) 
Cc1noc(-c2ccc(N3CCC(NC(O)c4cc(Br)cc5c4cnn5C)C3)nc2)n1

>  <ref_pdb>  (1937) 
A3181a

>  <alias>  (1937) 
VOUYSJXOJLZLEG-UHFFFAOYSA-N-P103-P12-P103-601509

>  <HIPPO Pose ID>  (1937) 
516243

>  <name>  (1937) 
VOUYSJXOJLZLEG-UHFFFAOYSA-N-P103-P12-P103-601509

>  <HIPPO Compound ID>  (1937) 
293507

>  <ref_mols>  (1937) 
A0497a,A1105b

>  <distance_score>  (1937) 
1.574228

>  <inspiration_score>  (1937) 
None

$$$$
PDNMTZGGSCHKKQ-UHFFFAOYSA-N-P103-P12-P103-601509
     RDKit          3D

 32 36  0  0  0  0  0  0  0  0999 V2000
   15.7343   -8.1199   18.0354 C   0  0  0  0  0  0  0  0  0  0  0  0
   16.9489   -8.0495   17.2564 N   0  0  0  0  0  0  0  0  0  0  0  0
   18.2204   -7.9073   17.7321 C   0  0  0  0  0  0  0  0  0  0  0  0
   19.0151   -7.7921   16.6233 C   0  0  0  0  0  0  0  0  0  0  0  0
   20.4125   -7.6356   16.6090 C   0  0  0  0  0  0  0  0  0  0  0  0
   21.3293   -7.6876   17.8070 C   0  0  1  0  0  0  0  0  0  0  0  0
   21.5108   -9.0579   18.1428 O   0  0  0  0  0  0  0  0  0  0  0  0
   22.6586   -7.1344   17.6616 N   0  0  0  0  0  0  0  0  0  0  0  0
   22.7874   -5.6943   17.8420 C   0  0  0  0  0  0  0  0  0  0  0  0
   24.2246   -5.3476   18.2519 C   0  0  0  0  0  0  0  0  0  0  0  0
   24.3819   -3.8478   18.5768 C   0  0  0  0  0  0  0  0  0  0  0  0
   23.4757   -2.9409   17.8445 N   0  0  0  0  0  0  0  0  0  0  0  0
   22.2993   -2.5810   18.6536 C   0  0  1  0  0  0  0  0  0  0  0  0
   22.5558   -1.4440   19.6523 C   0  0  0  0  0  0  0  0  0  0  0  0
   21.1531   -0.8978   19.9940 C   0  0  0  0  0  0  0  0  0  0  0  0
   20.2004   -1.5621   19.0710 N   0  0  0  0  0  0  0  0  0  0  0  0
   19.5340   -2.6765   19.6429 C   0  0  0  0  0  0  0  0  0  0  0  0
   18.6110   -3.4048   18.8832 C   0  0  0  0  0  0  0  0  0  0  0  0
   18.1419   -4.6337   19.3547 C   0  0  0  0  0  0  0  0  0  0  0  0
   18.5819   -5.0901   20.5895 C   0  0  0  0  0  0  0  0  0  0  0  0
   18.1679   -6.6319   21.2187 Cl  0  0  0  0  0  0  0  0  0  0  0  0
   19.4207   -4.2763   21.3202 C   0  0  0  0  0  0  0  0  0  0  0  0
   19.8950   -3.0948   20.8756 N   0  0  0  0  0  0  0  0  0  0  0  0
   21.0442   -2.0297   17.9422 C   0  0  0  0  0  0  0  0  0  0  0  0
   23.1287   -3.5204   16.5416 C   0  0  0  0  0  0  0  0  0  0  0  0
   22.4097   -4.8766   16.5998 C   0  0  0  0  0  0  0  0  0  0  0  0
   20.8653   -7.6333   15.2594 C   0  0  0  0  0  0  0  0  0  0  0  0
   20.0221   -7.7766   14.1140 C   0  0  0  0  0  0  0  0  0  0  0  0
   20.8354   -7.7405   12.3957 Br  0  0  0  0  0  0  0  0  0  0  0  0
   18.6348   -7.9782   14.1808 C   0  0  0  0  0  0  0  0  0  0  0  0
   18.1389   -7.9729   15.4896 C   0  0  0  0  0  0  0  0  0  0  0  0
   16.8804   -8.1681   15.9183 N   0  0  0  0  0  0  0  0  0  0  0  0
  1  2  1  0
  2  3  1  0
  3  4  2  0
  4  5  1  0
  5  6  1  0
  6  7  1  6
  6  8  1  0
  8  9  1  0
  9 10  1  0
 10 11  1  0
 11 12  1  0
 13 12  1  6
 13 14  1  0
 14 15  1  0
 15 16  1  0
 16 17  1  0
 17 18  2  0
 18 19  1  0
 19 20  2  0
 20 21  1  0
 20 22  1  0
 22 23  2  0
 16 24  1  0
 12 25  1  0
 25 26  1  0
  5 27  2  0
 27 28  1  0
 28 29  1  0
 28 30  2  0
 30 31  1  0
 31 32  2  0
 32  2  1  0
 31  4  1  0
 26  9  1  0
 24 13  1  0
 23 17  1  0
M  END
>  <energy_score>  (1938) 
-51.405146

>  <inchikey>  (1938) 
PDNMTZGGSCHKKQ-UHFFFAOYSA-N

>  <smiles>  (1938) 
Cn1cc2c(C(O)NC3CCN(C4CCN(c5ccc(Cl)cn5)C4)CC3)cc(Br)cc2n1

>  <ref_pdb>  (1938) 
A3181a

>  <alias>  (1938) 
PDNMTZGGSCHKKQ-UHFFFAOYSA-N-P103-P12-P103-601509

>  <HIPPO Pose ID>  (1938) 
516247

>  <name>  (1938) 
PDNMTZGGSCHKKQ-UHFFFAOYSA-N-P103-P12-P103-601509

>  <HIPPO Compound ID>  (1938) 
293509

>  <ref_mols>  (1938) 
A0497a,A1105b

>  <distance_score>  (1938) 
1.046629

>  <inspiration_score>  (1938) 
None

$$$$
BDJUSQRVMADRGT-UHFFFAOYSA-N-P12-P12-P103-601509
     RDKit          3D

 32 36  0  0  0  0  0  0  0  0999 V2000
   16.3439   -8.7683   12.7551 C   0  0  0  0  0  0  0  0  0  0  0  0
   17.6965   -8.3490   12.6189 O   0  0  0  0  0  0  0  0  0  0  0  0
   18.3369   -8.0354   13.8037 C   0  0  0  0  0  0  0  0  0  0  0  0
   19.7165   -7.7635   13.7127 C   0  0  0  0  0  0  0  0  0  0  0  0
   20.5262   -7.4149   14.8314 C   0  0  0  0  0  0  0  0  0  0  0  0
   20.0573   -7.3001   16.1669 C   0  0  0  0  0  0  0  0  0  0  0  0
   20.9596   -6.8953   17.3030 C   0  0  2  0  0  0  0  0  0  0  0  0
   22.3029   -6.7890   16.8858 O   0  0  0  0  0  0  0  0  0  0  0  0
   20.9536   -7.8660   18.3907 N   0  0  0  0  0  0  0  0  0  0  0  0
   21.4929   -7.3204   19.6672 C   0  0  2  0  0  0  0  0  0  0  0  0
   20.7581   -8.0008   20.8465 C   0  0  0  0  0  0  0  0  0  0  0  0
   19.5107   -7.1175   21.1050 C   0  0  0  0  0  0  0  0  0  0  0  0
   19.6631   -6.0115   20.1543 N   0  0  0  0  0  0  0  0  0  0  0  0
   19.0947   -4.7861   20.4693 C   0  0  0  0  0  0  0  0  0  0  0  0
   18.2840   -4.1703   19.5175 C   0  0  0  0  0  0  0  0  0  0  0  0
   17.9282   -2.8285   19.6642 C   0  0  0  0  0  0  0  0  0  0  0  0
   18.3971   -2.1230   20.7653 C   0  0  0  0  0  0  0  0  0  0  0  0
   18.1758   -0.6987   20.9757 C   0  0  0  0  0  0  0  0  0  0  0  0
   17.6794    0.2415   20.1985 N   0  0  0  0  0  0  0  0  0  0  0  0
   17.7952    1.3662   20.9860 C   0  0  0  0  0  0  0  0  0  0  0  0
   17.3719    2.7096   20.5447 C   0  0  0  0  0  0  0  0  0  0  0  0
   18.3231    1.1563   22.1956 N   0  0  0  0  0  0  0  0  0  0  0  0
   18.5799   -0.2094   22.1932 O   0  0  0  0  0  0  0  0  0  0  0  0
   19.1477   -2.8473   21.6869 C   0  0  0  0  0  0  0  0  0  0  0  0
   19.4958   -4.1470   21.5741 N   0  0  0  0  0  0  0  0  0  0  0  0
   21.1194   -5.8607   19.9769 C   0  0  0  0  0  0  0  0  0  0  0  0
   18.6676   -7.5294   16.2150 C   0  0  0  0  0  0  0  0  0  0  0  0
   17.8540   -7.4064   17.3124 C   0  0  0  0  0  0  0  0  0  0  0  0
   16.6021   -7.7110   16.8715 N   0  0  0  0  0  0  0  0  0  0  0  0
   15.3860   -7.6770   17.6507 C   0  0  0  0  0  0  0  0  0  0  0  0
   16.5425   -8.0476   15.5719 N   0  0  0  0  0  0  0  0  0  0  0  0
   17.8019   -7.8989   15.1096 C   0  0  0  0  0  0  0  0  0  0  0  0
  1  2  1  0
  2  3  1  0
  3  4  2  0
  4  5  1  0
  5  6  2  0
  6  7  1  0
  7  8  1  6
  7  9  1  0
 10  9  1  6
 10 11  1  0
 11 12  1  0
 12 13  1  0
 13 14  1  0
 14 15  2  0
 15 16  1  0
 16 17  2  0
 17 18  1  0
 18 19  2  0
 19 20  1  0
 20 21  1  0
 20 22  2  0
 22 23  1  0
 17 24  1  0
 24 25  2  0
 13 26  1  0
  6 27  1  0
 27 28  2  0
 28 29  1  0
 29 30  1  0
 29 31  1  0
 31 32  2  0
 32  3  1  0
 26 10  1  0
 32 27  1  0
 25 14  1  0
 23 18  1  0
M  END
>  <energy_score>  (1939) 
-53.636523

>  <inchikey>  (1939) 
BDJUSQRVMADRGT-UHFFFAOYSA-N

>  <smiles>  (1939) 
COc1ccc(C(O)NC2CCN(c3ccc(-c4nc(C)no4)cn3)C2)c2cn(C)nc12

>  <ref_pdb>  (1939) 
A3181a

>  <alias>  (1939) 
BDJUSQRVMADRGT-UHFFFAOYSA-N-P12-P12-P103-601509

>  <HIPPO Pose ID>  (1939) 
516260

>  <name>  (1939) 
BDJUSQRVMADRGT-UHFFFAOYSA-N-P12-P12-P103-601509

>  <HIPPO Compound ID>  (1939) 
293516

>  <ref_mols>  (1939) 
A0497a,A1105b

>  <distance_score>  (1939) 
1.497049

>  <inspiration_score>  (1939) 
None

$$$$
UAIBBKLQMNIIGR-UHFFFAOYSA-N-P103-P12-P103-601509
     RDKit          3D

 32 36  0  0  0  0  0  0  0  0999 V2000
   18.6935   -3.1700   17.5265 C   0  0  0  0  0  0  0  0  0  0  0  0
   18.2154   -3.1543   18.8489 O   0  0  0  0  0  0  0  0  0  0  0  0
   17.5915   -4.3564   19.2799 C   0  0  2  0  0  0  0  0  0  0  0  0
   18.5322   -5.3952   19.5644 N   0  0  0  0  0  0  0  0  0  0  0  0
   19.6943   -5.1927   20.4220 C   0  0  2  0  0  0  0  0  0  0  0  0
   20.7019   -4.0952   20.0760 C   0  0  0  0  0  0  0  0  0  0  0  0
   21.5150   -4.6492   18.8944 C   0  0  0  0  0  0  0  0  0  0  0  0
   21.3593   -6.1224   18.9475 N   0  0  0  0  0  0  0  0  0  0  0  0
   20.7493   -6.6782   17.8030 C   0  0  0  0  0  0  0  0  0  0  0  0
   21.1598   -6.3432   16.5130 C   0  0  0  0  0  0  0  0  0  0  0  0
   20.4228   -6.7840   15.4069 C   0  0  0  0  0  0  0  0  0  0  0  0
   19.3086   -7.5978   15.5906 C   0  0  0  0  0  0  0  0  0  0  0  0
   18.4874   -8.1400   14.5319 C   0  0  0  0  0  0  0  0  0  0  0  0
   17.4056   -8.8873   14.6072 N   0  0  0  0  0  0  0  0  0  0  0  0
   17.1080   -9.1012   13.2885 C   0  0  0  0  0  0  0  0  0  0  0  0
   15.9372   -9.8880   12.8599 C   0  0  0  0  0  0  0  0  0  0  0  0
   17.9472   -8.5273   12.4163 N   0  0  0  0  0  0  0  0  0  0  0  0
   18.8878   -7.9076   13.2484 O   0  0  0  0  0  0  0  0  0  0  0  0
   19.0105   -7.9374   16.8879 C   0  0  0  0  0  0  0  0  0  0  0  0
   19.6904   -7.5011   17.9683 N   0  0  0  0  0  0  0  0  0  0  0  0
   20.6455   -6.4167   20.2246 C   0  0  0  0  0  0  0  0  0  0  0  0
   16.4143   -4.8368   18.4019 C   0  0  0  0  0  0  0  0  0  0  0  0
   15.4944   -3.8276   17.9634 C   0  0  0  0  0  0  0  0  0  0  0  0
   14.2729   -4.0480   17.2749 C   0  0  0  0  0  0  0  0  0  0  0  0
   13.8216   -5.3178   16.9267 C   0  0  0  0  0  0  0  0  0  0  0  0
   14.6562   -6.3653   17.3242 C   0  0  0  0  0  0  0  0  0  0  0  0
   14.4562   -7.6715   17.1113 N   0  0  0  0  0  0  0  0  0  0  0  0
   15.3876   -8.2674   17.8605 N   0  0  0  0  0  0  0  0  0  0  0  0
   15.3751   -9.7121   17.9232 C   0  0  0  0  0  0  0  0  0  0  0  0
   16.1830   -7.4037   18.5834 C   0  0  0  0  0  0  0  0  0  0  0  0
   16.9766   -7.9444   19.7252 C   0  0  0  0  0  0  0  0  0  0  0  0
   15.8945   -6.1386   18.0741 C   0  0  0  0  0  0  0  0  0  0  0  0
  1  2  1  0
  2  3  1  0
  3  4  1  6
  5  4  1  6
  5  6  1  0
  6  7  1  0
  7  8  1  0
  8  9  1  0
  9 10  2  0
 10 11  1  0
 11 12  2  0
 12 13  1  0
 13 14  2  0
 14 15  1  0
 15 16  1  0
 15 17  2  0
 17 18  1  0
 12 19  1  0
 19 20  2  0
  8 21  1  0
  3 22  1  0
 22 23  2  0
 23 24  1  0
 24 25  2  0
 25 26  1  0
 26 27  2  0
 27 28  1  0
 28 29  1  0
 28 30  1  0
 30 31  1  0
 30 32  2  0
 21  5  1  0
 32 22  1  0
 20  9  1  0
 32 26  1  0
 18 13  1  0
M  END
>  <energy_score>  (1940) 
-41.5812

>  <inchikey>  (1940) 
UAIBBKLQMNIIGR-UHFFFAOYSA-N

>  <smiles>  (1940) 
COC(NC1CCN(c2ccc(-c3nc(C)no3)cn2)C1)c1cccc2nn(C)c(C)c12

>  <ref_pdb>  (1940) 
A3181a

>  <alias>  (1940) 
UAIBBKLQMNIIGR-UHFFFAOYSA-N-P103-P12-P103-601509

>  <HIPPO Pose ID>  (1940) 
516263

>  <name>  (1940) 
UAIBBKLQMNIIGR-UHFFFAOYSA-N-P103-P12-P103-601509

>  <HIPPO Compound ID>  (1940) 
293517

>  <ref_mols>  (1940) 
A0497a,A1105b

>  <distance_score>  (1940) 
1.588561

>  <inspiration_score>  (1940) 
None

$$$$
XBKNRNAEMQQHMT-UHFFFAOYSA-N-P127-P127-P536-601509
     RDKit          3D

 30 33  0  0  0  0  0  0  0  0999 V2000
   10.2313    9.4875   22.3696 C   0  0  0  0  0  0  0  0  0  0  0  0
    9.9162   10.2094   23.5669 N   0  0  0  0  0  0  0  0  0  0  0  0
    8.9210    9.6384   24.3150 C   0  0  0  0  0  0  0  0  0  0  0  0
    8.5895    8.4766   24.3248 O   0  0  0  0  0  0  0  0  0  0  0  0
    8.3067   10.6732   25.1045 C   0  0  0  0  0  0  0  0  0  0  0  0
    7.2476   10.5292   25.9778 C   0  0  0  0  0  0  0  0  0  0  0  0
    6.8605   11.6572   26.6800 C   0  0  0  0  0  0  0  0  0  0  0  0
    7.5548   12.8629   26.5035 C   0  0  0  0  0  0  0  0  0  0  0  0
    8.6282   12.9701   25.6051 C   0  0  0  0  0  0  0  0  0  0  0  0
    8.9812   11.8632   24.8579 C   0  0  0  0  0  0  0  0  0  0  0  0
    9.9935   11.6628   23.7418 C   0  0  1  0  0  0  0  0  0  0  0  0
   11.3791   12.2232   24.1193 C   0  0  0  0  0  0  0  0  0  0  0  0
   11.9885   13.2260   23.1834 C   0  0  0  0  0  0  0  0  0  0  0  0
   13.0812   13.1792   22.8018 O   0  0  0  0  0  0  0  0  0  0  0  0
   10.8791   14.2169   22.8767 N   0  0  0  0  0  0  0  0  0  0  0  0
   10.8950   15.4197   22.1084 C   0  0  1  0  0  0  0  0  0  0  0  0
   11.3062   15.2485   20.6671 C   0  0  0  0  0  0  0  0  0  0  0  0
   10.0844   14.9760   19.8298 C   0  0  0  0  0  0  0  0  0  0  0  0
    9.0035   14.2875   20.6680 C   0  0  0  0  0  0  0  0  0  0  0  0
    8.4363   15.1079   21.7202 N   0  0  0  0  0  0  0  0  0  0  0  0
    7.6085   14.4034   22.7020 C   0  0  0  0  0  0  0  0  0  0  0  0
    6.1657   14.9213   22.7833 C   0  0  0  0  0  0  0  0  0  0  0  0
    5.5655   14.4618   23.9992 O   0  0  0  0  0  0  0  0  0  0  0  0
    4.4380   15.2327   24.4055 C   0  0  1  0  0  0  0  0  0  0  0  0
    3.1663   14.8870   23.6359 C   0  0  0  0  0  0  0  0  0  0  0  0
    1.9281   15.0510   24.5037 C   0  0  0  0  0  0  0  0  0  0  0  0
    2.0463   14.3006   25.8283 C   0  0  0  0  0  0  0  0  0  0  0  0
    3.4919   14.0429   26.2305 C   0  0  0  0  0  0  0  0  0  0  0  0
    4.3023   15.1293   25.8357 O   0  0  0  0  0  0  0  0  0  0  0  0
    9.4667   15.9867   22.2525 C   0  0  0  0  0  0  0  0  0  0  0  0
  1  2  1  0
  2  3  1  0
  3  4  2  0
  3  5  1  0
  5  6  2  0
  6  7  1  0
  7  8  2  0
  8  9  1  0
  9 10  2  0
 10 11  1  0
 11 12  1  1
 12 13  1  0
 13 14  2  0
 13 15  1  0
 16 15  1  1
 16 17  1  0
 17 18  1  0
 18 19  1  0
 19 20  1  0
 20 21  1  0
 21 22  1  0
 22 23  1  0
 24 23  1  6
 24 25  1  0
 25 26  1  0
 26 27  1  0
 27 28  1  0
 28 29  1  0
 20 30  1  0
 11  2  1  0
 30 16  1  0
 10  5  1  0
 29 24  1  0
M  END
>  <energy_score>  (1941) 
-21.216941

>  <inchikey>  (1941) 
XBKNRNAEMQQHMT-UHFFFAOYSA-N

>  <smiles>  (1941) 
CN1C(=O)c2ccccc2C1CC(=O)NC1CCCN(CCOC2CCCCO2)C1

>  <ref_pdb>  (1941) 
A3181a

>  <alias>  (1941) 
XBKNRNAEMQQHMT-UHFFFAOYSA-N-P127-P127-P536-601509

>  <HIPPO Pose ID>  (1941) 
516618

>  <name>  (1941) 
XBKNRNAEMQQHMT-UHFFFAOYSA-N-P127-P127-P536-601509

>  <HIPPO Compound ID>  (1941) 
291896

>  <ref_mols>  (1941) 
A4943b,A2293a

>  <distance_score>  (1941) 
1.571558

>  <inspiration_score>  (1941) 
None

$$$$
INBQVZWLGXIAKV-UHFFFAOYSA-N-P115-P20-P115-601510
     RDKit          3D

 25 27  0  0  0  0  0  0  0  0999 V2000
   12.9037   23.2293   24.7260 C   0  0  0  0  0  0  0  0  0  0  0  0
   12.4292   23.3307   26.0724 O   0  0  0  0  0  0  0  0  0  0  0  0
   11.0906   23.0550   26.2628 C   0  0  0  0  0  0  0  0  0  0  0  0
   10.1175   23.7283   25.4204 C   0  0  0  0  0  0  0  0  0  0  0  0
    8.8030   23.4869   25.5631 C   0  0  0  0  0  0  0  0  0  0  0  0
    8.3441   22.5115   26.4972 C   0  0  0  0  0  0  0  0  0  0  0  0
    7.1229   22.1126   26.7634 N   0  0  0  0  0  0  0  0  0  0  0  0
    7.2580   21.0593   27.6206 C   0  0  0  0  0  0  0  0  0  0  0  0
    8.5768   20.8338   27.9776 C   0  0  0  0  0  0  0  0  0  0  0  0
    9.0784   19.7959   28.9446 C   0  0  0  0  0  0  0  0  0  0  0  0
    9.3221   18.4183   28.4369 N   0  0  0  0  0  0  0  0  0  0  0  0
    8.1838   17.4743   28.2920 C   0  0  0  0  0  0  0  0  0  0  0  0
    8.7184   16.1397   27.6475 C   0  0  0  0  0  0  0  0  0  0  0  0
    7.7056   15.0033   27.3261 C   0  0  0  0  0  0  0  0  0  0  0  0
    8.0963   14.0904   26.0857 C   0  0  0  0  0  0  0  0  0  0  0  0
    7.5878   12.6760   26.0181 N   0  0  0  0  0  0  0  0  0  0  0  0
    8.1763   11.7054   25.1513 C   0  0  0  0  0  0  0  0  0  0  0  0
    9.2941   12.0503   24.2049 C   0  0  0  0  0  0  0  0  0  0  0  0
    7.7178   10.4393   25.1352 C   0  0  0  0  0  0  0  0  0  0  0  0
    6.6115   10.0442   25.9470 C   0  0  0  0  0  0  0  0  0  0  0  0
    5.9786   10.9369   26.7025 C   0  0  0  0  0  0  0  0  0  0  0  0
    6.4241   12.3494   26.7338 C   0  0  0  0  0  0  0  0  0  0  0  0
    5.7603   13.1166   27.4278 O   0  0  0  0  0  0  0  0  0  0  0  0
    9.2877   21.8555   27.2953 N   0  0  0  0  0  0  0  0  0  0  0  0
   10.6453   22.2350   27.2444 C   0  0  0  0  0  0  0  0  0  0  0  0
  1  2  1  0
  2  3  1  0
  3  4  1  0
  4  5  2  0
  5  6  1  0
  6  7  2  0
  7  8  1  0
  8  9  2  0
  9 10  1  0
 10 11  1  0
 11 12  1  0
 12 13  1  0
 13 14  1  0
 14 15  1  0
 15 16  1  0
 16 17  1  0
 17 18  1  0
 17 19  2  0
 19 20  1  0
 20 21  2  0
 21 22  1  0
 22 23  2  0
  9 24  1  0
 24 25  1  0
 25  3  2  0
 24  6  1  0
 22 16  1  0
M  END
>  <energy_score>  (1942) 
-14.262334

>  <inchikey>  (1942) 
INBQVZWLGXIAKV-UHFFFAOYSA-N

>  <smiles>  (1942) 
COc1ccc2ncc(CNCCCCn3c(C)cccc3=O)n2c1

>  <ref_pdb>  (1942) 
A0525a

>  <alias>  (1942) 
INBQVZWLGXIAKV-UHFFFAOYSA-N-P115-P20-P115-601510

>  <HIPPO Pose ID>  (1942) 
517161

>  <name>  (1942) 
INBQVZWLGXIAKV-UHFFFAOYSA-N-P115-P20-P115-601510

>  <HIPPO Compound ID>  (1942) 
309727

>  <ref_mols>  (1942) 
A1209a,A0525a

>  <distance_score>  (1942) 
1.760724

>  <inspiration_score>  (1942) 
None

$$$$
ZWZJJEFNLBFOQE-UHFFFAOYSA-N-P115-P20-P115-601510
     RDKit          3D

 25 27  0  0  0  0  0  0  0  0999 V2000
   11.3801   22.0759   29.0219 C   0  0  0  0  0  0  0  0  0  0  0  0
   10.6771   22.3520   27.7164 C   0  0  0  0  0  0  0  0  0  0  0  0
   11.3002   23.0756   26.7634 C   0  0  0  0  0  0  0  0  0  0  0  0
   10.6071   23.5170   25.5858 C   0  0  0  0  0  0  0  0  0  0  0  0
    9.2913   23.3149   25.4838 C   0  0  0  0  0  0  0  0  0  0  0  0
    8.5693   22.5525   26.5403 C   0  0  0  0  0  0  0  0  0  0  0  0
    7.3431   22.5050   26.4938 O   0  0  0  0  0  0  0  0  0  0  0  0
    9.3384   21.9457   27.5422 N   0  0  0  0  0  0  0  0  0  0  0  0
    8.6384   21.1021   28.5493 C   0  0  0  0  0  0  0  0  0  0  0  0
    7.6351   20.0294   28.0144 C   0  0  0  0  0  0  0  0  0  0  0  0
    7.9126   18.5756   28.4930 C   0  0  0  0  0  0  0  0  0  0  0  0
    6.7876   17.5734   28.0882 C   0  0  0  0  0  0  0  0  0  0  0  0
    7.1411   16.1160   28.0663 N   0  0  0  0  0  0  0  0  0  0  0  0
    7.8504   15.7890   26.8405 C   0  0  1  0  0  0  0  0  0  0  0  0
    9.2084   16.1349   27.0809 O   0  0  0  0  0  0  0  0  0  0  0  0
    7.7910   14.3541   26.3457 C   0  0  0  0  0  0  0  0  0  0  0  0
    8.5409   13.8980   25.2679 C   0  0  0  0  0  0  0  0  0  0  0  0
    8.2521   12.5798   25.1333 N   0  0  0  0  0  0  0  0  0  0  0  0
    8.8126   11.6176   24.3332 C   0  0  0  0  0  0  0  0  0  0  0  0
    8.4042   10.3488   24.4917 C   0  0  0  0  0  0  0  0  0  0  0  0
    9.2639    9.0116   23.5152 Br  0  0  0  0  0  0  0  0  0  0  0  0
    7.3969    9.9674   25.3742 N   0  0  0  0  0  0  0  0  0  0  0  0
    6.8514   10.9050   26.1125 C   0  0  0  0  0  0  0  0  0  0  0  0
    7.2935   12.2776   26.0599 C   0  0  0  0  0  0  0  0  0  0  0  0
    6.9969   13.3143   26.8329 N   0  0  0  0  0  0  0  0  0  0  0  0
  1  2  1  0
  2  3  2  0
  3  4  1  0
  4  5  2  0
  5  6  1  0
  6  7  2  0
  6  8  1  0
  8  9  1  0
  9 10  1  0
 10 11  1  0
 11 12  1  0
 12 13  1  0
 13 14  1  0
 14 15  1  1
 14 16  1  0
 16 17  2  0
 17 18  1  0
 18 19  1  0
 19 20  2  0
 20 21  1  0
 20 22  1  0
 22 23  2  0
 23 24  1  0
 24 25  2  0
  8  2  1  0
 25 16  1  0
 24 18  1  0
M  END
>  <energy_score>  (1943) 
-27.992336

>  <inchikey>  (1943) 
ZWZJJEFNLBFOQE-UHFFFAOYSA-N

>  <smiles>  (1943) 
Cc1cccc(=O)n1CCCCNC(O)c1cn2cc(Br)ncc2n1

>  <ref_pdb>  (1943) 
A0525a

>  <alias>  (1943) 
ZWZJJEFNLBFOQE-UHFFFAOYSA-N-P115-P20-P115-601510

>  <HIPPO Pose ID>  (1943) 
517171

>  <name>  (1943) 
ZWZJJEFNLBFOQE-UHFFFAOYSA-N-P115-P20-P115-601510

>  <HIPPO Compound ID>  (1943) 
309732

>  <ref_mols>  (1943) 
A1209a,A0525a

>  <distance_score>  (1943) 
1.995881

>  <inspiration_score>  (1943) 
None

$$$$
OQSCUPHJAYACPE-UHFFFAOYSA-N-P115-P20-P115-601510
     RDKit          3D

 26 28  0  0  0  0  0  0  0  0999 V2000
   13.1473   23.3989   25.2365 C   0  0  0  0  0  0  0  0  0  0  0  0
   12.2892   22.8363   26.2307 O   0  0  0  0  0  0  0  0  0  0  0  0
   10.9409   23.1153   26.1775 C   0  0  0  0  0  0  0  0  0  0  0  0
   10.3678   24.0120   25.3406 C   0  0  0  0  0  0  0  0  0  0  0  0
    8.9328   24.2045   25.2795 C   0  0  0  0  0  0  0  0  0  0  0  0
    8.1426   23.4013   26.0049 C   0  0  0  0  0  0  0  0  0  0  0  0
    8.7105   22.4385   26.8305 N   0  0  0  0  0  0  0  0  0  0  0  0
    8.0701   21.4510   27.5476 C   0  0  0  0  0  0  0  0  0  0  0  0
    9.0652   20.7087   28.1510 C   0  0  0  0  0  0  0  0  0  0  0  0
    8.9746   19.3546   28.8681 C   0  0  1  0  0  0  0  0  0  0  0  0
    8.2931   19.4705   30.1018 O   0  0  0  0  0  0  0  0  0  0  0  0
    8.2564   18.3783   28.0356 N   0  0  0  0  0  0  0  0  0  0  0  0
    8.5520   16.9607   28.3090 C   0  0  0  0  0  0  0  0  0  0  0  0
    7.7629   16.0132   27.3490 C   0  0  0  0  0  0  0  0  0  0  0  0
    8.4356   14.6440   27.0764 C   0  0  0  0  0  0  0  0  0  0  0  0
    7.9484   13.9435   25.7561 C   0  0  0  0  0  0  0  0  0  0  0  0
    7.6261   12.5040   25.8635 N   0  0  0  0  0  0  0  0  0  0  0  0
    8.1743   11.4971   25.0315 C   0  0  0  0  0  0  0  0  0  0  0  0
    9.2735   11.7795   24.0449 C   0  0  0  0  0  0  0  0  0  0  0  0
    7.6985   10.2401   25.1026 C   0  0  0  0  0  0  0  0  0  0  0  0
    6.5971    9.9169   25.9558 C   0  0  0  0  0  0  0  0  0  0  0  0
    6.0408   10.8368   26.7384 C   0  0  0  0  0  0  0  0  0  0  0  0
    6.5437   12.2235   26.7145 C   0  0  0  0  0  0  0  0  0  0  0  0
    5.9946   13.0421   27.4507 O   0  0  0  0  0  0  0  0  0  0  0  0
   10.2828   21.3750   27.9724 N   0  0  0  0  0  0  0  0  0  0  0  0
   10.0830   22.3095   27.0421 C   0  0  0  0  0  0  0  0  0  0  0  0
  1  2  1  0
  2  3  1  0
  3  4  2  0
  4  5  1  0
  5  6  2  0
  6  7  1  0
  7  8  1  0
  8  9  2  0
  9 10  1  0
 10 11  1  1
 10 12  1  0
 12 13  1  0
 13 14  1  0
 14 15  1  0
 15 16  1  0
 16 17  1  0
 17 18  1  0
 18 19  1  0
 18 20  2  0
 20 21  1  0
 21 22  2  0
 22 23  1  0
 23 24  2  0
  9 25  1  0
 25 26  2  0
 26  3  1  0
 26  7  1  0
 23 17  1  0
M  END
>  <energy_score>  (1944) 
-33.660067

>  <inchikey>  (1944) 
OQSCUPHJAYACPE-UHFFFAOYSA-N

>  <smiles>  (1944) 
COc1cccn2cc(C(O)NCCCCn3c(C)cccc3=O)nc12

>  <ref_pdb>  (1944) 
A0525a

>  <alias>  (1944) 
OQSCUPHJAYACPE-UHFFFAOYSA-N-P115-P20-P115-601510

>  <HIPPO Pose ID>  (1944) 
517411

>  <name>  (1944) 
OQSCUPHJAYACPE-UHFFFAOYSA-N-P115-P20-P115-601510

>  <HIPPO Compound ID>  (1944) 
309852

>  <ref_mols>  (1944) 
A1209a,A0525a

>  <distance_score>  (1944) 
1.727319

>  <inspiration_score>  (1944) 
None

$$$$
WTMMUMYRWRAEIA-UHFFFAOYSA-N-P115-P20-P115-601510
     RDKit          3D

 26 28  0  0  0  0  0  0  0  0999 V2000
    5.6633   21.2173   28.1191 C   0  0  0  0  0  0  0  0  0  0  0  0
    6.9657   21.7060   27.6043 C   0  0  0  0  0  0  0  0  0  0  0  0
    6.9839   22.7848   26.7554 N   0  0  0  0  0  0  0  0  0  0  0  0
    8.2359   22.9456   26.4008 C   0  0  0  0  0  0  0  0  0  0  0  0
    8.8120   23.8338   25.4464 C   0  0  0  0  0  0  0  0  0  0  0  0
   10.1438   23.8653   25.2706 C   0  0  0  0  0  0  0  0  0  0  0  0
   11.0185   23.0533   26.0872 C   0  0  0  0  0  0  0  0  0  0  0  0
   12.3427   23.1481   25.7398 O   0  0  0  0  0  0  0  0  0  0  0  0
   10.4833   22.2664   27.0490 C   0  0  0  0  0  0  0  0  0  0  0  0
    9.0830   22.1063   27.1256 N   0  0  0  0  0  0  0  0  0  0  0  0
    8.2390   21.1655   27.7685 C   0  0  0  0  0  0  0  0  0  0  0  0
    8.6448   19.8522   28.3956 C   0  0  1  0  0  0  0  0  0  0  0  0
    8.6233   20.0461   29.7864 O   0  0  0  0  0  0  0  0  0  0  0  0
    7.7187   18.7457   28.0878 N   0  0  0  0  0  0  0  0  0  0  0  0
    8.2667   17.3686   28.1873 C   0  0  0  0  0  0  0  0  0  0  0  0
    7.4724   16.2720   27.3758 C   0  0  0  0  0  0  0  0  0  0  0  0
    8.2644   14.9459   27.0812 C   0  0  0  0  0  0  0  0  0  0  0  0
    7.7957   14.1522   25.7959 C   0  0  0  0  0  0  0  0  0  0  0  0
    7.5722   12.6878   25.9378 N   0  0  0  0  0  0  0  0  0  0  0  0
    8.1409   11.7012   25.0871 C   0  0  0  0  0  0  0  0  0  0  0  0
    9.2221   12.0195   24.0923 C   0  0  0  0  0  0  0  0  0  0  0  0
    7.7141   10.4254   25.1553 C   0  0  0  0  0  0  0  0  0  0  0  0
    6.6453   10.0475   26.0265 C   0  0  0  0  0  0  0  0  0  0  0  0
    6.0750   10.9417   26.8301 C   0  0  0  0  0  0  0  0  0  0  0  0
    6.5266   12.3502   26.8138 C   0  0  0  0  0  0  0  0  0  0  0  0
    5.9682   13.1395   27.5747 O   0  0  0  0  0  0  0  0  0  0  0  0
  1  2  1  0
  2  3  1  0
  3  4  2  0
  4  5  1  0
  5  6  2  0
  6  7  1  0
  7  8  1  0
  7  9  2  0
  9 10  1  0
 10 11  1  0
 11 12  1  0
 12 13  1  1
 12 14  1  0
 14 15  1  0
 15 16  1  0
 16 17  1  0
 17 18  1  0
 18 19  1  0
 19 20  1  0
 20 21  1  0
 20 22  2  0
 22 23  1  0
 23 24  2  0
 24 25  1  0
 25 26  2  0
 11  2  2  0
 25 19  1  0
 10  4  1  0
M  END
>  <energy_score>  (1945) 
-32.190168

>  <inchikey>  (1945) 
WTMMUMYRWRAEIA-UHFFFAOYSA-N

>  <smiles>  (1945) 
Cc1nc2ccc(O)cn2c1C(O)NCCCCn1c(C)cccc1=O

>  <ref_pdb>  (1945) 
A0525a

>  <alias>  (1945) 
WTMMUMYRWRAEIA-UHFFFAOYSA-N-P115-P20-P115-601510

>  <HIPPO Pose ID>  (1945) 
517437

>  <name>  (1945) 
WTMMUMYRWRAEIA-UHFFFAOYSA-N-P115-P20-P115-601510

>  <HIPPO Compound ID>  (1945) 
309865

>  <ref_mols>  (1945) 
A1209a,A0525a

>  <distance_score>  (1945) 
1.75964

>  <inspiration_score>  (1945) 
None

$$$$
HZQPFYLANKCBPS-UHFFFAOYSA-N-P115-P20-P115-601510
     RDKit          3D

 28 30  0  0  0  0  0  0  0  0999 V2000
    4.7240   15.8549   25.6688 C   0  0  0  0  0  0  0  0  0  0  0  0
    5.2645   16.6069   26.8724 C   0  0  0  0  0  0  0  0  0  0  0  0
    6.6788   16.7470   26.8079 O   0  0  0  0  0  0  0  0  0  0  0  0
    7.4192   15.7926   27.5392 C   0  0  2  0  0  0  0  0  0  0  0  0
    8.7810   16.3347   27.7838 N   0  0  0  0  0  0  0  0  0  0  0  0
    8.8209   17.4182   28.8005 C   0  0  0  0  0  0  0  0  0  0  0  0
    8.3373   18.8523   28.4348 C   0  0  0  0  0  0  0  0  0  0  0  0
    9.2119   19.9453   29.0999 C   0  0  0  0  0  0  0  0  0  0  0  0
    8.8497   21.4210   28.7816 C   0  0  0  0  0  0  0  0  0  0  0  0
    9.5357   22.0757   27.6395 N   0  0  0  0  0  0  0  0  0  0  0  0
   10.8800   22.4919   27.7043 C   0  0  0  0  0  0  0  0  0  0  0  0
   11.6660   22.3144   28.9779 C   0  0  0  0  0  0  0  0  0  0  0  0
   11.4505   23.1262   26.6596 C   0  0  0  0  0  0  0  0  0  0  0  0
   10.6967   23.4756   25.4894 C   0  0  0  0  0  0  0  0  0  0  0  0
    9.3901   23.2073   25.4411 C   0  0  0  0  0  0  0  0  0  0  0  0
    8.7319   22.4725   26.5578 C   0  0  0  0  0  0  0  0  0  0  0  0
    7.5191   22.2850   26.4944 O   0  0  0  0  0  0  0  0  0  0  0  0
    7.5397   14.4566   26.7798 C   0  0  0  0  0  0  0  0  0  0  0  0
    8.2645   14.1386   25.6381 C   0  0  0  0  0  0  0  0  0  0  0  0
    8.0550   12.8067   25.3977 N   0  0  0  0  0  0  0  0  0  0  0  0
    8.6531   11.9200   24.5255 C   0  0  0  0  0  0  0  0  0  0  0  0
    8.3202   10.6173   24.6113 C   0  0  0  0  0  0  0  0  0  0  0  0
    9.2417    9.3451   23.5956 Br  0  0  0  0  0  0  0  0  0  0  0  0
    7.3448   10.1252   25.4702 N   0  0  0  0  0  0  0  0  0  0  0  0
    6.7764   10.9817   26.2770 C   0  0  0  0  0  0  0  0  0  0  0  0
    5.4501   10.3504   27.4835 Br  0  0  0  0  0  0  0  0  0  0  0  0
    7.1468   12.3732   26.3231 C   0  0  0  0  0  0  0  0  0  0  0  0
    6.8490   13.3153   27.2024 N   0  0  0  0  0  0  0  0  0  0  0  0
  1  2  1  0
  2  3  1  0
  3  4  1  0
  4  5  1  6
  5  6  1  0
  6  7  1  0
  7  8  1  0
  8  9  1  0
  9 10  1  0
 10 11  1  0
 11 12  1  0
 11 13  2  0
 13 14  1  0
 14 15  2  0
 15 16  1  0
 16 17  2  0
  4 18  1  0
 18 19  2  0
 19 20  1  0
 20 21  1  0
 21 22  2  0
 22 23  1  0
 22 24  1  0
 24 25  2  0
 25 26  1  0
 25 27  1  0
 27 28  2  0
 16 10  1  0
 28 18  1  0
 27 20  1  0
M  END
>  <energy_score>  (1946) 
-20.099434

>  <inchikey>  (1946) 
HZQPFYLANKCBPS-UHFFFAOYSA-N

>  <smiles>  (1946) 
CCOC(NCCCCn1c(C)cccc1=O)c1cn2cc(Br)nc(Br)c2n1

>  <ref_pdb>  (1946) 
A0525a

>  <alias>  (1946) 
HZQPFYLANKCBPS-UHFFFAOYSA-N-P115-P20-P115-601510

>  <HIPPO Pose ID>  (1946) 
517831

>  <name>  (1946) 
HZQPFYLANKCBPS-UHFFFAOYSA-N-P115-P20-P115-601510

>  <HIPPO Compound ID>  (1946) 
310062

>  <ref_mols>  (1946) 
A1209a,A0525a

>  <distance_score>  (1946) 
1.8652

>  <inspiration_score>  (1946) 
None

$$$$
NSCYGGQXHXHAGT-UHFFFAOYSA-N-P123-P22-P123-601510
     RDKit          3D

 16 16  0  0  0  0  0  0  0  0999 V2000
    7.9617   14.7961   23.0612 C   0  0  0  0  0  0  0  0  0  0  0  0
    9.1535   15.0489   22.5078 C   0  0  0  0  0  0  0  0  0  0  0  0
   10.0069   14.0560   21.7669 C   0  0  0  0  0  0  0  0  0  0  0  0
   11.5226   14.3246   21.8561 C   0  0  2  0  0  0  0  0  0  0  0  0
   12.2329   15.1758   20.4930 Cl  0  0  0  0  0  0  0  0  0  0  0  0
   12.1938   12.9648   22.0385 C   0  0  0  0  0  0  0  0  0  0  0  0
   12.9564   12.4680   21.3223 O   0  0  0  0  0  0  0  0  0  0  0  0
   11.5315   12.4282   23.3078 N   0  0  0  0  0  0  0  0  0  0  0  0
   11.5928   11.1613   23.8994 C   0  0  0  0  0  0  0  0  0  0  0  0
   10.1840   10.6784   23.8758 C   0  0  1  0  0  0  0  0  0  0  0  0
   10.1035    9.1976   23.6944 C   0  0  0  0  0  0  0  0  0  0  0  0
    8.6975    8.9703   24.1572 C   0  0  0  0  0  0  0  0  0  0  0  0
    8.3671   10.0886   25.1013 C   0  0  0  0  0  0  0  0  0  0  0  0
    7.3449   10.2185   25.7490 O   0  0  0  0  0  0  0  0  0  0  0  0
    9.4290   10.9714   25.0634 N   0  0  0  0  0  0  0  0  0  0  0  0
    9.2227   12.3067   25.5519 C   0  0  0  0  0  0  0  0  0  0  0  0
  1  2  2  0
  2  3  1  0
  3  4  1  0
  4  5  1  6
  4  6  1  0
  6  7  2  0
  6  8  1  0
  8  9  1  0
 10  9  1  1
 10 11  1  0
 11 12  1  0
 12 13  1  0
 13 14  2  0
 13 15  1  0
 15 16  1  0
 15 10  1  0
M  END
>  <energy_score>  (1947) 
-21.868311

>  <inchikey>  (1947) 
NSCYGGQXHXHAGT-UHFFFAOYSA-N

>  <smiles>  (1947) 
C=CCC(Cl)C(=O)NCC1CCC(=O)N1C

>  <ref_pdb>  (1947) 
A0525a

>  <alias>  (1947) 
NSCYGGQXHXHAGT-UHFFFAOYSA-N-P123-P22-P123-601510

>  <HIPPO Pose ID>  (1947) 
517947

>  <name>  (1947) 
NSCYGGQXHXHAGT-UHFFFAOYSA-N-P123-P22-P123-601510

>  <HIPPO Compound ID>  (1947) 
300686

>  <ref_mols>  (1947) 
A1776a,A0528a

>  <distance_score>  (1947) 
1.837502

>  <inspiration_score>  (1947) 
None

$$$$
HNYJAXSKRSRLHO-UHFFFAOYSA-N-P123-P22-P123-601510
     RDKit          3D

 17 18  0  0  0  0  0  0  0  0999 V2000
   13.3064   11.4059   21.3597 C   0  0  0  0  0  0  0  0  0  0  0  0
   12.2883   10.3355   21.7641 C   0  0  0  0  0  0  0  0  0  0  0  0
   11.1742   10.7507   22.7563 C   0  0  1  0  0  0  0  0  0  0  0  0
   10.8101   12.2596   22.6953 C   0  0  0  0  0  0  0  0  0  0  0  0
    9.6451   12.4766   23.4918 N   0  0  0  0  0  0  0  0  0  0  0  0
    9.4792   12.5470   25.0018 C   0  0  0  0  0  0  0  0  0  0  0  0
   10.2709   12.5173   25.8462 O   0  0  0  0  0  0  0  0  0  0  0  0
    7.9432   12.5616   25.3146 C   0  0  0  0  0  0  0  0  0  0  0  0
    7.0693   13.6679   24.1837 Cl  0  0  0  0  0  0  0  0  0  0  0  0
    7.5066   12.6623   26.8023 C   0  0  0  0  0  0  0  0  0  0  0  0
    6.6252   11.4174   26.5979 C   0  0  0  0  0  0  0  0  0  0  0  0
    7.5229   11.0390   25.4264 C   0  0  0  0  0  0  0  0  0  0  0  0
    9.9962    9.7513   22.6659 C   0  0  0  0  0  0  0  0  0  0  0  0
   10.3251    8.5691   23.5473 C   0  0  0  0  0  0  0  0  0  0  0  0
   11.5598    9.0523   24.1902 C   0  0  0  0  0  0  0  0  0  0  0  0
   12.4535    8.3626   24.6305 O   0  0  0  0  0  0  0  0  0  0  0  0
   11.6205   10.4213   24.0820 N   0  0  0  0  0  0  0  0  0  0  0  0
  1  2  1  0
  3  2  1  6
  3  4  1  0
  4  5  1  0
  5  6  1  0
  6  7  2  0
  6  8  1  0
  8  9  1  0
  8 10  1  0
 10 11  1  0
 11 12  1  0
  3 13  1  0
 13 14  1  0
 14 15  1  0
 15 16  2  0
 15 17  1  0
 17  3  1  0
 12  8  1  0
M  END
>  <energy_score>  (1948) 
-39.212959

>  <inchikey>  (1948) 
HNYJAXSKRSRLHO-UHFFFAOYSA-N

>  <smiles>  (1948) 
CCC1(CNC(=O)C2(Cl)CCC2)CCC(=O)N1

>  <ref_pdb>  (1948) 
A0525a

>  <alias>  (1948) 
HNYJAXSKRSRLHO-UHFFFAOYSA-N-P123-P22-P123-601510

>  <HIPPO Pose ID>  (1948) 
518021

>  <name>  (1948) 
HNYJAXSKRSRLHO-UHFFFAOYSA-N-P123-P22-P123-601510

>  <HIPPO Compound ID>  (1948) 
300731

>  <ref_mols>  (1948) 
A1776a,A0528a

>  <distance_score>  (1948) 
1.797412

>  <inspiration_score>  (1948) 
None

$$$$
MVPVQTFGMRJTHJ-UHFFFAOYSA-N-P22-P22-P123-601510
     RDKit          3D

 18 18  0  0  0  0  0  0  0  0999 V2000
    9.3217   13.6522   24.9182 C   0  0  0  0  0  0  0  0  0  0  0  0
    9.3973   12.2970   24.4469 N   0  0  0  0  0  0  0  0  0  0  0  0
    8.5073   11.3270   24.8469 C   0  0  0  0  0  0  0  0  0  0  0  0
    7.5600   11.4484   25.6043 O   0  0  0  0  0  0  0  0  0  0  0  0
    8.9055   10.0488   24.2049 C   0  0  0  0  0  0  0  0  0  0  0  0
   10.1684   10.3215   23.4405 C   0  0  0  0  0  0  0  0  0  0  0  0
   10.5205   11.7890   23.7000 C   0  0  1  0  0  0  0  0  0  0  0  0
   10.8295   12.4834   22.4051 C   0  0  0  0  0  0  0  0  0  0  0  0
   11.4694   13.7382   22.4566 N   0  0  0  0  0  0  0  0  0  0  0  0
   12.2537   14.5172   21.3617 C   0  0  0  0  0  0  0  0  0  0  0  0
   12.5534   14.2024   20.2773 O   0  0  0  0  0  0  0  0  0  0  0  0
   12.5131   15.9193   21.9206 C   0  0  1  0  0  0  0  0  0  0  0  0
   13.6647   15.8495   22.9110 C   0  0  0  0  0  0  0  0  0  0  0  0
   12.9612   17.0111   20.5572 Cl  0  0  0  0  0  0  0  0  0  0  0  0
   11.2245   16.4372   22.5724 C   0  0  0  0  0  0  0  0  0  0  0  0
    9.9682   16.4577   21.7151 C   0  0  0  0  0  0  0  0  0  0  0  0
   11.4327   17.6846   23.0588 F   0  0  0  0  0  0  0  0  0  0  0  0
   10.9593   15.7189   23.7048 F   0  0  0  0  0  0  0  0  0  0  0  0
  1  2  1  0
  2  3  1  0
  3  4  2  0
  3  5  1  0
  5  6  1  0
  6  7  1  0
  7  8  1  6
  8  9  1  0
  9 10  1  0
 10 11  2  0
 10 12  1  0
 12 13  1  1
 12 14  1  0
 12 15  1  0
 15 16  1  0
 15 17  1  0
 15 18  1  0
  7  2  1  0
M  END
>  <energy_score>  (1949) 
-2.732838

>  <inchikey>  (1949) 
MVPVQTFGMRJTHJ-UHFFFAOYSA-N

>  <smiles>  (1949) 
CN1C(=O)CCC1CNC(=O)C(C)(Cl)C(C)(F)F

>  <ref_pdb>  (1949) 
A0525a

>  <alias>  (1949) 
MVPVQTFGMRJTHJ-UHFFFAOYSA-N-P22-P22-P123-601510

>  <HIPPO Pose ID>  (1949) 
518050

>  <name>  (1949) 
MVPVQTFGMRJTHJ-UHFFFAOYSA-N-P22-P22-P123-601510

>  <HIPPO Compound ID>  (1949) 
300750

>  <ref_mols>  (1949) 
A1776a,A0528a

>  <distance_score>  (1949) 
1.886011

>  <inspiration_score>  (1949) 
None

$$$$
MNJKBSZGDZLJLX-UHFFFAOYSA-N-P22-P22-P123-601510
     RDKit          3D

 18 19  0  0  0  0  0  0  0  0999 V2000
   12.9246   12.9881   23.8615 C   0  0  0  0  0  0  0  0  0  0  0  0
   12.6001   13.4999   22.6728 C   0  0  0  0  0  0  0  0  0  0  0  0
   12.9683   14.8935   22.2666 C   0  0  0  0  0  0  0  0  0  0  0  0
   12.0695   15.4384   21.1620 C   0  0  2  0  0  0  0  0  0  0  0  0
   12.4069   17.1660   20.9115 Cl  0  0  0  0  0  0  0  0  0  0  0  0
   10.5388   15.2899   21.3091 C   0  0  0  0  0  0  0  0  0  0  0  0
    9.8821   15.0961   20.3613 O   0  0  0  0  0  0  0  0  0  0  0  0
   10.1315   15.4555   22.7976 N   0  0  0  0  0  0  0  0  0  0  0  0
    8.8467   15.3221   23.4364 C   0  0  0  0  0  0  0  0  0  0  0  0
    8.5299   13.8842   23.8777 C   0  0  2  0  0  0  0  0  0  0  0  0
    7.0552   13.8072   24.3367 C   0  0  0  0  0  0  0  0  0  0  0  0
    6.7825   12.7340   25.4030 C   0  0  0  0  0  0  0  0  0  0  0  0
    7.6656   11.5054   25.2562 C   0  0  0  0  0  0  0  0  0  0  0  0
    9.0961   11.8699   24.8943 C   0  0  2  0  0  0  0  0  0  0  0  0
    9.3942   13.3684   25.0157 C   0  0  0  0  0  0  0  0  0  0  0  0
    9.3346   11.7324   23.4259 C   0  0  0  0  0  0  0  0  0  0  0  0
    9.9196   10.8150   22.8859 O   0  0  0  0  0  0  0  0  0  0  0  0
    8.8128   12.8918   22.8494 N   0  0  0  0  0  0  0  0  0  0  0  0
  1  2  2  0
  2  3  1  0
  3  4  1  0
  4  5  1  1
  4  6  1  0
  6  7  2  0
  6  8  1  0
  8  9  1  0
 10  9  1  6
 10 11  1  0
 11 12  1  0
 12 13  1  0
 14 13  1  6
 14 15  1  0
 14 16  1  0
 16 17  2  0
 16 18  1  0
 15 10  1  0
 18 10  1  0
M  END
>  <energy_score>  (1950) 
-11.561973

>  <inchikey>  (1950) 
MNJKBSZGDZLJLX-UHFFFAOYSA-N

>  <smiles>  (1950) 
C=CCC(Cl)C(=O)NCC12CCCC(C1)C(=O)N2

>  <ref_pdb>  (1950) 
A0525a

>  <alias>  (1950) 
MNJKBSZGDZLJLX-UHFFFAOYSA-N-P22-P22-P123-601510

>  <HIPPO Pose ID>  (1950) 
518088

>  <name>  (1950) 
MNJKBSZGDZLJLX-UHFFFAOYSA-N-P22-P22-P123-601510

>  <HIPPO Compound ID>  (1950) 
300774

>  <ref_mols>  (1950) 
A1776a,A0528a

>  <distance_score>  (1950) 
1.802343

>  <inspiration_score>  (1950) 
None

$$$$
AJPUZAJBCHRKRZ-UHFFFAOYSA-N-P22-P22-P123-601510
     RDKit          3D

 18 18  0  0  0  0  0  0  0  0999 V2000
    9.6171   16.9414   21.3924 C   0  0  0  0  0  0  0  0  0  0  0  0
   10.4296   15.7606   21.8154 C   0  0  0  0  0  0  0  0  0  0  0  0
   10.2506   15.5973   23.1659 F   0  0  0  0  0  0  0  0  0  0  0  0
    9.8429   14.6683   21.2394 F   0  0  0  0  0  0  0  0  0  0  0  0
   11.9394   15.7959   21.5015 C   0  0  1  0  0  0  0  0  0  0  0  0
   12.9195   16.5559   22.7681 Cl  0  0  0  0  0  0  0  0  0  0  0  0
   12.3189   14.3388   21.4403 C   0  0  0  0  0  0  0  0  0  0  0  0
   12.8189   13.8329   20.5135 O   0  0  0  0  0  0  0  0  0  0  0  0
   11.8121   13.7208   22.7740 N   0  0  0  0  0  0  0  0  0  0  0  0
   11.7326   12.3769   23.1865 C   0  0  0  0  0  0  0  0  0  0  0  0
   10.2797   12.0943   23.5302 C   0  0  1  0  0  0  0  0  0  0  0  0
    9.8304   10.6455   23.5489 C   0  0  0  0  0  0  0  0  0  0  0  0
    8.5951   10.7541   24.4161 C   0  0  0  0  0  0  0  0  0  0  0  0
    8.2931    9.5766   24.9944 F   0  0  0  0  0  0  0  0  0  0  0  0
    7.5489   11.1533   23.6892 F   0  0  0  0  0  0  0  0  0  0  0  0
    8.8407   11.9095   25.3301 C   0  0  0  0  0  0  0  0  0  0  0  0
    8.1304   12.2557   26.2600 O   0  0  0  0  0  0  0  0  0  0  0  0
    9.9417   12.5957   24.8364 N   0  0  0  0  0  0  0  0  0  0  0  0
  1  2  1  0
  2  3  1  0
  2  4  1  0
  2  5  1  0
  5  6  1  1
  5  7  1  0
  7  8  2  0
  7  9  1  0
  9 10  1  0
 11 10  1  1
 11 12  1  0
 12 13  1  0
 13 14  1  0
 13 15  1  0
 13 16  1  0
 16 17  2  0
 16 18  1  0
 18 11  1  0
M  END
>  <energy_score>  (1951) 
-0.355557

>  <inchikey>  (1951) 
AJPUZAJBCHRKRZ-UHFFFAOYSA-N

>  <smiles>  (1951) 
CC(F)(F)C(Cl)C(=O)NCC1CC(F)(F)C(=O)N1

>  <ref_pdb>  (1951) 
A0525a

>  <alias>  (1951) 
AJPUZAJBCHRKRZ-UHFFFAOYSA-N-P22-P22-P123-601510

>  <HIPPO Pose ID>  (1951) 
518110

>  <name>  (1951) 
AJPUZAJBCHRKRZ-UHFFFAOYSA-N-P22-P22-P123-601510

>  <HIPPO Compound ID>  (1951) 
300785

>  <ref_mols>  (1951) 
A1776a,A0528a

>  <distance_score>  (1951) 
1.671005

>  <inspiration_score>  (1951) 
None

$$$$
XBVJJMJYEKWHEY-UHFFFAOYSA-N-P22-P22-P123-601510
     RDKit          3D

 19 19  0  0  0  0  0  0  0  0999 V2000
    9.7967   16.1480   21.4709 C   0  0  0  0  0  0  0  0  0  0  0  0
   11.0006   16.1765   22.3880 C   0  0  0  0  0  0  0  0  0  0  0  0
   10.6817   15.3890   23.4551 F   0  0  0  0  0  0  0  0  0  0  0  0
   11.1083   17.4121   22.9331 F   0  0  0  0  0  0  0  0  0  0  0  0
   12.3712   15.7866   21.8084 C   0  0  2  0  0  0  0  0  0  0  0  0
   13.5119   16.0289   22.7960 C   0  0  0  0  0  0  0  0  0  0  0  0
   12.7041   16.7481   20.3207 Cl  0  0  0  0  0  0  0  0  0  0  0  0
   12.3481   14.2931   21.4723 C   0  0  0  0  0  0  0  0  0  0  0  0
   12.6049   13.8585   20.4181 O   0  0  0  0  0  0  0  0  0  0  0  0
   11.8457   13.5787   22.7640 N   0  0  0  0  0  0  0  0  0  0  0  0
   11.4775   12.2354   22.9825 C   0  0  0  0  0  0  0  0  0  0  0  0
   10.0459   12.1015   23.4454 C   0  0  1  0  0  0  0  0  0  0  0  0
    9.6036   10.6590   23.6122 C   0  0  0  0  0  0  0  0  0  0  0  0
    8.4545   10.8118   24.5789 C   0  0  0  0  0  0  0  0  0  0  0  0
    7.3197   11.0840   23.9354 F   0  0  0  0  0  0  0  0  0  0  0  0
    8.2703    9.6834   25.2883 F   0  0  0  0  0  0  0  0  0  0  0  0
    8.7628   12.0469   25.3622 C   0  0  0  0  0  0  0  0  0  0  0  0
    8.1218   12.4655   26.3118 O   0  0  0  0  0  0  0  0  0  0  0  0
    9.8331   12.6823   24.7456 N   0  0  0  0  0  0  0  0  0  0  0  0
  1  2  1  0
  2  3  1  0
  2  4  1  0
  2  5  1  0
  5  6  1  1
  5  7  1  0
  5  8  1  0
  8  9  2  0
  8 10  1  0
 10 11  1  0
 12 11  1  1
 12 13  1  0
 13 14  1  0
 14 15  1  0
 14 16  1  0
 14 17  1  0
 17 18  2  0
 17 19  1  0
 19 12  1  0
M  END
>  <energy_score>  (1952) 
-13.605154

>  <inchikey>  (1952) 
XBVJJMJYEKWHEY-UHFFFAOYSA-N

>  <smiles>  (1952) 
CC(F)(F)C(C)(Cl)C(=O)NCC1CC(F)(F)C(=O)N1

>  <ref_pdb>  (1952) 
A0525a

>  <alias>  (1952) 
XBVJJMJYEKWHEY-UHFFFAOYSA-N-P22-P22-P123-601510

>  <HIPPO Pose ID>  (1952) 
518122

>  <name>  (1952) 
XBVJJMJYEKWHEY-UHFFFAOYSA-N-P22-P22-P123-601510

>  <HIPPO Compound ID>  (1952) 
300793

>  <ref_mols>  (1952) 
A1776a,A0528a

>  <distance_score>  (1952) 
1.810225

>  <inspiration_score>  (1952) 
None

$$$$
WODQJBWPGNUODR-UHFFFAOYSA-N-P22-P22-P123-601510
     RDKit          3D

 19 22  0  0  0  0  0  0  0  0999 V2000
   14.5931   16.2390   23.0706 O   0  0  0  0  0  0  0  0  0  0  0  0
   13.7139   15.8767   22.3181 C   0  0  0  0  0  0  0  0  0  0  0  0
   13.2494   16.5523   21.1989 N   0  0  0  0  0  0  0  0  0  0  0  0
   12.0387   15.9184   20.7443 C   0  0  1  0  0  0  0  0  0  0  0  0
   12.3774   14.4691   21.0339 C   0  0  0  0  0  0  0  0  0  0  0  0
   12.7826   14.6994   22.4870 C   0  0  2  0  0  0  0  0  0  0  0  0
   11.5593   15.2572   23.2450 C   0  0  0  0  0  0  0  0  0  0  0  0
   10.2298   15.1906   22.4758 N   0  0  0  0  0  0  0  0  0  0  0  0
    9.1464   15.1895   23.3787 C   0  0  0  0  0  0  0  0  0  0  0  0
    8.5128   16.0945   23.8353 O   0  0  0  0  0  0  0  0  0  0  0  0
    8.6811   13.8151   23.7184 C   0  0  1  0  0  0  0  0  0  0  0  0
    7.3088   13.4091   22.6828 Cl  0  0  0  0  0  0  0  0  0  0  0  0
    9.5512   12.6627   24.1699 C   0  0  2  0  0  0  0  0  0  0  0  0
    9.0789   11.2399   24.1519 C   0  0  0  0  0  0  0  0  0  0  0  0
    7.8884   11.1367   25.1063 C   0  0  0  0  0  0  0  0  0  0  0  0
    7.8038   12.4663   25.7988 C   0  0  0  0  0  0  0  0  0  0  0  0
    7.1431   12.7128   26.7946 O   0  0  0  0  0  0  0  0  0  0  0  0
    8.7247   13.4257   25.1722 C   0  0  2  0  0  0  0  0  0  0  0  0
   10.8703   16.3205   21.7039 C   0  0  0  0  0  0  0  0  0  0  0  0
  1  2  2  0
  2  3  1  0
  3  4  1  0
  4  5  1  0
  5  6  1  0
  6  7  1  1
  7  8  1  0
  8  9  1  0
  9 10  2  0
  9 11  1  0
 11 12  1  6
 11 13  1  0
 13 14  1  6
 14 15  1  0
 15 16  1  0
 16 17  2  0
 18 16  1  6
  8 19  1  0
  6  2  1  0
 18 11  1  0
  4 19  1  1
 18 13  1  0
M  END
>  <energy_score>  (1953) 
-26.835471

>  <inchikey>  (1953) 
WODQJBWPGNUODR-UHFFFAOYSA-N

>  <smiles>  (1953) 
O=C1NC2CC1CN(C(=O)C1(Cl)C3CCC(=O)C31)C2

>  <ref_pdb>  (1953) 
A0525a

>  <alias>  (1953) 
WODQJBWPGNUODR-UHFFFAOYSA-N-P22-P22-P123-601510

>  <HIPPO Pose ID>  (1953) 
518128

>  <name>  (1953) 
WODQJBWPGNUODR-UHFFFAOYSA-N-P22-P22-P123-601510

>  <HIPPO Compound ID>  (1953) 
300796

>  <ref_mols>  (1953) 
A1776a,A0528a

>  <distance_score>  (1953) 
1.676874

>  <inspiration_score>  (1953) 
None

$$$$
DGDMZKKFSUUOAY-UHFFFAOYSA-N-P22-P22-P123-601510
     RDKit          3D

 19 20  0  0  0  0  0  0  0  0999 V2000
    9.5144   10.3334   23.6339 C   0  0  0  0  0  0  0  0  0  0  0  0
    8.6273   10.1881   24.6266 C   0  0  0  0  0  0  0  0  0  0  0  0
    7.3879   10.9901   24.9403 C   0  0  0  0  0  0  0  0  0  0  0  0
    7.2078   11.8918   26.1712 C   0  0  2  0  0  0  0  0  0  0  0  0
    5.5212   12.5222   26.2503 Cl  0  0  0  0  0  0  0  0  0  0  0  0
    8.1174   13.1145   26.3510 C   0  0  0  0  0  0  0  0  0  0  0  0
    8.1501   13.6931   27.3657 O   0  0  0  0  0  0  0  0  0  0  0  0
    8.9539   13.3008   25.0636 N   0  0  0  0  0  0  0  0  0  0  0  0
   10.0579   14.1656   24.7912 C   0  0  1  0  0  0  0  0  0  0  0  0
   11.1636   13.4501   24.0082 C   0  0  0  0  0  0  0  0  0  0  0  0
   11.1863   14.0745   22.6195 C   0  0  2  0  0  0  0  0  0  0  0  0
   12.5190   14.8045   22.3195 C   0  0  0  0  0  0  0  0  0  0  0  0
   12.3639   15.7754   21.2130 N   0  0  0  0  0  0  0  0  0  0  0  0
   13.6239   16.4244   20.9081 C   0  0  0  0  0  0  0  0  0  0  0  0
   11.3240   16.7485   21.5911 C   0  0  0  0  0  0  0  0  0  0  0  0
    9.9825   16.0090   21.5888 C   0  0  0  0  0  0  0  0  0  0  0  0
   10.0443   14.9665   22.5940 N   0  0  0  0  0  0  0  0  0  0  0  0
    9.4521   15.1457   23.8237 C   0  0  0  0  0  0  0  0  0  0  0  0
    8.5142   15.8928   24.0519 O   0  0  0  0  0  0  0  0  0  0  0  0
  1  2  2  0
  2  3  1  0
  3  4  1  0
  4  5  1  6
  4  6  1  0
  6  7  2  0
  6  8  1  0
  9  8  1  6
  9 10  1  0
 11 10  1  1
 11 12  1  0
 12 13  1  0
 13 14  1  0
 13 15  1  0
 15 16  1  0
 16 17  1  0
 17 18  1  0
 18 19  2  0
 18  9  1  0
 17 11  1  0
M  END
>  <energy_score>  (1954) 
-15.020162

>  <inchikey>  (1954) 
DGDMZKKFSUUOAY-UHFFFAOYSA-N

>  <smiles>  (1954) 
C=CCC(Cl)C(=O)NC1CC2CN(C)CCN2C1=O

>  <ref_pdb>  (1954) 
A0525a

>  <alias>  (1954) 
DGDMZKKFSUUOAY-UHFFFAOYSA-N-P22-P22-P123-601510

>  <HIPPO Pose ID>  (1954) 
518150

>  <name>  (1954) 
DGDMZKKFSUUOAY-UHFFFAOYSA-N-P22-P22-P123-601510

>  <HIPPO Compound ID>  (1954) 
300810

>  <ref_mols>  (1954) 
A1776a,A0528a

>  <distance_score>  (1954) 
1.807411

>  <inspiration_score>  (1954) 
None

$$$$
OWPNAXOJHDYLAX-UHFFFAOYSA-N-P22-P22-P123-601510
     RDKit          3D

 19 20  0  0  0  0  0  0  0  0999 V2000
   13.3311   13.5146   23.6982 C   0  0  0  0  0  0  0  0  0  0  0  0
   13.0494   14.4419   22.5232 C   0  0  0  0  0  0  0  0  0  0  0  0
   12.0974   13.7627   21.5614 C   0  0  0  0  0  0  0  0  0  0  0  0
   12.6975   15.8357   23.0421 C   0  0  0  0  0  0  0  0  0  0  0  0
   11.6792   16.6734   22.2734 C   0  0  1  0  0  0  0  0  0  0  0  0
   12.3340   17.0651   20.6602 Cl  0  0  0  0  0  0  0  0  0  0  0  0
   10.2528   16.0588   22.1779 C   0  0  0  0  0  0  0  0  0  0  0  0
    9.6979   15.8829   21.1629 O   0  0  0  0  0  0  0  0  0  0  0  0
    9.8084   15.7414   23.6422 N   0  0  0  0  0  0  0  0  0  0  0  0
    8.5602   15.2346   24.1509 C   0  0  0  0  0  0  0  0  0  0  0  0
    8.6120   13.7300   24.4862 C   0  0  1  0  0  0  0  0  0  0  0  0
    7.7545   13.4169   25.7280 C   0  0  0  0  0  0  0  0  0  0  0  0
    7.2403   11.9753   25.7801 C   0  0  0  0  0  0  0  0  0  0  0  0
    8.0922   10.9687   25.0128 C   0  0  0  0  0  0  0  0  0  0  0  0
    8.7042   11.5177   23.7258 C   0  0  1  0  0  0  0  0  0  0  0  0
    8.1379   12.8754   23.3183 C   0  0  0  0  0  0  0  0  0  0  0  0
   10.0855   11.9931   24.0059 C   0  0  0  0  0  0  0  0  0  0  0  0
   11.1079   11.4430   23.6597 O   0  0  0  0  0  0  0  0  0  0  0  0
    9.9497   13.1973   24.6769 N   0  0  0  0  0  0  0  0  0  0  0  0
  1  2  1  0
  2  3  1  0
  2  4  1  0
  4  5  1  0
  5  6  1  6
  5  7  1  0
  7  8  2  0
  7  9  1  0
  9 10  1  0
 11 10  1  6
 11 12  1  0
 12 13  1  0
 13 14  1  0
 15 14  1  1
 15 16  1  0
 15 17  1  0
 17 18  2  0
 17 19  1  0
 16 11  1  0
 19 11  1  0
M  END
>  <energy_score>  (1955) 
-2.762665

>  <inchikey>  (1955) 
OWPNAXOJHDYLAX-UHFFFAOYSA-N

>  <smiles>  (1955) 
CC(C)CC(Cl)C(=O)NCC12CCCC(C1)C(=O)N2

>  <ref_pdb>  (1955) 
A0525a

>  <alias>  (1955) 
OWPNAXOJHDYLAX-UHFFFAOYSA-N-P22-P22-P123-601510

>  <HIPPO Pose ID>  (1955) 
518156

>  <name>  (1955) 
OWPNAXOJHDYLAX-UHFFFAOYSA-N-P22-P22-P123-601510

>  <HIPPO Compound ID>  (1955) 
300813

>  <ref_mols>  (1955) 
A1776a,A0528a

>  <distance_score>  (1955) 
1.500129

>  <inspiration_score>  (1955) 
None

$$$$
AEARFKMNVTYZKM-UHFFFAOYSA-N-P22-P22-P123-601510
     RDKit          3D

 19 20  0  0  0  0  0  0  0  0999 V2000
   12.6498   13.5156   22.3139 C   0  0  0  0  0  0  0  0  0  0  0  0
   12.7443   15.0153   22.2614 C   0  0  0  0  0  0  0  0  0  0  0  0
   12.5728   15.5211   23.5154 F   0  0  0  0  0  0  0  0  0  0  0  0
   13.9941   15.3794   21.8856 F   0  0  0  0  0  0  0  0  0  0  0  0
   11.7306   15.6139   21.3057 C   0  0  2  0  0  0  0  0  0  0  0  0
   11.8819   17.3807   21.2400 Cl  0  0  0  0  0  0  0  0  0  0  0  0
   10.2715   15.2852   21.6553 C   0  0  0  0  0  0  0  0  0  0  0  0
    9.5236   14.9384   20.8258 O   0  0  0  0  0  0  0  0  0  0  0  0
   10.0608   15.4806   23.1834 N   0  0  0  0  0  0  0  0  0  0  0  0
    8.9156   15.1981   24.0151 C   0  0  0  0  0  0  0  0  0  0  0  0
    8.8162   13.7173   24.4276 C   0  0  1  0  0  0  0  0  0  0  0  0
    7.9722   13.5620   25.7089 C   0  0  0  0  0  0  0  0  0  0  0  0
    7.3207   12.1806   25.8634 C   0  0  0  0  0  0  0  0  0  0  0  0
    8.0223   11.0509   25.1132 C   0  0  0  0  0  0  0  0  0  0  0  0
    8.6520   11.4718   23.7932 C   0  0  1  0  0  0  0  0  0  0  0  0
    8.1919   12.8511   23.3359 C   0  0  0  0  0  0  0  0  0  0  0  0
   10.0838   11.8288   23.9858 C   0  0  0  0  0  0  0  0  0  0  0  0
   11.0299   11.1818   23.5934 O   0  0  0  0  0  0  0  0  0  0  0  0
   10.1084   13.0678   24.5986 N   0  0  0  0  0  0  0  0  0  0  0  0
  1  2  1  0
  2  3  1  0
  2  4  1  0
  2  5  1  0
  5  6  1  1
  5  7  1  0
  7  8  2  0
  7  9  1  0
  9 10  1  0
 11 10  1  6
 11 12  1  0
 12 13  1  0
 13 14  1  0
 15 14  1  1
 15 16  1  0
 15 17  1  0
 17 18  2  0
 17 19  1  0
 16 11  1  0
 19 11  1  0
M  END
>  <energy_score>  (1956) 
-13.324518

>  <inchikey>  (1956) 
AEARFKMNVTYZKM-UHFFFAOYSA-N

>  <smiles>  (1956) 
CC(F)(F)C(Cl)C(=O)NCC12CCCC(C1)C(=O)N2

>  <ref_pdb>  (1956) 
A0525a

>  <alias>  (1956) 
AEARFKMNVTYZKM-UHFFFAOYSA-N-P22-P22-P123-601510

>  <HIPPO Pose ID>  (1956) 
518198

>  <name>  (1956) 
AEARFKMNVTYZKM-UHFFFAOYSA-N-P22-P22-P123-601510

>  <HIPPO Compound ID>  (1956) 
300842

>  <ref_mols>  (1956) 
A1776a,A0528a

>  <distance_score>  (1956) 
1.516246

>  <inspiration_score>  (1956) 
None

$$$$
ZJKSCXPPOFOGHE-UHFFFAOYSA-N-P22-P22-P123-601510
     RDKit          3D

 20 21  0  0  0  0  0  0  0  0999 V2000
   12.5024   13.8077   22.9980 C   0  0  0  0  0  0  0  0  0  0  0  0
   12.9888   14.7727   21.9424 C   0  0  0  0  0  0  0  0  0  0  0  0
   13.1528   14.0704   20.7854 F   0  0  0  0  0  0  0  0  0  0  0  0
   14.2318   15.1872   22.3163 F   0  0  0  0  0  0  0  0  0  0  0  0
   12.1689   16.0286   21.6545 C   0  0  2  0  0  0  0  0  0  0  0  0
   12.7552   16.7292   20.4249 C   0  0  0  0  0  0  0  0  0  0  0  0
   12.2981   17.2048   23.0099 Cl  0  0  0  0  0  0  0  0  0  0  0  0
   10.6690   15.7029   21.4665 C   0  0  0  0  0  0  0  0  0  0  0  0
   10.1833   15.5907   20.4076 O   0  0  0  0  0  0  0  0  0  0  0  0
   10.0465   15.5297   22.8874 N   0  0  0  0  0  0  0  0  0  0  0  0
    8.6877   15.2787   23.2871 C   0  0  0  0  0  0  0  0  0  0  0  0
    8.4609   13.8606   23.8281 C   0  0  2  0  0  0  0  0  0  0  0  0
    6.9922   13.7577   24.2995 C   0  0  0  0  0  0  0  0  0  0  0  0
    6.7453   12.7052   25.3913 C   0  0  0  0  0  0  0  0  0  0  0  0
    7.6565   11.4961   25.2741 C   0  0  0  0  0  0  0  0  0  0  0  0
    9.0766   11.8912   24.9060 C   0  0  2  0  0  0  0  0  0  0  0  0
    9.3387   13.4038   24.9839 C   0  0  0  0  0  0  0  0  0  0  0  0
    9.3176   11.7138   23.4432 C   0  0  0  0  0  0  0  0  0  0  0  0
    9.9247   10.7971   22.9277 O   0  0  0  0  0  0  0  0  0  0  0  0
    8.7826   12.8486   22.8304 N   0  0  0  0  0  0  0  0  0  0  0  0
  1  2  1  0
  2  3  1  0
  2  4  1  0
  2  5  1  0
  5  6  1  6
  5  7  1  0
  5  8  1  0
  8  9  2  0
  8 10  1  0
 10 11  1  0
 12 11  1  6
 12 13  1  0
 13 14  1  0
 14 15  1  0
 16 15  1  6
 16 17  1  0
 16 18  1  0
 18 19  2  0
 18 20  1  0
 17 12  1  0
 20 12  1  0
M  END
>  <energy_score>  (1957) 
-6.006542

>  <inchikey>  (1957) 
ZJKSCXPPOFOGHE-UHFFFAOYSA-N

>  <smiles>  (1957) 
CC(F)(F)C(C)(Cl)C(=O)NCC12CCCC(C1)C(=O)N2

>  <ref_pdb>  (1957) 
A0525a

>  <alias>  (1957) 
ZJKSCXPPOFOGHE-UHFFFAOYSA-N-P22-P22-P123-601510

>  <HIPPO Pose ID>  (1957) 
518264

>  <name>  (1957) 
ZJKSCXPPOFOGHE-UHFFFAOYSA-N-P22-P22-P123-601510

>  <HIPPO Compound ID>  (1957) 
300894

>  <ref_mols>  (1957) 
A1776a,A0528a

>  <distance_score>  (1957) 
1.809941

>  <inspiration_score>  (1957) 
None

$$$$
SBRWAXQZQUWWJC-UHFFFAOYSA-N-P22-P22-P123-601510
     RDKit          3D

 21 23  0  0  0  0  0  0  0  0999 V2000
   13.3916   12.6028   19.8953 O   0  0  0  0  0  0  0  0  0  0  0  0
   13.0368   13.4138   20.7337 C   0  0  0  0  0  0  0  0  0  0  0  0
   12.1972   13.1954   21.9690 C   0  0  0  0  0  0  0  0  0  0  0  0
   12.7270   14.2805   22.8817 C   0  0  0  0  0  0  0  0  0  0  0  0
   12.9948   15.4171   21.9065 C   0  0  2  0  0  0  0  0  0  0  0  0
   11.7492   16.1691   21.4748 C   0  0  2  0  0  0  0  0  0  0  0  0
   12.2500   17.6245   20.6328 Cl  0  0  0  0  0  0  0  0  0  0  0  0
   10.9231   16.4685   22.6950 C   0  0  0  0  0  0  0  0  0  0  0  0
   11.2569   17.2304   23.5152 O   0  0  0  0  0  0  0  0  0  0  0  0
    9.6899   15.5153   22.6438 N   0  0  0  0  0  0  0  0  0  0  0  0
    8.5744   15.3796   23.5465 C   0  0  0  0  0  0  0  0  0  0  0  0
    8.3364   13.9221   23.9962 C   0  0  2  0  0  0  0  0  0  0  0  0
    6.9137   13.8058   24.5856 C   0  0  0  0  0  0  0  0  0  0  0  0
    6.7321   12.6605   25.5927 C   0  0  0  0  0  0  0  0  0  0  0  0
    7.6494   11.4758   25.3393 C   0  0  0  0  0  0  0  0  0  0  0  0
    9.0513   11.9057   24.9274 C   0  0  2  0  0  0  0  0  0  0  0  0
    9.3099   13.4123   25.0481 C   0  0  0  0  0  0  0  0  0  0  0  0
    9.1867   11.8015   23.4484 C   0  0  0  0  0  0  0  0  0  0  0  0
    9.7694   10.9206   22.8504 O   0  0  0  0  0  0  0  0  0  0  0  0
    8.5543   12.9393   22.9348 N   0  0  0  0  0  0  0  0  0  0  0  0
   13.4570   14.7234   20.7408 N   0  0  0  0  0  0  0  0  0  0  0  0
  1  2  2  0
  2  3  1  0
  3  4  1  0
  5  4  1  1
  5  6  1  0
  6  7  1  1
  6  8  1  0
  8  9  2  0
  8 10  1  0
 10 11  1  0
 12 11  1  6
 12 13  1  0
 13 14  1  0
 14 15  1  0
 16 15  1  6
 16 17  1  0
 16 18  1  0
 18 19  2  0
 18 20  1  0
  5 21  1  0
 21  2  1  0
 17 12  1  0
 20 12  1  0
M  END
>  <energy_score>  (1958) 
-21.466324

>  <inchikey>  (1958) 
SBRWAXQZQUWWJC-UHFFFAOYSA-N

>  <smiles>  (1958) 
O=C1CCC(C(Cl)C(=O)NCC23CCCC(C2)C(=O)N3)N1

>  <ref_pdb>  (1958) 
A0525a

>  <alias>  (1958) 
SBRWAXQZQUWWJC-UHFFFAOYSA-N-P22-P22-P123-601510

>  <HIPPO Pose ID>  (1958) 
518282

>  <name>  (1958) 
SBRWAXQZQUWWJC-UHFFFAOYSA-N-P22-P22-P123-601510

>  <HIPPO Compound ID>  (1958) 
300907

>  <ref_mols>  (1958) 
A1776a,A0528a

>  <distance_score>  (1958) 
1.914924

>  <inspiration_score>  (1958) 
None

$$$$
MQCAMKPRFAGBRA-UHFFFAOYSA-N-P22-P22-P123-601510
     RDKit          3D

 22 23  0  0  0  0  0  0  0  0999 V2000
   13.3203   16.3210   20.4734 C   0  0  0  0  0  0  0  0  0  0  0  0
   12.5753   15.0698   20.5722 N   0  0  0  0  0  0  0  0  0  0  0  0
   12.7636   14.3738   21.8444 C   0  0  0  0  0  0  0  0  0  0  0  0
   11.4803   14.1765   22.6587 C   0  0  0  0  0  0  0  0  0  0  0  0
   10.6371   15.4614   22.7072 C   0  0  0  0  0  0  0  0  0  0  0  0
   11.6059   16.6882   23.5725 Cl  0  0  0  0  0  0  0  0  0  0  0  0
    9.2724   15.3371   23.4738 C   0  0  0  0  0  0  0  0  0  0  0  0
    8.2771   15.6792   22.9692 O   0  0  0  0  0  0  0  0  0  0  0  0
    9.5190   14.6374   24.8350 N   0  0  0  0  0  0  0  0  0  0  0  0
    8.5826   14.1289   25.8121 C   0  0  0  0  0  0  0  0  0  0  0  0
    8.0345   12.7055   25.4348 C   0  0  2  0  0  0  0  0  0  0  0  0
    7.1101   12.2602   26.5778 C   0  0  0  0  0  0  0  0  0  0  0  0
    5.9764   12.9832   26.6600 F   0  0  0  0  0  0  0  0  0  0  0  0
    6.7553   10.9612   26.4617 F   0  0  0  0  0  0  0  0  0  0  0  0
    7.7441   12.3992   27.7667 F   0  0  0  0  0  0  0  0  0  0  0  0
    9.1703   11.6882   25.1453 C   0  0  0  0  0  0  0  0  0  0  0  0
    9.2094   11.3813   23.6725 C   0  0  0  0  0  0  0  0  0  0  0  0
    8.2988   12.4399   23.1880 C   0  0  0  0  0  0  0  0  0  0  0  0
    8.3040   12.9484   22.0891 O   0  0  0  0  0  0  0  0  0  0  0  0
    7.3941   12.7650   24.1500 N   0  0  0  0  0  0  0  0  0  0  0  0
   10.3681   15.9778   21.2729 C   0  0  0  0  0  0  0  0  0  0  0  0
   11.1697   15.2108   20.2294 C   0  0  0  0  0  0  0  0  0  0  0  0
  1  2  1  0
  2  3  1  0
  3  4  1  0
  4  5  1  0
  5  6  1  0
  5  7  1  0
  7  8  2  0
  7  9  1  0
  9 10  1  0
 11 10  1  1
 11 12  1  0
 12 13  1  0
 12 14  1  0
 12 15  1  0
 11 16  1  0
 16 17  1  0
 17 18  1  0
 18 19  2  0
 18 20  1  0
  5 21  1  0
 21 22  1  0
 22  2  1  0
 20 11  1  0
M  END
>  <energy_score>  (1959) 
-32.8921

>  <inchikey>  (1959) 
MQCAMKPRFAGBRA-UHFFFAOYSA-N

>  <smiles>  (1959) 
CN1CCC(Cl)(C(=O)NCC2(C(F)(F)F)CCC(=O)N2)CC1

>  <ref_pdb>  (1959) 
A0525a

>  <alias>  (1959) 
MQCAMKPRFAGBRA-UHFFFAOYSA-N-P22-P22-P123-601510

>  <HIPPO Pose ID>  (1959) 
518354

>  <name>  (1959) 
MQCAMKPRFAGBRA-UHFFFAOYSA-N-P22-P22-P123-601510

>  <HIPPO Compound ID>  (1959) 
300958

>  <ref_mols>  (1959) 
A1776a,A0528a

>  <distance_score>  (1959) 
1.910616

>  <inspiration_score>  (1959) 
None

$$$$
YJUHYQRSXWLENN-UHFFFAOYSA-N-P36-P36-P51-601511
     RDKit          3D

 19 19  0  0  0  0  0  0  0  0999 V2000
   24.0656   17.1410    1.9240 C   0  0  0  0  0  0  0  0  0  0  0  0
   22.7550   16.5442    1.8121 N   0  0  0  0  0  0  0  0  0  0  0  0
   21.6255   17.2475    1.4901 C   0  0  0  0  0  0  0  0  0  0  0  0
   20.6072   16.3304    1.5146 C   0  0  0  0  0  0  0  0  0  0  0  0
   21.0779   15.0973    1.8625 N   0  0  0  0  0  0  0  0  0  0  0  0
   22.3854   15.2294    2.0170 C   0  0  0  0  0  0  0  0  0  0  0  0
   23.2865   14.1109    2.4279 C   0  0  0  0  0  0  0  0  0  0  0  0
   24.5658   14.1175    1.6056 C   0  0  0  0  0  0  0  0  0  0  0  0
   24.5792   13.8767    0.4623 O   0  0  0  0  0  0  0  0  0  0  0  0
   25.7178   14.5496    2.5576 N   0  0  0  0  0  0  0  0  0  0  0  0
   27.0947   14.8634    2.2763 C   0  0  0  0  0  0  0  0  0  0  0  0
   27.7905   13.6547    1.6808 C   0  0  0  0  0  0  0  0  0  0  0  0
   28.0546   12.4344    2.9900 S   0  0  0  0  0  0  0  0  0  0  0  0
   29.4820   12.8293    3.7394 O   0  0  0  0  0  0  0  0  0  0  0  0
   28.3430   11.0579    1.8890 C   0  0  0  0  0  0  0  0  0  0  0  0
   27.0654   10.5515    1.2649 C   0  0  0  0  0  0  0  0  0  0  0  0
   26.9729    9.2059    1.3777 F   0  0  0  0  0  0  0  0  0  0  0  0
   27.0534   10.8310   -0.0617 F   0  0  0  0  0  0  0  0  0  0  0  0
   25.9523   11.0923    1.7956 F   0  0  0  0  0  0  0  0  0  0  0  0
  1  2  1  0
  2  3  1  0
  3  4  2  0
  4  5  1  0
  5  6  2  0
  6  7  1  0
  7  8  1  0
  8  9  2  0
  8 10  1  0
 10 11  1  0
 11 12  1  0
 12 13  1  0
 13 14  1  6
 13 15  1  0
 15 16  1  0
 16 17  1  0
 16 18  1  0
 16 19  1  0
  6  2  1  0
M  CHG  2  13   1  14  -1
M  END
>  <energy_score>  (1960) 
-5.92243

>  <inchikey>  (1960) 
YJUHYQRSXWLENN-UHFFFAOYSA-N

>  <smiles>  (1960) 
Cn1ccnc1CC(=O)NCC[S+]([O-])CC(F)(F)F

>  <ref_pdb>  (1960) 
A0528a

>  <alias>  (1960) 
YJUHYQRSXWLENN-UHFFFAOYSA-N-P36-P36-P51-601511

>  <HIPPO Pose ID>  (1960) 
518514

>  <name>  (1960) 
YJUHYQRSXWLENN-UHFFFAOYSA-N-P36-P36-P51-601511

>  <HIPPO Compound ID>  (1960) 
301933

>  <ref_mols>  (1960) 
A0239a,A0309a

>  <distance_score>  (1960) 
1.522507

>  <inspiration_score>  (1960) 
None

$$$$
SCEKOBNOHVGBSG-UHFFFAOYSA-N-P51-P36-P51-601511
     RDKit          3D

 19 19  0  0  0  0  0  0  0  0999 V2000
   19.3937   16.9742    2.0224 C   0  0  0  0  0  0  0  0  0  0  0  0
   20.7906   16.4925    1.9816 C   0  0  0  0  0  0  0  0  0  0  0  0
   21.9526   17.2194    1.8590 C   0  0  0  0  0  0  0  0  0  0  0  0
   22.9582   16.2946    1.8499 N   0  0  0  0  0  0  0  0  0  0  0  0
   22.3854   15.0495    1.9618 C   0  0  0  0  0  0  0  0  0  0  0  0
   23.1498   13.7738    1.9871 C   0  0  0  0  0  0  0  0  0  0  0  0
   24.5242   13.9464    1.3596 C   0  0  0  0  0  0  0  0  0  0  0  0
   24.6724   14.0492    0.2059 O   0  0  0  0  0  0  0  0  0  0  0  0
   25.5619   13.9776    2.5130 N   0  0  0  0  0  0  0  0  0  0  0  0
   26.9786   14.2359    2.4893 C   0  0  0  0  0  0  0  0  0  0  0  0
   27.7005   13.1705    1.6792 C   0  0  0  0  0  0  0  0  0  0  0  0
   28.1018   11.7355    2.7218 S   0  0  0  0  0  0  0  0  0  0  0  0
   29.5048   12.1329    3.5203 O   0  0  0  0  0  0  0  0  0  0  0  0
   28.5687   10.6485    1.3582 C   0  0  0  0  0  0  0  0  0  0  0  0
   27.3813    9.8941    0.8278 C   0  0  0  0  0  0  0  0  0  0  0  0
   26.3169   10.6756    0.5737 F   0  0  0  0  0  0  0  0  0  0  0  0
   27.0025    8.9116    1.6743 F   0  0  0  0  0  0  0  0  0  0  0  0
   27.7178    9.2825   -0.3363 F   0  0  0  0  0  0  0  0  0  0  0  0
   21.0742   15.1515    2.0582 N   0  0  0  0  0  0  0  0  0  0  0  0
  1  2  1  0
  2  3  2  0
  3  4  1  0
  4  5  1  0
  5  6  1  0
  6  7  1  0
  7  8  2  0
  7  9  1  0
  9 10  1  0
 10 11  1  0
 11 12  1  0
 12 13  1  1
 12 14  1  0
 14 15  1  0
 15 16  1  0
 15 17  1  0
 15 18  1  0
  5 19  2  0
 19  2  1  0
M  CHG  2  12   1  13  -1
M  END
>  <energy_score>  (1961) 
-9.233699

>  <inchikey>  (1961) 
SCEKOBNOHVGBSG-UHFFFAOYSA-N

>  <smiles>  (1961) 
Cc1c[nH]c(CC(=O)NCC[S+]([O-])CC(F)(F)F)n1

>  <ref_pdb>  (1961) 
A0528a

>  <alias>  (1961) 
SCEKOBNOHVGBSG-UHFFFAOYSA-N-P51-P36-P51-601511

>  <HIPPO Pose ID>  (1961) 
518517

>  <name>  (1961) 
SCEKOBNOHVGBSG-UHFFFAOYSA-N-P51-P36-P51-601511

>  <HIPPO Compound ID>  (1961) 
301934

>  <ref_mols>  (1961) 
A0239a,A0309a

>  <distance_score>  (1961) 
1.41841

>  <inspiration_score>  (1961) 
None

$$$$
JYDQHVBWLNGWED-UHFFFAOYSA-N-P51-P36-P51-601511
     RDKit          3D

 21 22  0  0  0  0  0  0  0  0999 V2000
   25.5932   15.2344    0.8077 O   0  0  0  0  0  0  0  0  0  0  0  0
   24.8830   14.4976    1.3693 C   0  0  0  0  0  0  0  0  0  0  0  0
   24.9599   12.9556    1.5334 N   0  0  0  0  0  0  0  0  0  0  0  0
   25.9683   12.0273    1.1237 C   0  0  0  0  0  0  0  0  0  0  0  0
   27.1152   12.0535    2.1183 C   0  0  0  0  0  0  0  0  0  0  0  0
   28.4571   11.0016    1.5245 S   0  0  0  0  0  0  0  0  0  0  0  0
   27.8231    9.4721    1.4227 O   0  0  0  0  0  0  0  0  0  0  0  0
   29.4538   11.2199    3.0246 C   0  0  0  0  0  0  0  0  0  0  0  0
   30.7750   10.5139    2.9328 C   0  0  0  0  0  0  0  0  0  0  0  0
   30.6544    9.1910    2.7365 F   0  0  0  0  0  0  0  0  0  0  0  0
   31.5194   11.0523    1.9402 F   0  0  0  0  0  0  0  0  0  0  0  0
   31.4662   10.6986    4.0866 F   0  0  0  0  0  0  0  0  0  0  0  0
   23.6656   14.9312    2.2305 C   0  0  2  0  0  0  0  0  0  0  0  0
   22.8652   13.7898    2.6455 O   0  0  0  0  0  0  0  0  0  0  0  0
   21.6395   14.2341    3.2295 C   0  0  0  0  0  0  0  0  0  0  0  0
   20.7244   14.7034    2.1219 C   0  0  0  0  0  0  0  0  0  0  0  0
   21.4299   15.7731    1.4475 N   0  0  0  0  0  0  0  0  0  0  0  0
   20.8909   16.8757    0.8683 C   0  0  0  0  0  0  0  0  0  0  0  0
   21.9721   17.6775    0.5923 C   0  0  0  0  0  0  0  0  0  0  0  0
   23.1377   17.0900    1.0063 N   0  0  0  0  0  0  0  0  0  0  0  0
   22.7991   15.9165    1.4994 C   0  0  0  0  0  0  0  0  0  0  0  0
  1  2  2  0
  2  3  1  0
  3  4  1  0
  4  5  1  0
  5  6  1  0
  6  7  1  1
  6  8  1  0
  8  9  1  0
  9 10  1  0
  9 11  1  0
  9 12  1  0
 13  2  1  6
 13 14  1  0
 14 15  1  0
 15 16  1  0
 16 17  1  0
 17 18  1  0
 18 19  2  0
 19 20  1  0
 20 21  2  0
 21 13  1  0
 21 17  1  0
M  CHG  2   6   1   7  -1
M  END
>  <energy_score>  (1962) 
-18.307371

>  <inchikey>  (1962) 
JYDQHVBWLNGWED-UHFFFAOYSA-N

>  <smiles>  (1962) 
O=C(NCC[S+]([O-])CC(F)(F)F)C1OCCn2ccnc21

>  <ref_pdb>  (1962) 
A0528a

>  <alias>  (1962) 
JYDQHVBWLNGWED-UHFFFAOYSA-N-P51-P36-P51-601511

>  <HIPPO Pose ID>  (1962) 
518535

>  <name>  (1962) 
JYDQHVBWLNGWED-UHFFFAOYSA-N-P51-P36-P51-601511

>  <HIPPO Compound ID>  (1962) 
301943

>  <ref_mols>  (1962) 
A0239a,A0309a

>  <distance_score>  (1962) 
1.315291

>  <inspiration_score>  (1962) 
None

$$$$
PXDRKMGFYYPKSI-UHFFFAOYSA-N-P36-P36-P51-601511
     RDKit          3D

 22 23  0  0  0  0  0  0  0  0999 V2000
   25.3391   13.9368   -0.0506 O   0  0  0  0  0  0  0  0  0  0  0  0
   24.8701   13.7690    1.0070 C   0  0  0  0  0  0  0  0  0  0  0  0
   25.5494   13.6061    2.3951 N   0  0  0  0  0  0  0  0  0  0  0  0
   26.9261   13.7105    2.7741 C   0  0  0  0  0  0  0  0  0  0  0  0
   27.5774   12.3775    3.1102 C   0  0  0  0  0  0  0  0  0  0  0  0
   28.0940   11.3080    1.7661 S   0  0  0  0  0  0  0  0  0  0  0  0
   26.7756   10.7933    0.9080 O   0  0  0  0  0  0  0  0  0  0  0  0
   29.0754   12.4493    0.7660 C   0  0  0  0  0  0  0  0  0  0  0  0
   30.1853   13.1320    1.5338 C   0  0  0  0  0  0  0  0  0  0  0  0
   29.7328   14.2563    2.1408 F   0  0  0  0  0  0  0  0  0  0  0  0
   30.7267   12.3687    2.5035 F   0  0  0  0  0  0  0  0  0  0  0  0
   31.1806   13.5182    0.7017 F   0  0  0  0  0  0  0  0  0  0  0  0
   23.3533   13.6399    1.2480 C   0  0  2  0  0  0  0  0  0  0  0  0
   22.6491   13.0618    0.0077 C   0  0  0  0  0  0  0  0  0  0  0  0
   21.1329   13.3369   -0.0900 C   0  0  0  0  0  0  0  0  0  0  0  0
   20.5305   14.0535    1.1172 C   0  0  0  0  0  0  0  0  0  0  0  0
   21.3979   15.1286    1.5332 N   0  0  0  0  0  0  0  0  0  0  0  0
   21.0928   16.4102    1.8550 C   0  0  0  0  0  0  0  0  0  0  0  0
   19.3810   17.2062    1.9749 Br  0  0  0  0  0  0  0  0  0  0  0  0
   22.3049   17.0130    2.0890 C   0  0  0  0  0  0  0  0  0  0  0  0
   23.3327   16.1076    1.9472 N   0  0  0  0  0  0  0  0  0  0  0  0
   22.7624   14.9763    1.5873 C   0  0  0  0  0  0  0  0  0  0  0  0
  1  2  2  0
  2  3  1  0
  3  4  1  0
  4  5  1  0
  5  6  1  0
  6  7  1  6
  6  8  1  0
  8  9  1  0
  9 10  1  0
  9 11  1  0
  9 12  1  0
 13  2  1  6
 13 14  1  0
 14 15  1  0
 15 16  1  0
 16 17  1  0
 17 18  1  0
 18 19  1  0
 18 20  2  0
 20 21  1  0
 21 22  2  0
 22 13  1  0
 22 17  1  0
M  CHG  2   6   1   7  -1
M  END
>  <energy_score>  (1963) 
-19.528655

>  <inchikey>  (1963) 
PXDRKMGFYYPKSI-UHFFFAOYSA-N

>  <smiles>  (1963) 
O=C(NCC[S+]([O-])CC(F)(F)F)C1CCCn2c(Br)cnc21

>  <ref_pdb>  (1963) 
A0528a

>  <alias>  (1963) 
PXDRKMGFYYPKSI-UHFFFAOYSA-N-P36-P36-P51-601511

>  <HIPPO Pose ID>  (1963) 
518546

>  <name>  (1963) 
PXDRKMGFYYPKSI-UHFFFAOYSA-N-P36-P36-P51-601511

>  <HIPPO Compound ID>  (1963) 
301949

>  <ref_mols>  (1963) 
A0239a,A0309a

>  <distance_score>  (1963) 
1.428838

>  <inspiration_score>  (1963) 
None

$$$$
HTZMEYITDHGYEK-UHFFFAOYSA-N-P2-P2-P124-601511
     RDKit          3D

 24 27  0  0  0  0  0  0  0  0999 V2000
   11.7519   14.4449   21.0110 C   0  0  0  0  0  0  0  0  0  0  0  0
   11.2293   15.8439   21.1433 C   0  0  2  0  0  0  0  0  0  0  0  0
   10.4418   16.1569   22.7417 S   0  0  0  0  0  0  0  0  0  0  0  0
   10.2874   14.6493   23.4574 C   0  0  0  0  0  0  0  0  0  0  0  0
   11.2832   14.0960   24.1008 N   0  0  0  0  0  0  0  0  0  0  0  0
   10.9291   12.8156   24.3497 N   0  0  0  0  0  0  0  0  0  0  0  0
    9.6857   12.6555   23.9435 C   0  0  0  0  0  0  0  0  0  0  0  0
    8.8899   11.4938   24.1803 C   0  0  0  0  0  0  0  0  0  0  0  0
    9.1894   10.2916   23.5639 C   0  0  0  0  0  0  0  0  0  0  0  0
    8.4641    9.1995   23.9582 C   0  0  0  0  0  0  0  0  0  0  0  0
    7.4581    9.2564   24.8670 N   0  0  0  0  0  0  0  0  0  0  0  0
    7.1766   10.4422   25.4249 C   0  0  0  0  0  0  0  0  0  0  0  0
    7.8708   11.5829   25.1277 C   0  0  0  0  0  0  0  0  0  0  0  0
    9.2172   13.8153   23.3900 N   0  0  0  0  0  0  0  0  0  0  0  0
    7.7976   14.0151   22.9585 C   0  0  0  0  0  0  0  0  0  0  0  0
    7.3231   14.7789   21.7620 C   0  0  0  0  0  0  0  0  0  0  0  0
    7.0443   15.3055   23.1441 C   0  0  0  0  0  0  0  0  0  0  0  0
   10.3017   16.1781   19.9846 C   0  0  0  0  0  0  0  0  0  0  0  0
   10.2332   15.4570   18.9890 O   0  0  0  0  0  0  0  0  0  0  0  0
    9.6021   17.4372   20.0946 C   0  0  0  0  0  0  0  0  0  0  0  0
    8.7730   18.0199   21.0233 C   0  0  0  0  0  0  0  0  0  0  0  0
    8.6519   19.3572   20.6533 C   0  0  0  0  0  0  0  0  0  0  0  0
    8.9603   19.4052   19.3486 C   0  0  0  0  0  0  0  0  0  0  0  0
    9.6509   18.2877   19.0475 O   0  0  0  0  0  0  0  0  0  0  0  0
  2  1  1  1
  2  3  1  0
  3  4  1  0
  4  5  2  0
  5  6  1  0
  6  7  2  0
  7  8  1  0
  8  9  2  0
  9 10  1  0
 10 11  2  0
 11 12  1  0
 12 13  2  0
  7 14  1  0
 14 15  1  0
 15 16  1  0
 16 17  1  0
  2 18  1  0
 18 19  2  0
 18 20  1  0
 20 21  2  0
 21 22  1  0
 22 23  2  0
 23 24  1  0
 14  4  1  0
 17 15  1  0
 24 20  1  0
 13  8  1  0
M  END
>  <energy_score>  (1964) 
-8.650933

>  <inchikey>  (1964) 
HTZMEYITDHGYEK-UHFFFAOYSA-N

>  <smiles>  (1964) 
CC(Sc1nnc(-c2ccncc2)n1C1CC1)C(=O)c1ccco1

>  <ref_pdb>  (1964) 
A0528a

>  <alias>  (1964) 
HTZMEYITDHGYEK-UHFFFAOYSA-N-P2-P2-P124-601511

>  <HIPPO Pose ID>  (1964) 
518578

>  <name>  (1964) 
HTZMEYITDHGYEK-UHFFFAOYSA-N-P2-P2-P124-601511

>  <HIPPO Compound ID>  (1964) 
290815

>  <ref_mols>  (1964) 
A4298a,A1778a

>  <distance_score>  (1964) 
1.93271

>  <inspiration_score>  (1964) 
None

$$$$
RMGQLDUIKGNTAI-UHFFFAOYSA-N-P2-P2-P124-601511
     RDKit          3D

 25 27  0  0  0  0  0  0  0  0999 V2000
    5.3808   14.5070   25.4563 C   0  0  0  0  0  0  0  0  0  0  0  0
    6.3925   15.0710   24.7742 C   0  0  0  0  0  0  0  0  0  0  0  0
    6.8365   16.4792   25.0672 C   0  0  0  0  0  0  0  0  0  0  0  0
    7.0806   14.3626   23.6260 C   0  0  0  0  0  0  0  0  0  0  0  0
    8.5133   14.2726   23.8035 N   0  0  0  0  0  0  0  0  0  0  0  0
    9.4789   14.7839   23.0005 C   0  0  0  0  0  0  0  0  0  0  0  0
    9.2868   14.6709   21.2995 S   0  0  0  0  0  0  0  0  0  0  0  0
   10.8162   15.4947   20.7923 C   0  0  1  0  0  0  0  0  0  0  0  0
   11.9566   14.5605   20.5444 C   0  0  0  0  0  0  0  0  0  0  0  0
   10.4350   16.2822   19.5663 C   0  0  0  0  0  0  0  0  0  0  0  0
   10.6903   15.9021   18.4295 O   0  0  0  0  0  0  0  0  0  0  0  0
    9.7242   17.4909   19.9105 C   0  0  0  0  0  0  0  0  0  0  0  0
    9.2351   17.9350   21.1033 C   0  0  0  0  0  0  0  0  0  0  0  0
    8.7612   19.2314   20.8920 C   0  0  0  0  0  0  0  0  0  0  0  0
    8.7464   19.4397   19.5543 C   0  0  0  0  0  0  0  0  0  0  0  0
    9.4034   18.4138   18.9805 O   0  0  0  0  0  0  0  0  0  0  0  0
   10.6225   14.7442   23.6441 N   0  0  0  0  0  0  0  0  0  0  0  0
   10.4803   13.7327   24.5616 N   0  0  0  0  0  0  0  0  0  0  0  0
    9.2294   13.3093   24.4617 C   0  0  0  0  0  0  0  0  0  0  0  0
    8.7419   11.9617   24.5741 C   0  0  0  0  0  0  0  0  0  0  0  0
    9.2429   10.9749   23.7219 C   0  0  0  0  0  0  0  0  0  0  0  0
    8.7306    9.7038   23.8432 C   0  0  0  0  0  0  0  0  0  0  0  0
    7.7202    9.4058   24.6912 N   0  0  0  0  0  0  0  0  0  0  0  0
    7.2258   10.3882   25.4609 C   0  0  0  0  0  0  0  0  0  0  0  0
    7.7099   11.6711   25.4495 C   0  0  0  0  0  0  0  0  0  0  0  0
  1  2  2  0
  2  3  1  0
  2  4  1  0
  4  5  1  0
  5  6  1  0
  6  7  1  0
  7  8  1  0
  8  9  1  6
  8 10  1  0
 10 11  2  0
 10 12  1  0
 12 13  2  0
 13 14  1  0
 14 15  2  0
 15 16  1  0
  6 17  2  0
 17 18  1  0
 18 19  2  0
 19 20  1  0
 20 21  2  0
 21 22  1  0
 22 23  2  0
 23 24  1  0
 24 25  2  0
 19  5  1  0
 25 20  1  0
 16 12  1  0
M  END
>  <energy_score>  (1965) 
-2.235608

>  <inchikey>  (1965) 
RMGQLDUIKGNTAI-UHFFFAOYSA-N

>  <smiles>  (1965) 
C=C(C)Cn1c(SC(C)C(=O)c2ccco2)nnc1-c1ccncc1

>  <ref_pdb>  (1965) 
A0528a

>  <alias>  (1965) 
RMGQLDUIKGNTAI-UHFFFAOYSA-N-P2-P2-P124-601511

>  <HIPPO Pose ID>  (1965) 
518584

>  <name>  (1965) 
RMGQLDUIKGNTAI-UHFFFAOYSA-N-P2-P2-P124-601511

>  <HIPPO Compound ID>  (1965) 
290818

>  <ref_mols>  (1965) 
A4298a,A1778a

>  <distance_score>  (1965) 
1.965099

>  <inspiration_score>  (1965) 
None

$$$$
HNMYZSIGHOQIKX-UHFFFAOYSA-N-P2-P2-P124-601511
     RDKit          3D

 27 30  0  0  0  0  0  0  0  0999 V2000
   11.6515   15.8991   21.2215 C   0  0  0  0  0  0  0  0  0  0  0  0
   10.2358   15.7299   20.6918 C   0  0  1  0  0  0  0  0  0  0  0  0
    8.8963   16.0279   21.8972 S   0  0  0  0  0  0  0  0  0  0  0  0
    9.2695   14.8916   23.0812 C   0  0  0  0  0  0  0  0  0  0  0  0
   10.4399   14.6643   23.6156 N   0  0  0  0  0  0  0  0  0  0  0  0
   10.3911   13.4144   24.1471 N   0  0  0  0  0  0  0  0  0  0  0  0
    9.1576   12.9717   23.9970 C   0  0  0  0  0  0  0  0  0  0  0  0
    8.6986   11.6474   24.2843 C   0  0  0  0  0  0  0  0  0  0  0  0
    9.1746   10.5717   23.5439 C   0  0  0  0  0  0  0  0  0  0  0  0
    8.6644    9.3310   23.8355 C   0  0  0  0  0  0  0  0  0  0  0  0
    7.6927    9.1366   24.7580 N   0  0  0  0  0  0  0  0  0  0  0  0
    7.2588   10.1934   25.4582 C   0  0  0  0  0  0  0  0  0  0  0  0
    7.7572   11.4557   25.2867 C   0  0  0  0  0  0  0  0  0  0  0  0
    8.3668   13.9658   23.4737 N   0  0  0  0  0  0  0  0  0  0  0  0
    6.9396   14.1503   23.6751 C   0  0  0  0  0  0  0  0  0  0  0  0
    6.0787   14.5014   22.5235 C   0  0  0  0  0  0  0  0  0  0  0  0
    5.3436   15.6322   22.2199 C   0  0  0  0  0  0  0  0  0  0  0  0
    4.4645   15.2638   21.1757 C   0  0  0  0  0  0  0  0  0  0  0  0
    4.7518   13.9571   20.8740 C   0  0  0  0  0  0  0  0  0  0  0  0
    5.7526   13.4941   21.6688 O   0  0  0  0  0  0  0  0  0  0  0  0
    9.9789   16.6296   19.4858 C   0  0  0  0  0  0  0  0  0  0  0  0
   10.1382   16.1642   18.3568 O   0  0  0  0  0  0  0  0  0  0  0  0
    9.5182   18.0071   19.7246 C   0  0  0  0  0  0  0  0  0  0  0  0
    8.6938   18.9299   19.0773 C   0  0  0  0  0  0  0  0  0  0  0  0
    8.4576   20.0280   19.8554 C   0  0  0  0  0  0  0  0  0  0  0  0
    9.1651   19.7261   20.9547 C   0  0  0  0  0  0  0  0  0  0  0  0
    9.8379   18.5714   20.8960 O   0  0  0  0  0  0  0  0  0  0  0  0
  2  1  1  1
  2  3  1  0
  3  4  1  0
  4  5  2  0
  5  6  1  0
  6  7  2  0
  7  8  1  0
  8  9  2  0
  9 10  1  0
 10 11  2  0
 11 12  1  0
 12 13  2  0
  7 14  1  0
 14 15  1  0
 15 16  1  0
 16 17  2  0
 17 18  1  0
 18 19  2  0
 19 20  1  0
  2 21  1  0
 21 22  2  0
 21 23  1  0
 23 24  2  0
 24 25  1  0
 25 26  2  0
 26 27  1  0
 14  4  1  0
 20 16  1  0
 27 23  1  0
 13  8  1  0
M  END
>  <energy_score>  (1966) 
-19.683366

>  <inchikey>  (1966) 
HNMYZSIGHOQIKX-UHFFFAOYSA-N

>  <smiles>  (1966) 
CC(Sc1nnc(-c2ccncc2)n1Cc1ccco1)C(=O)c1ccco1

>  <ref_pdb>  (1966) 
A0528a

>  <alias>  (1966) 
HNMYZSIGHOQIKX-UHFFFAOYSA-N-P2-P2-P124-601511

>  <HIPPO Pose ID>  (1966) 
518590

>  <name>  (1966) 
HNMYZSIGHOQIKX-UHFFFAOYSA-N-P2-P2-P124-601511

>  <HIPPO Compound ID>  (1966) 
290821

>  <ref_mols>  (1966) 
A4298a,A1778a

>  <distance_score>  (1966) 
1.909675

>  <inspiration_score>  (1966) 
None

$$$$
XKSBMYJGNSZVCU-UHFFFAOYSA-N-P20-P20-P564-601511
     RDKit          3D

 25 28  0  0  0  0  0  0  0  0999 V2000
   20.5917   24.5463   25.5551 O   0  0  0  0  0  0  0  0  0  0  0  0
   19.5823   23.8653   25.7125 C   0  0  0  0  0  0  0  0  0  0  0  0
   19.4465   22.8107   26.8193 C   0  0  0  0  0  0  0  0  0  0  0  0
   18.4086   21.8424   26.7092 O   0  0  0  0  0  0  0  0  0  0  0  0
   17.1560   22.3804   26.2316 C   0  0  0  0  0  0  0  0  0  0  0  0
   16.5433   23.3511   27.2792 C   0  0  0  0  0  0  0  0  0  0  0  0
   15.0427   23.1425   27.4917 C   0  0  0  0  0  0  0  0  0  0  0  0
   14.3966   22.7811   26.2439 N   0  0  0  0  0  0  0  0  0  0  0  0
   13.3974   23.5323   25.6901 C   0  0  0  0  0  0  0  0  0  0  0  0
   13.7061   24.4319   24.9033 O   0  0  0  0  0  0  0  0  0  0  0  0
   11.9299   23.2045   25.9368 C   0  0  0  0  0  0  0  0  0  0  0  0
   11.0281   23.8242   24.9643 C   0  0  0  0  0  0  0  0  0  0  0  0
    9.7040   23.6861   25.0206 C   0  0  0  0  0  0  0  0  0  0  0  0
    9.0923   22.8410   26.0548 C   0  0  0  0  0  0  0  0  0  0  0  0
    7.8743   22.6825   26.0420 O   0  0  0  0  0  0  0  0  0  0  0  0
    9.9642   22.3401   27.0098 N   0  0  0  0  0  0  0  0  0  0  0  0
   11.3694   22.4872   26.9487 C   0  0  0  0  0  0  0  0  0  0  0  0
   12.1703   21.9224   28.1161 C   0  0  0  0  0  0  0  0  0  0  0  0
   11.4629   21.1075   29.0593 O   0  0  0  0  0  0  0  0  0  0  0  0
   10.1866   21.6466   29.3639 C   0  0  0  0  0  0  0  0  0  0  0  0
    9.3507   21.5946   28.1047 C   0  0  0  0  0  0  0  0  0  0  0  0
   14.8392   21.5744   25.5704 C   0  0  0  0  0  0  0  0  0  0  0  0
   16.2339   21.1610   26.0222 C   0  0  0  0  0  0  0  0  0  0  0  0
   17.4141   23.0792   24.8713 C   0  0  0  0  0  0  0  0  0  0  0  0
   18.4699   24.0677   24.9386 N   0  0  0  0  0  0  0  0  0  0  0  0
  1  2  2  0
  2  3  1  0
  3  4  1  0
  4  5  1  0
  5  6  1  0
  6  7  1  0
  7  8  1  0
  8  9  1  0
  9 10  2  0
  9 11  1  0
 11 12  1  0
 12 13  2  0
 13 14  1  0
 14 15  2  0
 14 16  1  0
 16 17  1  0
 17 18  1  0
 18 19  1  0
 19 20  1  0
 20 21  1  0
  8 22  1  0
 22 23  1  0
  5 24  1  0
 24 25  1  0
 25  2  1  0
 23  5  1  0
 17 11  2  0
 21 16  1  0
M  END
>  <energy_score>  (1967) 
-27.327617

>  <inchikey>  (1967) 
XKSBMYJGNSZVCU-UHFFFAOYSA-N

>  <smiles>  (1967) 
O=C1COC2(CCN(C(=O)c3ccc(=O)n4c3COCC4)CC2)CN1

>  <ref_pdb>  (1967) 
A0528a

>  <alias>  (1967) 
XKSBMYJGNSZVCU-UHFFFAOYSA-N-P20-P20-P564-601511

>  <HIPPO Pose ID>  (1967) 
518704

>  <name>  (1967) 
XKSBMYJGNSZVCU-UHFFFAOYSA-N-P20-P20-P564-601511

>  <HIPPO Compound ID>  (1967) 
308198

>  <ref_mols>  (1967) 
A0525a,A5091a

>  <distance_score>  (1967) 
1.431437

>  <inspiration_score>  (1967) 
None

$$$$
FRDWYKFKOTULFY-UHFFFAOYSA-N-P20-P20-P564-601511
     RDKit          3D

 26 29  0  0  0  0  0  0  0  0999 V2000
   20.4656   23.9555   27.6171 O   0  0  0  0  0  0  0  0  0  0  0  0
   19.3243   24.3528   27.4003 C   0  0  0  0  0  0  0  0  0  0  0  0
   18.7260   25.5927   28.0783 C   0  0  0  0  0  0  0  0  0  0  0  0
   17.5618   26.1796   27.5056 O   0  0  0  0  0  0  0  0  0  0  0  0
   16.5845   25.2141   27.0591 C   0  0  0  0  0  0  0  0  0  0  0  0
   15.4886   26.0302   26.3522 C   0  0  0  0  0  0  0  0  0  0  0  0
   14.3594   25.1467   25.8367 C   0  0  0  0  0  0  0  0  0  0  0  0
   14.1024   24.0215   26.7184 N   0  0  0  0  0  0  0  0  0  0  0  0
   13.5134   22.8711   26.2283 C   0  0  0  0  0  0  0  0  0  0  0  0
   14.1781   21.9442   25.7779 O   0  0  0  0  0  0  0  0  0  0  0  0
   12.0164   22.8675   26.1812 C   0  0  0  0  0  0  0  0  0  0  0  0
   11.3131   23.5144   25.0875 C   0  0  0  0  0  0  0  0  0  0  0  0
   12.0851   24.1511   24.1402 O   0  0  0  0  0  0  0  0  0  0  0  0
    9.9789   23.5150   25.0293 C   0  0  0  0  0  0  0  0  0  0  0  0
    9.1862   22.8032   26.0510 C   0  0  0  0  0  0  0  0  0  0  0  0
    7.9635   22.7733   25.9305 O   0  0  0  0  0  0  0  0  0  0  0  0
    9.9019   22.2632   27.1085 N   0  0  0  0  0  0  0  0  0  0  0  0
   11.3074   22.2650   27.1656 C   0  0  0  0  0  0  0  0  0  0  0  0
   11.9675   21.6676   28.4020 C   0  0  0  0  0  0  0  0  0  0  0  0
   11.1415   20.7634   29.1457 O   0  0  0  0  0  0  0  0  0  0  0  0
    9.8781   21.3552   29.4244 C   0  0  0  0  0  0  0  0  0  0  0  0
    9.1275   21.5492   28.1213 C   0  0  0  0  0  0  0  0  0  0  0  0
   14.4811   24.1488   28.1090 C   0  0  0  0  0  0  0  0  0  0  0  0
   15.9712   24.4634   28.2666 C   0  0  0  0  0  0  0  0  0  0  0  0
   17.2721   24.2560   26.0519 C   0  0  0  0  0  0  0  0  0  0  0  0
   18.4775   23.6527   26.5820 N   0  0  0  0  0  0  0  0  0  0  0  0
  1  2  2  0
  2  3  1  0
  3  4  1  0
  4  5  1  0
  5  6  1  0
  6  7  1  0
  7  8  1  0
  8  9  1  0
  9 10  2  0
  9 11  1  0
 11 12  1  0
 12 13  1  0
 12 14  2  0
 14 15  1  0
 15 16  2  0
 15 17  1  0
 17 18  1  0
 18 19  1  0
 19 20  1  0
 20 21  1  0
 21 22  1  0
  8 23  1  0
 23 24  1  0
  5 25  1  0
 25 26  1  0
 26  2  1  0
 24  5  1  0
 18 11  2  0
 22 17  1  0
M  END
>  <energy_score>  (1968) 
-80.921462

>  <inchikey>  (1968) 
FRDWYKFKOTULFY-UHFFFAOYSA-N

>  <smiles>  (1968) 
O=C1COC2(CCN(C(=O)c3c(O)cc(=O)n4c3COCC4)CC2)CN1

>  <ref_pdb>  (1968) 
A0528a

>  <alias>  (1968) 
FRDWYKFKOTULFY-UHFFFAOYSA-N-P20-P20-P564-601511

>  <HIPPO Pose ID>  (1968) 
518786

>  <name>  (1968) 
FRDWYKFKOTULFY-UHFFFAOYSA-N-P20-P20-P564-601511

>  <HIPPO Compound ID>  (1968) 
308240

>  <ref_mols>  (1968) 
A0525a,A5091a

>  <distance_score>  (1968) 
1.920512

>  <inspiration_score>  (1968) 
None

$$$$
VDGRKPHOAZUDBW-UHFFFAOYSA-N-P338-P124-P338-601511
     RDKit          3D

 23 25  0  0  0  0  0  0  0  0999 V2000
    9.7623   10.2505   23.7500 C   0  0  0  0  0  0  0  0  0  0  0  0
    9.4635   11.5874   23.3620 O   0  0  0  0  0  0  0  0  0  0  0  0
   10.3212   12.5880   23.9162 C   0  0  0  0  0  0  0  0  0  0  0  0
   10.1611   14.0029   23.2706 C   0  0  1  0  0  0  0  0  0  0  0  0
   11.3457   14.8416   23.7760 C   0  0  0  0  0  0  0  0  0  0  0  0
   10.9045   16.1816   23.2987 C   0  0  0  0  0  0  0  0  0  0  0  0
    9.5754   15.8020   22.6744 C   0  0  1  0  0  0  0  0  0  0  0  0
    9.7535   15.2202   21.2979 C   0  0  0  0  0  0  0  0  0  0  0  0
   10.2417   13.8916   21.7357 C   0  0  0  0  0  0  0  0  0  0  0  0
    8.8801   14.8435   23.6146 N   0  0  0  0  0  0  0  0  0  0  0  0
    7.6051   14.0158   23.4311 C   0  0  0  0  0  0  0  0  0  0  0  0
    6.9138   13.8752   22.4797 O   0  0  0  0  0  0  0  0  0  0  0  0
    7.1489   13.3643   24.7746 C   0  0  1  0  0  0  0  0  0  0  0  0
    7.1116   11.8516   24.8419 C   0  0  0  0  0  0  0  0  0  0  0  0
    7.9848   13.8929   26.2865 S   0  0  0  0  0  0  0  0  0  0  0  0
    7.5584   15.5965   26.4128 C   0  0  0  0  0  0  0  0  0  0  0  0
    8.4192   16.3965   27.1504 C   0  0  0  0  0  0  0  0  0  0  0  0
    8.0423   17.6985   27.4326 C   0  0  0  0  0  0  0  0  0  0  0  0
    6.8129   18.1606   26.9770 C   0  0  0  0  0  0  0  0  0  0  0  0
    6.3137   19.9017   27.5038 Br  0  0  0  0  0  0  0  0  0  0  0  0
    6.0179   17.2962   26.2284 C   0  0  0  0  0  0  0  0  0  0  0  0
    4.2711   17.7716   25.6710 Br  0  0  0  0  0  0  0  0  0  0  0  0
    6.3757   16.0202   25.9436 N   0  0  0  0  0  0  0  0  0  0  0  0
  1  2  1  0
  2  3  1  0
  4  3  1  1
  4  5  1  0
  5  6  1  0
  7  6  1  1
  7  8  1  0
  8  9  1  0
  7 10  1  0
 10 11  1  0
 11 12  2  0
 11 13  1  0
 13 14  1  6
 13 15  1  0
 15 16  1  0
 16 17  2  0
 17 18  1  0
 18 19  2  0
 19 20  1  0
 19 21  1  0
 21 22  1  0
 21 23  2  0
  9  4  1  0
 23 16  1  0
 10  4  1  0
M  END
>  <energy_score>  (1969) 
-4.826884

>  <inchikey>  (1969) 
VDGRKPHOAZUDBW-UHFFFAOYSA-N

>  <smiles>  (1969) 
COCC12CCC(CC1)N2C(=O)C(C)Sc1ccc(Br)c(Br)n1

>  <ref_pdb>  (1969) 
A0528a

>  <alias>  (1969) 
VDGRKPHOAZUDBW-UHFFFAOYSA-N-P338-P124-P338-601511

>  <HIPPO Pose ID>  (1969) 
519729

>  <name>  (1969) 
VDGRKPHOAZUDBW-UHFFFAOYSA-N-P338-P124-P338-601511

>  <HIPPO Compound ID>  (1969) 
291534

>  <ref_mols>  (1969) 
A4237a,A1778a

>  <distance_score>  (1969) 
1.506857

>  <inspiration_score>  (1969) 
None

$$$$
DBOKYLOKRAXMAB-UHFFFAOYSA-N-P338-P124-P338-601511
     RDKit          3D

 23 24  0  0  0  0  0  0  0  0999 V2000
   10.3095    9.7304   24.2962 C   0  0  0  0  0  0  0  0  0  0  0  0
   10.9667   11.0007   24.4621 O   0  0  0  0  0  0  0  0  0  0  0  0
   10.0007   12.0391   24.5341 C   0  0  0  0  0  0  0  0  0  0  0  0
   10.4077   13.4964   24.1533 C   0  0  1  0  0  0  0  0  0  0  0  0
   10.8449   13.5073   22.6935 C   0  0  0  0  0  0  0  0  0  0  0  0
   10.6926   14.9508   22.3588 C   0  0  0  0  0  0  0  0  0  0  0  0
    9.7981   15.1770   21.1390 C   0  0  0  0  0  0  0  0  0  0  0  0
   12.0225   15.6606   22.1108 C   0  0  0  0  0  0  0  0  0  0  0  0
   10.0899   15.3990   23.6815 C   0  0  0  0  0  0  0  0  0  0  0  0
    9.1864   14.4513   24.4273 N   0  0  0  0  0  0  0  0  0  0  0  0
    7.8621   13.7951   24.0079 C   0  0  0  0  0  0  0  0  0  0  0  0
    7.2918   13.8208   22.9763 O   0  0  0  0  0  0  0  0  0  0  0  0
    7.2940   13.1229   25.2888 C   0  0  2  0  0  0  0  0  0  0  0  0
    6.9777   11.6437   25.0973 C   0  0  0  0  0  0  0  0  0  0  0  0
    5.7750   13.9705   25.7952 S   0  0  0  0  0  0  0  0  0  0  0  0
    6.3560   15.5782   26.2491 C   0  0  0  0  0  0  0  0  0  0  0  0
    7.5274   15.8074   26.9590 C   0  0  0  0  0  0  0  0  0  0  0  0
    7.8047   17.0958   27.4042 C   0  0  0  0  0  0  0  0  0  0  0  0
    6.8879   18.1142   27.1617 C   0  0  0  0  0  0  0  0  0  0  0  0
    7.2395   19.8020   27.9299 Br  0  0  0  0  0  0  0  0  0  0  0  0
    5.7392   17.8062   26.4444 C   0  0  0  0  0  0  0  0  0  0  0  0
    4.3263   19.0582   26.2231 Br  0  0  0  0  0  0  0  0  0  0  0  0
    5.4779   16.5622   25.9832 N   0  0  0  0  0  0  0  0  0  0  0  0
  1  2  1  0
  2  3  1  0
  4  3  1  6
  4  5  1  0
  5  6  1  0
  6  7  1  0
  6  8  1  0
  6  9  1  0
  9 10  1  0
 10 11  1  0
 11 12  2  0
 11 13  1  0
 13 14  1  6
 13 15  1  0
 15 16  1  0
 16 17  2  0
 17 18  1  0
 18 19  2  0
 19 20  1  0
 19 21  1  0
 21 22  1  0
 21 23  2  0
 10  4  1  0
 23 16  1  0
M  END
>  <energy_score>  (1970) 
-86.035016

>  <inchikey>  (1970) 
DBOKYLOKRAXMAB-UHFFFAOYSA-N

>  <smiles>  (1970) 
COCC1CC(C)(C)CN1C(=O)C(C)Sc1ccc(Br)c(Br)n1

>  <ref_pdb>  (1970) 
A0528a

>  <alias>  (1970) 
DBOKYLOKRAXMAB-UHFFFAOYSA-N-P338-P124-P338-601511

>  <HIPPO Pose ID>  (1970) 
519735

>  <name>  (1970) 
DBOKYLOKRAXMAB-UHFFFAOYSA-N-P338-P124-P338-601511

>  <HIPPO Compound ID>  (1970) 
291537

>  <ref_mols>  (1970) 
A4237a,A1778a

>  <distance_score>  (1970) 
1.709921

>  <inspiration_score>  (1970) 
None

$$$$
SAKFRBDFRWFMPD-UHFFFAOYSA-N-P338-P124-P338-601511
     RDKit          3D

 24 26  0  0  0  0  0  0  0  0999 V2000
    6.8697   11.6183   26.1922 C   0  0  0  0  0  0  0  0  0  0  0  0
    8.0996   11.1871   25.3812 C   0  0  0  0  0  0  0  0  0  0  0  0
    9.0348   12.2823   25.2992 O   0  0  0  0  0  0  0  0  0  0  0  0
    9.7492   12.3764   24.1396 C   0  0  0  0  0  0  0  0  0  0  0  0
    9.7889   11.5228   23.2684 O   0  0  0  0  0  0  0  0  0  0  0  0
   10.5370   13.6912   24.0520 C   0  0  1  0  0  0  0  0  0  0  0  0
   11.9706   13.4474   24.5840 C   0  0  0  0  0  0  0  0  0  0  0  0
   11.7162   13.8253   23.1515 C   0  0  2  0  0  0  0  0  0  0  0  0
   11.7100   15.2299   22.7845 C   0  0  0  0  0  0  0  0  0  0  0  0
   10.9360   15.7510   23.9820 C   0  0  0  0  0  0  0  0  0  0  0  0
    9.5695   15.1134   24.1948 N   0  0  0  0  0  0  0  0  0  0  0  0
    8.3527   15.0475   23.2787 C   0  0  0  0  0  0  0  0  0  0  0  0
    8.2177   15.4052   22.1658 O   0  0  0  0  0  0  0  0  0  0  0  0
    7.2771   14.3023   24.0306 C   0  0  2  0  0  0  0  0  0  0  0  0
    6.8700   13.1882   23.1027 C   0  0  0  0  0  0  0  0  0  0  0  0
    5.7821   15.1658   24.4655 S   0  0  0  0  0  0  0  0  0  0  0  0
    6.3185   16.3432   25.6480 C   0  0  0  0  0  0  0  0  0  0  0  0
    7.4542   16.2568   26.4397 C   0  0  0  0  0  0  0  0  0  0  0  0
    7.7793   17.3312   27.2588 C   0  0  0  0  0  0  0  0  0  0  0  0
    6.9393   18.4404   27.2918 C   0  0  0  0  0  0  0  0  0  0  0  0
    7.4617   19.9010   28.3583 Br  0  0  0  0  0  0  0  0  0  0  0  0
    5.7726   18.4088   26.5422 C   0  0  0  0  0  0  0  0  0  0  0  0
    4.4303   19.7520   26.6900 Br  0  0  0  0  0  0  0  0  0  0  0  0
    5.4639   17.3768   25.7360 N   0  0  0  0  0  0  0  0  0  0  0  0
  1  2  1  0
  2  3  1  0
  3  4  1  0
  4  5  2  0
  6  4  1  6
  6  7  1  0
  8  7  1  1
  8  9  1  0
  9 10  1  0
 10 11  1  0
 11 12  1  0
 12 13  2  0
 12 14  1  0
 14 15  1  6
 14 16  1  0
 16 17  1  0
 17 18  2  0
 18 19  1  0
 19 20  2  0
 20 21  1  0
 20 22  1  0
 22 23  1  0
 22 24  2  0
  8  6  1  0
 24 17  1  0
 11  6  1  0
M  END
>  <energy_score>  (1971) 
-6.625058

>  <inchikey>  (1971) 
SAKFRBDFRWFMPD-UHFFFAOYSA-N

>  <smiles>  (1971) 
CCOC(=O)C12CC1CCN2C(=O)C(C)Sc1ccc(Br)c(Br)n1

>  <ref_pdb>  (1971) 
A0528a

>  <alias>  (1971) 
SAKFRBDFRWFMPD-UHFFFAOYSA-N-P338-P124-P338-601511

>  <HIPPO Pose ID>  (1971) 
519817

>  <name>  (1971) 
SAKFRBDFRWFMPD-UHFFFAOYSA-N-P338-P124-P338-601511

>  <HIPPO Compound ID>  (1971) 
291581

>  <ref_mols>  (1971) 
A4237a,A1778a

>  <distance_score>  (1971) 
1.835822

>  <inspiration_score>  (1971) 
None

$$$$
CBPLCNSZQNSFLL-UHFFFAOYSA-N-P338-P124-P338-601511
     RDKit          3D

 25 27  0  0  0  0  0  0  0  0999 V2000
    9.9662   15.5094   19.2517 C   0  0  0  0  0  0  0  0  0  0  0  0
    9.3740   15.4336   20.5544 O   0  0  0  0  0  0  0  0  0  0  0  0
   10.2629   15.0775   21.5168 C   0  0  0  0  0  0  0  0  0  0  0  0
   11.4057   14.6914   21.2895 O   0  0  0  0  0  0  0  0  0  0  0  0
    9.6975   15.3236   22.9529 C   0  0  2  0  0  0  0  0  0  0  0  0
   10.8470   15.8872   23.7584 C   0  0  0  0  0  0  0  0  0  0  0  0
   11.4769   14.6215   24.2507 C   0  0  0  0  0  0  0  0  0  0  0  0
   10.3961   13.5908   23.9555 C   0  0  0  0  0  0  0  0  0  0  0  0
   10.5360   12.5121   22.8496 C   0  0  0  0  0  0  0  0  0  0  0  0
   10.0866   11.4237   23.8310 C   0  0  0  0  0  0  0  0  0  0  0  0
   10.5094   12.3749   24.9531 C   0  0  0  0  0  0  0  0  0  0  0  0
    8.9051   14.3689   23.9813 N   0  0  0  0  0  0  0  0  0  0  0  0
    7.7636   13.3870   23.7452 C   0  0  0  0  0  0  0  0  0  0  0  0
    7.2505   13.0411   22.7415 O   0  0  0  0  0  0  0  0  0  0  0  0
    7.3055   12.9730   25.1628 C   0  0  2  0  0  0  0  0  0  0  0  0
    7.0658   11.4766   25.2968 C   0  0  0  0  0  0  0  0  0  0  0  0
    5.7863   13.8637   25.5884 S   0  0  0  0  0  0  0  0  0  0  0  0
    6.3738   15.4586   26.0944 C   0  0  0  0  0  0  0  0  0  0  0  0
    7.5334   15.6737   26.8299 C   0  0  0  0  0  0  0  0  0  0  0  0
    7.8049   16.9517   27.3122 C   0  0  0  0  0  0  0  0  0  0  0  0
    6.8922   17.9763   27.0855 C   0  0  0  0  0  0  0  0  0  0  0  0
    7.2335   19.6459   27.8980 Br  0  0  0  0  0  0  0  0  0  0  0  0
    5.7540   17.6844   26.3458 C   0  0  0  0  0  0  0  0  0  0  0  0
    4.3418   18.9399   26.1447 Br  0  0  0  0  0  0  0  0  0  0  0  0
    5.5021   16.4532   25.8425 N   0  0  0  0  0  0  0  0  0  0  0  0
  1  2  1  0
  2  3  1  0
  3  4  2  0
  5  3  1  6
  5  6  1  0
  6  7  1  0
  7  8  1  0
  8  9  1  0
  9 10  1  0
 10 11  1  0
  8 12  1  0
 12 13  1  0
 13 14  2  0
 13 15  1  0
 15 16  1  6
 15 17  1  0
 17 18  1  0
 18 19  2  0
 19 20  1  0
 20 21  2  0
 21 22  1  0
 21 23  1  0
 23 24  1  0
 23 25  2  0
 12  5  1  0
 25 18  1  0
 11  8  1  0
M  END
>  <energy_score>  (1972) 
-3.68695

>  <inchikey>  (1972) 
CBPLCNSZQNSFLL-UHFFFAOYSA-N

>  <smiles>  (1972) 
COC(=O)C1CCC2(CCC2)N1C(=O)C(C)Sc1ccc(Br)c(Br)n1

>  <ref_pdb>  (1972) 
A0528a

>  <alias>  (1972) 
CBPLCNSZQNSFLL-UHFFFAOYSA-N-P338-P124-P338-601511

>  <HIPPO Pose ID>  (1972) 
519835

>  <name>  (1972) 
CBPLCNSZQNSFLL-UHFFFAOYSA-N-P338-P124-P338-601511

>  <HIPPO Compound ID>  (1972) 
291594

>  <ref_mols>  (1972) 
A4237a,A1778a

>  <distance_score>  (1972) 
1.810445

>  <inspiration_score>  (1972) 
None

$$$$
DKGSHVCPMJGPIM-UHFFFAOYSA-N-P344-P134-P344-601512
     RDKit          3D

 24 26  0  0  0  0  0  0  0  0999 V2000
   12.5114   14.3614   24.5625 C   0  0  0  0  0  0  0  0  0  0  0  0
   11.1663   14.9694   24.1331 C   0  0  0  0  0  0  0  0  0  0  0  0
   10.8327   16.0699   25.1334 C   0  0  0  0  0  0  0  0  0  0  0  0
   10.1338   13.9965   24.3814 O   0  0  0  0  0  0  0  0  0  0  0  0
   10.0780   12.8707   23.6349 C   0  0  0  0  0  0  0  0  0  0  0  0
   10.8888   12.4651   22.8381 O   0  0  0  0  0  0  0  0  0  0  0  0
    8.8676   12.1672   24.0573 C   0  0  0  0  0  0  0  0  0  0  0  0
    8.8912   10.7663   24.1555 C   0  0  0  0  0  0  0  0  0  0  0  0
    7.9274   10.1142   24.9207 C   0  0  0  0  0  0  0  0  0  0  0  0
    6.9999   10.8895   25.5985 C   0  0  0  0  0  0  0  0  0  0  0  0
    6.9689   12.2827   25.4076 C   0  0  0  0  0  0  0  0  0  0  0  0
    7.8237   12.9299   24.5704 C   0  0  0  0  0  0  0  0  0  0  0  0
    6.0335   12.9766   26.2178 N   0  0  0  0  0  0  0  0  0  0  0  0
    5.9242   11.9671   27.5787 S   0  0  0  0  0  0  0  0  0  0  0  0
    7.1867   12.1676   28.2674 O   0  0  0  0  0  0  0  0  0  0  0  0
    4.6422   12.1323   28.2166 O   0  0  0  0  0  0  0  0  0  0  0  0
    6.0380   10.4296   26.6500 C   0  0  0  0  0  0  0  0  0  0  0  0
   11.0653   15.4371   22.6929 C   0  0  0  0  0  0  0  0  0  0  0  0
   12.1556   15.4140   21.8410 C   0  0  0  0  0  0  0  0  0  0  0  0
   11.9626   15.3640   20.4690 C   0  0  0  0  0  0  0  0  0  0  0  0
   10.6935   15.4934   19.9540 C   0  0  0  0  0  0  0  0  0  0  0  0
   10.4739   15.2496   18.6157 N   0  0  0  0  0  0  0  0  0  0  0  0
    9.6326   15.7221   20.7367 N   0  0  0  0  0  0  0  0  0  0  0  0
    9.8365   15.6812   22.0767 C   0  0  0  0  0  0  0  0  0  0  0  0
  1  2  1  0
  2  3  1  0
  2  4  1  0
  4  5  1  0
  5  6  2  0
  5  7  1  0
  7  8  2  0
  8  9  1  0
  9 10  2  0
 10 11  1  0
 11 12  2  0
 11 13  1  0
 13 14  1  0
 14 15  2  0
 14 16  2  0
 14 17  1  0
  2 18  1  0
 18 19  2  0
 19 20  1  0
 20 21  2  0
 21 22  1  0
 21 23  1  0
 23 24  2  0
 12  7  1  0
 24 18  1  0
 17 10  1  0
M  END
>  <energy_score>  (1973) 
-33.483125

>  <inchikey>  (1973) 
DKGSHVCPMJGPIM-UHFFFAOYSA-N

>  <smiles>  (1973) 
CC(C)(OC(=O)c1ccc2c(c1)NS(=O)(=O)C2)c1ccc(N)nc1

>  <ref_pdb>  (1973) 
A2513a

>  <alias>  (1973) 
DKGSHVCPMJGPIM-UHFFFAOYSA-N-P344-P134-P344-601512

>  <HIPPO Pose ID>  (1973) 
520205

>  <name>  (1973) 
DKGSHVCPMJGPIM-UHFFFAOYSA-N-P344-P134-P344-601512

>  <HIPPO Compound ID>  (1973) 
290115

>  <ref_mols>  (1973) 
A4274b,A2513a

>  <distance_score>  (1973) 
1.925111

>  <inspiration_score>  (1973) 
None

$$$$
DNDVSEOECXYBJN-UHFFFAOYSA-N-P134-P134-P344-601512
     RDKit          3D

 26 29  0  0  0  0  0  0  0  0999 V2000
    1.8441   13.9759   19.5446 C   0  0  0  0  0  0  0  0  0  0  0  0
    2.5357   14.2300   20.8489 C   0  0  0  0  0  0  0  0  0  0  0  0
    1.8006   14.3769   22.0174 C   0  0  0  0  0  0  0  0  0  0  0  0
    2.4777   14.5702   23.2226 C   0  0  0  0  0  0  0  0  0  0  0  0
    3.8796   14.5918   23.2588 C   0  0  0  0  0  0  0  0  0  0  0  0
    4.6899   14.6617   24.5568 C   0  0  2  0  0  0  0  0  0  0  0  0
    6.0140   14.0949   24.2616 O   0  0  0  0  0  0  0  0  0  0  0  0
    6.8771   13.7356   25.2247 C   0  0  0  0  0  0  0  0  0  0  0  0
    6.7469   13.8256   26.4359 O   0  0  0  0  0  0  0  0  0  0  0  0
    8.1281   13.2068   24.6462 C   0  0  0  0  0  0  0  0  0  0  0  0
    8.8392   13.9551   23.6921 C   0  0  0  0  0  0  0  0  0  0  0  0
   10.1963   13.7042   23.4799 C   0  0  0  0  0  0  0  0  0  0  0  0
   10.8115   12.7138   24.2372 C   0  0  0  0  0  0  0  0  0  0  0  0
   10.0595   11.8887   25.0708 C   0  0  0  0  0  0  0  0  0  0  0  0
    8.7117   12.0984   25.2707 C   0  0  0  0  0  0  0  0  0  0  0  0
   10.7945   10.8427   25.6881 N   0  0  0  0  0  0  0  0  0  0  0  0
   12.4250   11.3294   25.6919 S   0  0  0  0  0  0  0  0  0  0  0  0
   13.2258   10.1823   25.3220 O   0  0  0  0  0  0  0  0  0  0  0  0
   12.6577   12.0115   26.9485 O   0  0  0  0  0  0  0  0  0  0  0  0
   12.2881   12.5625   24.3796 C   0  0  0  0  0  0  0  0  0  0  0  0
    3.9907   13.9527   25.7465 C   0  0  0  0  0  0  0  0  0  0  0  0
    3.8630   15.0148   26.8326 C   0  0  0  0  0  0  0  0  0  0  0  0
    4.8803   16.0221   26.5381 N   0  0  0  0  0  0  0  0  0  0  0  0
    4.8709   16.1105   25.0603 C   0  0  0  0  0  0  0  0  0  0  0  0
    4.5112   14.5019   22.0175 C   0  0  0  0  0  0  0  0  0  0  0  0
    3.8810   14.3098   20.8307 N   0  0  0  0  0  0  0  0  0  0  0  0
  1  2  1  0
  2  3  2  0
  3  4  1  0
  4  5  2  0
  5  6  1  0
  6  7  1  6
  7  8  1  0
  8  9  2  0
  8 10  1  0
 10 11  2  0
 11 12  1  0
 12 13  2  0
 13 14  1  0
 14 15  2  0
 14 16  1  0
 16 17  1  0
 17 18  2  0
 17 19  2  0
 17 20  1  0
  6 21  1  0
 21 22  1  0
 22 23  1  0
 23 24  1  0
  5 25  1  0
 25 26  2  0
 26  2  1  0
 24  6  1  0
 15 10  1  0
 20 13  1  0
M  END
>  <energy_score>  (1974) 
-28.976453

>  <inchikey>  (1974) 
DNDVSEOECXYBJN-UHFFFAOYSA-N

>  <smiles>  (1974) 
Cc1ccc(C2(OC(=O)c3ccc4c(c3)NS(=O)(=O)C4)CCNC2)cn1

>  <ref_pdb>  (1974) 
A2513a

>  <alias>  (1974) 
DNDVSEOECXYBJN-UHFFFAOYSA-N-P134-P134-P344-601512

>  <HIPPO Pose ID>  (1974) 
520264

>  <name>  (1974) 
DNDVSEOECXYBJN-UHFFFAOYSA-N-P134-P134-P344-601512

>  <HIPPO Compound ID>  (1974) 
290145

>  <ref_mols>  (1974) 
A4274b,A2513a

>  <distance_score>  (1974) 
1.542133

>  <inspiration_score>  (1974) 
None

$$$$
VNQGPMZFHAOWHH-UHFFFAOYSA-N-P487-P28-P487-601512
     RDKit          3D

 24 26  0  0  0  0  0  0  0  0999 V2000
    6.2604   14.0376   22.1287 C   0  0  0  0  0  0  0  0  0  0  0  0
    7.3361   13.2041   22.8114 C   0  0  1  0  0  0  0  0  0  0  0  0
    8.6087   13.7411   22.5621 N   0  0  0  0  0  0  0  0  0  0  0  0
    9.0967   15.1722   22.5985 C   0  0  0  0  0  0  0  0  0  0  0  0
    8.5529   16.1425   22.9142 O   0  0  0  0  0  0  0  0  0  0  0  0
   10.4850   15.1632   22.0832 C   0  0  0  0  0  0  0  0  0  0  0  0
   10.5977   15.1367   20.5389 C   0  0  0  0  0  0  0  0  0  0  0  0
   11.7256   14.6759   19.8505 C   0  0  0  0  0  0  0  0  0  0  0  0
   11.3847   14.7698   18.5402 C   0  0  0  0  0  0  0  0  0  0  0  0
   10.1469   15.3169   18.5067 N   0  0  0  0  0  0  0  0  0  0  0  0
    9.6498   15.5839   19.7180 N   0  0  0  0  0  0  0  0  0  0  0  0
   11.5412   15.9347   22.7657 C   0  0  0  0  0  0  0  0  0  0  0  0
   11.4996   14.4566   22.9756 C   0  0  0  0  0  0  0  0  0  0  0  0
    6.9423   12.7849   24.2082 C   0  0  0  0  0  0  0  0  0  0  0  0
    7.6775   11.5437   24.7097 C   0  0  0  0  0  0  0  0  0  0  0  0
    6.8302   10.9634   25.8358 C   0  0  0  0  0  0  0  0  0  0  0  0
    6.5202   11.9049   26.9211 N   0  0  0  0  0  0  0  0  0  0  0  0
    5.3942   11.4258   27.7881 C   0  0  0  0  0  0  0  0  0  0  0  0
    5.1538    9.9255   28.0247 C   0  0  0  0  0  0  0  0  0  0  0  0
    6.1663    9.3591   28.7044 F   0  0  0  0  0  0  0  0  0  0  0  0
    4.0331    9.7587   28.7611 F   0  0  0  0  0  0  0  0  0  0  0  0
    4.9494    9.2748   26.8609 F   0  0  0  0  0  0  0  0  0  0  0  0
    6.2091   13.2880   26.4961 C   0  0  0  0  0  0  0  0  0  0  0  0
    7.0141   13.8243   25.3093 C   0  0  0  0  0  0  0  0  0  0  0  0
  2  1  1  1
  2  3  1  0
  3  4  1  0
  4  5  2  0
  4  6  1  0
  6  7  1  0
  7  8  1  0
  8  9  2  0
  9 10  1  0
 10 11  1  0
  6 12  1  0
 12 13  1  0
  2 14  1  0
 14 15  1  0
 15 16  1  0
 16 17  1  0
 17 18  1  0
 18 19  1  0
 19 20  1  0
 19 21  1  0
 19 22  1  0
 17 23  1  0
 23 24  1  0
 13  6  1  0
 24 14  1  0
 11  7  2  0
M  END
>  <energy_score>  (1975) 
-37.291231

>  <inchikey>  (1975) 
VNQGPMZFHAOWHH-UHFFFAOYSA-N

>  <smiles>  (1975) 
CC(NC(=O)C1(c2cc[nH]n2)CC1)C1CCN(CC(F)(F)F)CC1

>  <ref_pdb>  (1975) 
A2513a

>  <alias>  (1975) 
VNQGPMZFHAOWHH-UHFFFAOYSA-N-P487-P28-P487-601512

>  <HIPPO Pose ID>  (1975) 
520329

>  <name>  (1975) 
VNQGPMZFHAOWHH-UHFFFAOYSA-N-P487-P28-P487-601512

>  <HIPPO Compound ID>  (1975) 
307166

>  <ref_mols>  (1975) 
A0556a,A4846a

>  <distance_score>  (1975) 
1.209885

>  <inspiration_score>  (1975) 
None

$$$$
KRYBSYUSRMXLBQ-UHFFFAOYSA-N-P487-P28-P487-601512
     RDKit          3D

 26 27  0  0  0  0  0  0  0  0999 V2000
    5.7033   14.6904   22.2994 C   0  0  0  0  0  0  0  0  0  0  0  0
    6.4676   14.6011   23.6176 C   0  0  2  0  0  0  0  0  0  0  0  0
    7.8280   15.0056   23.3760 N   0  0  0  0  0  0  0  0  0  0  0  0
    8.9423   15.4128   24.3612 C   0  0  0  0  0  0  0  0  0  0  0  0
    8.9120   15.5596   25.5189 O   0  0  0  0  0  0  0  0  0  0  0  0
   10.2787   15.5233   23.6128 C   0  0  0  0  0  0  0  0  0  0  0  0
   10.3136   15.5141   22.1209 C   0  0  0  0  0  0  0  0  0  0  0  0
   11.0554   14.6976   21.2846 C   0  0  0  0  0  0  0  0  0  0  0  0
   10.8621   15.2406   20.0070 C   0  0  0  0  0  0  0  0  0  0  0  0
   11.5094   14.9451   18.7818 N   0  0  0  0  0  0  0  0  0  0  0  0
   11.8166   15.8926   18.0665 O   0  0  0  0  0  0  0  0  0  0  0  0
   11.7703   13.7628   18.5848 O   0  0  0  0  0  0  0  0  0  0  0  0
    9.9542   16.2138   19.9957 N   0  0  0  0  0  0  0  0  0  0  0  0
    9.6970   16.4192   21.2856 N   0  0  0  0  0  0  0  0  0  0  0  0
    8.8234   17.5157   21.5748 C   0  0  0  0  0  0  0  0  0  0  0  0
    6.4846   13.1352   24.0823 C   0  0  0  0  0  0  0  0  0  0  0  0
    7.7067   12.4046   23.5132 C   0  0  0  0  0  0  0  0  0  0  0  0
    8.7162   12.0962   24.5923 C   0  0  0  0  0  0  0  0  0  0  0  0
    8.1304   11.0711   25.4496 N   0  0  0  0  0  0  0  0  0  0  0  0
    8.0882    9.7643   24.7294 C   0  0  0  0  0  0  0  0  0  0  0  0
    9.0866    9.4062   23.6139 C   0  0  0  0  0  0  0  0  0  0  0  0
    8.7024    8.2802   23.0101 F   0  0  0  0  0  0  0  0  0  0  0  0
   10.3108    9.2131   24.0999 F   0  0  0  0  0  0  0  0  0  0  0  0
    9.1798   10.3369   22.6424 F   0  0  0  0  0  0  0  0  0  0  0  0
    6.8046   11.4962   25.9755 C   0  0  0  0  0  0  0  0  0  0  0  0
    6.4069   12.9401   25.6029 C   0  0  0  0  0  0  0  0  0  0  0  0
  2  1  1  6
  2  3  1  0
  3  4  1  0
  4  5  2  0
  4  6  1  0
  6  7  1  0
  7  8  2  0
  8  9  1  0
  9 10  1  0
 10 11  2  0
 10 12  1  0
  9 13  2  0
 13 14  1  0
 14 15  1  0
  2 16  1  0
 16 17  1  0
 17 18  1  0
 18 19  1  0
 19 20  1  0
 20 21  1  0
 21 22  1  0
 21 23  1  0
 21 24  1  0
 19 25  1  0
 25 26  1  0
 14  7  1  0
 26 16  1  0
M  CHG  2  10   1  12  -1
M  END
>  <energy_score>  (1976) 
-20.085877

>  <inchikey>  (1976) 
KRYBSYUSRMXLBQ-UHFFFAOYSA-N

>  <smiles>  (1976) 
CC(NC(=O)Cc1cc([N+](=O)[O-])nn1C)C1CCN(CC(F)(F)F)CC1

>  <ref_pdb>  (1976) 
A2513a

>  <alias>  (1976) 
KRYBSYUSRMXLBQ-UHFFFAOYSA-N-P487-P28-P487-601512

>  <HIPPO Pose ID>  (1976) 
520389

>  <name>  (1976) 
KRYBSYUSRMXLBQ-UHFFFAOYSA-N-P487-P28-P487-601512

>  <HIPPO Compound ID>  (1976) 
307196

>  <ref_mols>  (1976) 
A0556a,A4846a

>  <distance_score>  (1976) 
1.708352

>  <inspiration_score>  (1976) 
None

$$$$
NCLYFUHOMVQGOO-UHFFFAOYSA-N-P487-P28-P487-601512
     RDKit          3D

 26 28  0  0  0  0  0  0  0  0999 V2000
    6.7968   13.9081   22.9028 C   0  0  0  0  0  0  0  0  0  0  0  0
    7.7228   12.9394   23.6307 C   0  0  1  0  0  0  0  0  0  0  0  0
    9.0001   13.5538   23.8417 N   0  0  0  0  0  0  0  0  0  0  0  0
    9.4488   14.6177   24.8833 C   0  0  0  0  0  0  0  0  0  0  0  0
    8.8651   15.0971   25.7760 O   0  0  0  0  0  0  0  0  0  0  0  0
   10.8557   15.0469   24.5024 C   0  0  0  0  0  0  0  0  0  0  0  0
   10.9270   15.3651   23.0473 C   0  0  0  0  0  0  0  0  0  0  0  0
    9.9527   16.0434   22.2941 C   0  0  0  0  0  0  0  0  0  0  0  0
   10.2353   15.7370   20.9993 C   0  0  0  0  0  0  0  0  0  0  0  0
    9.5109   15.9244   19.8783 N   0  0  0  0  0  0  0  0  0  0  0  0
   10.0205   15.4560   18.7896 C   0  0  0  0  0  0  0  0  0  0  0  0
   11.3349   14.8171   18.6535 C   0  0  0  0  0  0  0  0  0  0  0  0
   11.9850   14.6420   19.8042 C   0  0  0  0  0  0  0  0  0  0  0  0
   11.4404   15.0592   21.0018 N   0  0  0  0  0  0  0  0  0  0  0  0
   11.8589   14.7985   22.2735 N   0  0  0  0  0  0  0  0  0  0  0  0
    7.2243   12.3522   24.9643 C   0  0  0  0  0  0  0  0  0  0  0  0
    7.4046   10.8402   24.9026 C   0  0  0  0  0  0  0  0  0  0  0  0
    6.6352   10.0499   25.9413 C   0  0  0  0  0  0  0  0  0  0  0  0
    5.3156   10.5657   26.2814 N   0  0  0  0  0  0  0  0  0  0  0  0
    4.5870    9.7181   27.2751 C   0  0  0  0  0  0  0  0  0  0  0  0
    5.0435    9.6777   28.7303 C   0  0  0  0  0  0  0  0  0  0  0  0
    6.3828    9.6349   28.8412 F   0  0  0  0  0  0  0  0  0  0  0  0
    4.5522    8.6031   29.3796 F   0  0  0  0  0  0  0  0  0  0  0  0
    4.6266   10.7814   29.3968 F   0  0  0  0  0  0  0  0  0  0  0  0
    5.3801   11.9815   26.6448 C   0  0  0  0  0  0  0  0  0  0  0  0
    5.8319   12.7817   25.4205 C   0  0  0  0  0  0  0  0  0  0  0  0
  2  1  1  1
  2  3  1  0
  3  4  1  0
  4  5  2  0
  4  6  1  0
  6  7  1  0
  7  8  1  0
  8  9  2  0
  9 10  1  0
 10 11  2  0
 11 12  1  0
 12 13  2  0
 13 14  1  0
 14 15  1  0
  2 16  1  0
 16 17  1  0
 17 18  1  0
 18 19  1  0
 19 20  1  0
 20 21  1  0
 21 22  1  0
 21 23  1  0
 21 24  1  0
 19 25  1  0
 25 26  1  0
 15  7  2  0
 26 16  1  0
 14  9  1  0
M  END
>  <energy_score>  (1977) 
-32.970289

>  <inchikey>  (1977) 
NCLYFUHOMVQGOO-UHFFFAOYSA-N

>  <smiles>  (1977) 
CC(NC(=O)Cc1cc2ncccn2n1)C1CCN(CC(F)(F)F)CC1

>  <ref_pdb>  (1977) 
A2513a

>  <alias>  (1977) 
NCLYFUHOMVQGOO-UHFFFAOYSA-N-P487-P28-P487-601512

>  <HIPPO Pose ID>  (1977) 
520397

>  <name>  (1977) 
NCLYFUHOMVQGOO-UHFFFAOYSA-N-P487-P28-P487-601512

>  <HIPPO Compound ID>  (1977) 
307200

>  <ref_mols>  (1977) 
A0556a,A4846a

>  <distance_score>  (1977) 
1.451671

>  <inspiration_score>  (1977) 
None

$$$$
IVGDUZQZCUKPHK-UHFFFAOYSA-N-P487-P28-P487-601512
     RDKit          3D

 26 28  0  0  0  0  0  0  0  0999 V2000
    5.7570   14.7423   23.6203 C   0  0  0  0  0  0  0  0  0  0  0  0
    6.7073   13.5437   23.6488 C   0  0  1  0  0  0  0  0  0  0  0  0
    8.0926   13.9304   23.6008 N   0  0  0  0  0  0  0  0  0  0  0  0
    8.9380   14.7632   24.5922 C   0  0  0  0  0  0  0  0  0  0  0  0
    8.6630   15.2006   25.6408 O   0  0  0  0  0  0  0  0  0  0  0  0
   10.3121   15.0807   23.9988 C   0  0  0  0  0  0  0  0  0  0  0  0
   10.6570   14.6812   22.6099 C   0  0  0  0  0  0  0  0  0  0  0  0
   11.6346   13.7865   22.2246 C   0  0  0  0  0  0  0  0  0  0  0  0
   11.7748   13.9609   20.8419 C   0  0  0  0  0  0  0  0  0  0  0  0
   10.9014   14.8139   20.3583 N   0  0  0  0  0  0  0  0  0  0  0  0
   10.2005   15.2032   21.4242 N   0  0  0  0  0  0  0  0  0  0  0  0
    9.1228   16.0925   21.0669 C   0  0  0  0  0  0  0  0  0  0  0  0
    8.1550   16.7456   22.0175 C   0  0  0  0  0  0  0  0  0  0  0  0
    8.4855   18.1057   21.3516 C   0  0  0  0  0  0  0  0  0  0  0  0
    9.7381   17.4740   20.8164 C   0  0  0  0  0  0  0  0  0  0  0  0
    6.3382   12.5682   24.7667 C   0  0  0  0  0  0  0  0  0  0  0  0
    7.2362   11.3326   24.8889 C   0  0  0  0  0  0  0  0  0  0  0  0
    6.6008   10.2970   25.8406 C   0  0  0  0  0  0  0  0  0  0  0  0
    5.3789   10.7919   26.4872 N   0  0  0  0  0  0  0  0  0  0  0  0
    4.6536    9.8020   27.3319 C   0  0  0  0  0  0  0  0  0  0  0  0
    5.1013    9.5678   28.7707 C   0  0  0  0  0  0  0  0  0  0  0  0
    6.4430    9.5724   28.8677 F   0  0  0  0  0  0  0  0  0  0  0  0
    4.6640    8.3878   29.2503 F   0  0  0  0  0  0  0  0  0  0  0  0
    4.6413   10.5407   29.5905 F   0  0  0  0  0  0  0  0  0  0  0  0
    5.6026   12.0843   27.1447 C   0  0  0  0  0  0  0  0  0  0  0  0
    6.1370   13.1505   26.1694 C   0  0  0  0  0  0  0  0  0  0  0  0
  2  1  1  1
  2  3  1  0
  3  4  1  0
  4  5  2  0
  4  6  1  0
  6  7  1  0
  7  8  2  0
  8  9  1  0
  9 10  2  0
 10 11  1  0
 11 12  1  0
 12 13  1  0
 13 14  1  0
 14 15  1  0
  2 16  1  0
 16 17  1  0
 17 18  1  0
 18 19  1  0
 19 20  1  0
 20 21  1  0
 21 22  1  0
 21 23  1  0
 21 24  1  0
 19 25  1  0
 25 26  1  0
 11  7  1  0
 15 12  1  0
 26 16  1  0
M  END
>  <energy_score>  (1978) 
-9.833213

>  <inchikey>  (1978) 
IVGDUZQZCUKPHK-UHFFFAOYSA-N

>  <smiles>  (1978) 
CC(NC(=O)Cc1ccnn1C1CCC1)C1CCN(CC(F)(F)F)CC1

>  <ref_pdb>  (1978) 
A2513a

>  <alias>  (1978) 
IVGDUZQZCUKPHK-UHFFFAOYSA-N-P487-P28-P487-601512

>  <HIPPO Pose ID>  (1978) 
520405

>  <name>  (1978) 
IVGDUZQZCUKPHK-UHFFFAOYSA-N-P487-P28-P487-601512

>  <HIPPO Compound ID>  (1978) 
307204

>  <ref_mols>  (1978) 
A0556a,A4846a

>  <distance_score>  (1978) 
1.376916

>  <inspiration_score>  (1978) 
None

$$$$
OESLURPRBATEFH-UHFFFAOYSA-N-P487-P28-P487-601512
     RDKit          3D

 27 29  0  0  0  0  0  0  0  0999 V2000
    7.4270   16.6537   22.2331 C   0  0  0  0  0  0  0  0  0  0  0  0
    8.6655   15.8054   22.4520 C   0  0  1  0  0  0  0  0  0  0  0  0
    8.2743   14.7534   23.3196 N   0  0  0  0  0  0  0  0  0  0  0  0
    7.2863   13.5905   23.1018 C   0  0  0  0  0  0  0  0  0  0  0  0
    6.6955   13.2680   22.1476 O   0  0  0  0  0  0  0  0  0  0  0  0
    7.0622   12.8726   24.4930 C   0  0  0  0  0  0  0  0  0  0  0  0
    7.6924   11.4959   24.3401 C   0  0  0  0  0  0  0  0  0  0  0  0
    8.7850   11.1537   23.4914 C   0  0  0  0  0  0  0  0  0  0  0  0
    9.0175    9.8246   23.6924 C   0  0  0  0  0  0  0  0  0  0  0  0
    8.1060    9.4323   24.6134 N   0  0  0  0  0  0  0  0  0  0  0  0
    7.3085   10.4264   25.0569 N   0  0  0  0  0  0  0  0  0  0  0  0
    7.5774   13.5796   25.7558 C   0  0  0  0  0  0  0  0  0  0  0  0
    6.9991   12.9852   27.0356 C   0  0  0  0  0  0  0  0  0  0  0  0
    5.6046   13.1690   27.0758 O   0  0  0  0  0  0  0  0  0  0  0  0
    4.9982   12.4865   26.0000 C   0  0  0  0  0  0  0  0  0  0  0  0
    5.5357   12.9656   24.6652 C   0  0  0  0  0  0  0  0  0  0  0  0
    9.4385   15.6035   21.1303 C   0  0  0  0  0  0  0  0  0  0  0  0
   10.5942   16.5770   21.1643 C   0  0  0  0  0  0  0  0  0  0  0  0
   11.6505   16.0968   22.1663 C   0  0  0  0  0  0  0  0  0  0  0  0
   11.9652   14.6817   22.1176 N   0  0  0  0  0  0  0  0  0  0  0  0
   11.3944   13.7919   23.1171 C   0  0  0  0  0  0  0  0  0  0  0  0
   11.5008   14.0128   24.6002 C   0  0  0  0  0  0  0  0  0  0  0  0
   11.1537   15.2401   25.0265 F   0  0  0  0  0  0  0  0  0  0  0  0
   12.7151   13.6907   25.0847 F   0  0  0  0  0  0  0  0  0  0  0  0
   10.6031   13.1648   25.1628 F   0  0  0  0  0  0  0  0  0  0  0  0
   11.5794   14.1968   20.7983 C   0  0  0  0  0  0  0  0  0  0  0  0
   10.0509   14.2980   20.6338 C   0  0  0  0  0  0  0  0  0  0  0  0
  2  1  1  6
  2  3  1  0
  3  4  1  0
  4  5  2  0
  4  6  1  0
  6  7  1  0
  7  8  1  0
  8  9  2  0
  9 10  1  0
 10 11  1  0
  6 12  1  0
 12 13  1  0
 13 14  1  0
 14 15  1  0
 15 16  1  0
  2 17  1  0
 17 18  1  0
 18 19  1  0
 19 20  1  0
 20 21  1  0
 21 22  1  0
 22 23  1  0
 22 24  1  0
 22 25  1  0
 20 26  1  0
 26 27  1  0
 16  6  1  0
 27 17  1  0
 11  7  2  0
M  END
>  <energy_score>  (1979) 
-2.846768

>  <inchikey>  (1979) 
OESLURPRBATEFH-UHFFFAOYSA-N

>  <smiles>  (1979) 
CC(NC(=O)C1(c2cc[nH]n2)CCOCC1)C1CCN(CC(F)(F)F)CC1

>  <ref_pdb>  (1979) 
A2513a

>  <alias>  (1979) 
OESLURPRBATEFH-UHFFFAOYSA-N-P487-P28-P487-601512

>  <HIPPO Pose ID>  (1979) 
520423

>  <name>  (1979) 
OESLURPRBATEFH-UHFFFAOYSA-N-P487-P28-P487-601512

>  <HIPPO Compound ID>  (1979) 
307213

>  <ref_mols>  (1979) 
A0556a,A4846a

>  <distance_score>  (1979) 
1.82895

>  <inspiration_score>  (1979) 
None

$$$$
IOYSKSMWFZRZEZ-UHFFFAOYSA-N-P437-P122-P437-601512
     RDKit          3D

 16 17  0  0  0  0  0  0  0  0999 V2000
    7.9602   10.5684   24.3615 C   0  0  0  0  0  0  0  0  0  0  0  0
    8.5348   11.3487   25.5343 C   0  0  1  0  0  0  0  0  0  0  0  0
    9.9561   11.2527   25.4968 O   0  0  0  0  0  0  0  0  0  0  0  0
    8.0153   12.8122   25.5657 C   0  0  0  0  0  0  0  0  0  0  0  0
    7.3281   13.2355   26.4249 O   0  0  0  0  0  0  0  0  0  0  0  0
    8.5369   13.4790   24.3117 N   0  0  0  0  0  0  0  0  0  0  0  0
    9.9284   14.1785   24.5657 C   0  0  0  0  0  0  0  0  0  0  0  0
    9.6552   14.7910   23.2491 C   0  0  0  0  0  0  0  0  0  0  0  0
   10.2919   14.9951   22.1019 C   0  0  0  0  0  0  0  0  0  0  0  0
    9.7747   15.4793   20.7980 C   0  0  0  0  0  0  0  0  0  0  0  0
   10.9039   15.0640   19.8988 C   0  0  0  0  0  0  0  0  0  0  0  0
   10.8561   14.9982   18.6834 O   0  0  0  0  0  0  0  0  0  0  0  0
   11.9863   14.7428   20.6528 N   0  0  0  0  0  0  0  0  0  0  0  0
   11.6315   14.4180   21.9213 C   0  0  0  0  0  0  0  0  0  0  0  0
   12.1889   13.6843   22.7216 O   0  0  0  0  0  0  0  0  0  0  0  0
    8.2519   14.8657   23.7248 C   0  0  0  0  0  0  0  0  0  0  0  0
  2  1  1  6
  2  3  1  0
  2  4  1  0
  4  5  2  0
  4  6  1  0
  6  7  1  0
  7  8  1  0
  8  9  2  3
  9 10  1  0
 10 11  1  0
 11 12  2  0
 11 13  1  0
 13 14  1  0
 14 15  2  0
  8 16  1  0
 16  6  1  0
 14  9  1  0
M  END
>  <energy_score>  (1980) 
-4.845956

>  <inchikey>  (1980) 
IOYSKSMWFZRZEZ-UHFFFAOYSA-N

>  <smiles>  (1980) 
CC(O)C(=O)N1CC(=C2CC(=O)NC2=O)C1

>  <ref_pdb>  (1980) 
A2513a

>  <alias>  (1980) 
IOYSKSMWFZRZEZ-UHFFFAOYSA-N-P437-P122-P437-601512

>  <HIPPO Pose ID>  (1980) 
521635

>  <name>  (1980) 
IOYSKSMWFZRZEZ-UHFFFAOYSA-N-P437-P122-P437-601512

>  <HIPPO Compound ID>  (1980) 
313563

>  <ref_mols>  (1980) 
A1775a,A4701a

>  <distance_score>  (1980) 
1.970804

>  <inspiration_score>  (1980) 
None

$$$$
QWDUEDSSKYHFHU-UHFFFAOYSA-N-P437-P122-P437-601512
     RDKit          3D

 16 17  0  0  0  0  0  0  0  0999 V2000
   12.3725   13.3835   25.3804 C   0  0  0  0  0  0  0  0  0  0  0  0
   11.4369   14.0115   24.6657 C   0  0  0  0  0  0  0  0  0  0  0  0
   11.5688   14.9587   23.5627 C   0  0  0  0  0  0  0  0  0  0  0  0
   10.3615   14.4130   22.7835 C   0  0  1  0  0  0  0  0  0  0  0  0
   10.9076   14.3191   21.3475 C   0  0  0  0  0  0  0  0  0  0  0  0
   11.9222   13.7004   21.0490 O   0  0  0  0  0  0  0  0  0  0  0  0
   10.1798   15.0830   20.4861 O   0  0  0  0  0  0  0  0  0  0  0  0
   10.7288   15.1458   19.1626 C   0  0  0  0  0  0  0  0  0  0  0  0
    9.8853   12.9929   23.2420 N   0  0  0  0  0  0  0  0  0  0  0  0
    8.5633   12.3208   23.1060 C   0  0  0  0  0  0  0  0  0  0  0  0
    7.5447   12.7272   22.6940 O   0  0  0  0  0  0  0  0  0  0  0  0
    8.6506   10.8754   23.4849 C   0  0  1  0  0  0  0  0  0  0  0  0
    9.3700   10.2761   24.6590 C   0  0  0  0  0  0  0  0  0  0  0  0
    7.8667   10.3081   24.6406 C   0  0  1  0  0  0  0  0  0  0  0  0
    7.0299   11.3967   25.9597 Br  0  0  0  0  0  0  0  0  0  0  0  0
   10.0186   13.6538   24.5627 C   0  0  0  0  0  0  0  0  0  0  0  0
  1  2  2  0
  2  3  1  0
  3  4  1  0
  4  5  1  6
  5  6  2  0
  5  7  1  0
  7  8  1  0
  4  9  1  0
  9 10  1  0
 10 11  2  0
 12 10  1  1
 12 13  1  0
 13 14  1  0
 14 15  1  1
  9 16  1  0
 16  2  1  0
 14 12  1  0
M  END
>  <energy_score>  (1981) 
-2.96808

>  <inchikey>  (1981) 
QWDUEDSSKYHFHU-UHFFFAOYSA-N

>  <smiles>  (1981) 
C=C1CC(C(=O)OC)N(C(=O)C2CC2Br)C1

>  <ref_pdb>  (1981) 
A2513a

>  <alias>  (1981) 
QWDUEDSSKYHFHU-UHFFFAOYSA-N-P437-P122-P437-601512

>  <HIPPO Pose ID>  (1981) 
521695

>  <name>  (1981) 
QWDUEDSSKYHFHU-UHFFFAOYSA-N-P437-P122-P437-601512

>  <HIPPO Compound ID>  (1981) 
313593

>  <ref_mols>  (1981) 
A1775a,A4701a

>  <distance_score>  (1981) 
1.651174

>  <inspiration_score>  (1981) 
None

$$$$
YIHGDMWNOSKHSZ-UHFFFAOYSA-N-P437-P122-P437-601512
     RDKit          3D

 17 18  0  0  0  0  0  0  0  0999 V2000
    9.0711    9.2342   24.1046 C   0  0  0  0  0  0  0  0  0  0  0  0
    8.6305   10.3929   24.9933 C   0  0  2  0  0  0  0  0  0  0  0  0
    6.8441   10.2777   25.2979 S   0  0  0  0  0  0  0  0  0  0  0  0
    8.9873   11.6925   24.3261 C   0  0  0  0  0  0  0  0  0  0  0  0
    8.7778   12.9590   25.1484 C   0  0  0  0  0  0  0  0  0  0  0  0
    8.2953   13.0843   26.2093 O   0  0  0  0  0  0  0  0  0  0  0  0
    9.2694   13.9914   24.1780 N   0  0  0  0  0  0  0  0  0  0  0  0
   10.7942   14.3300   24.4166 C   0  0  0  0  0  0  0  0  0  0  0  0
   10.4364   15.3312   23.3832 C   0  0  0  0  0  0  0  0  0  0  0  0
   10.7329   15.4970   22.0920 C   0  0  0  0  0  0  0  0  0  0  0  0
    9.9143   16.1197   21.0200 C   0  0  0  0  0  0  0  0  0  0  0  0
   10.4916   15.4447   19.8017 C   0  0  0  0  0  0  0  0  0  0  0  0
   10.0313   15.5088   18.6749 O   0  0  0  0  0  0  0  0  0  0  0  0
   11.5854   14.7237   20.1459 N   0  0  0  0  0  0  0  0  0  0  0  0
   11.6307   14.4967   21.4775 C   0  0  0  0  0  0  0  0  0  0  0  0
   12.1373   13.5563   22.0648 O   0  0  0  0  0  0  0  0  0  0  0  0
    9.2021   15.5075   24.2254 C   0  0  0  0  0  0  0  0  0  0  0  0
  2  1  1  6
  2  3  1  0
  2  4  1  0
  4  5  1  0
  5  6  2  0
  5  7  1  0
  7  8  1  0
  8  9  1  0
  9 10  2  3
 10 11  1  0
 11 12  1  0
 12 13  2  0
 12 14  1  0
 14 15  1  0
 15 16  2  0
  9 17  1  0
 17  7  1  0
 15 10  1  0
M  END
>  <energy_score>  (1982) 
-7.56611

>  <inchikey>  (1982) 
YIHGDMWNOSKHSZ-UHFFFAOYSA-N

>  <smiles>  (1982) 
CC(S)CC(=O)N1CC(=C2CC(=O)NC2=O)C1

>  <ref_pdb>  (1982) 
A2513a

>  <alias>  (1982) 
YIHGDMWNOSKHSZ-UHFFFAOYSA-N-P437-P122-P437-601512

>  <HIPPO Pose ID>  (1982) 
521727

>  <name>  (1982) 
YIHGDMWNOSKHSZ-UHFFFAOYSA-N-P437-P122-P437-601512

>  <HIPPO Compound ID>  (1982) 
313609

>  <ref_mols>  (1982) 
A1775a,A4701a

>  <distance_score>  (1982) 
1.829196

>  <inspiration_score>  (1982) 
None

$$$$
TWHKTLLEDDYTGG-UHFFFAOYSA-N-P437-P122-P437-601512
     RDKit          3D

 17 18  0  0  0  0  0  0  0  0999 V2000
    8.9350   10.6379   23.3551 C   0  0  0  0  0  0  0  0  0  0  0  0
    8.5679   10.4442   24.8106 C   0  0  2  0  0  0  0  0  0  0  0  0
    6.8255   10.1504   24.9768 Cl  0  0  0  0  0  0  0  0  0  0  0  0
    8.9907   11.5516   25.7588 C   0  0  0  0  0  0  0  0  0  0  0  0
    8.2820   12.9000   25.6569 C   0  0  0  0  0  0  0  0  0  0  0  0
    7.5983   13.3322   26.5108 O   0  0  0  0  0  0  0  0  0  0  0  0
    8.7262   13.5171   24.3619 N   0  0  0  0  0  0  0  0  0  0  0  0
   10.0761   14.3006   24.5322 C   0  0  0  0  0  0  0  0  0  0  0  0
    9.7381   14.8318   23.1988 C   0  0  0  0  0  0  0  0  0  0  0  0
   10.3442   15.0169   22.0337 C   0  0  0  0  0  0  0  0  0  0  0  0
    9.8005   15.4414   20.7220 C   0  0  0  0  0  0  0  0  0  0  0  0
   10.9359   15.0296   19.8280 C   0  0  0  0  0  0  0  0  0  0  0  0
   10.8788   14.9116   18.6169 O   0  0  0  0  0  0  0  0  0  0  0  0
   12.0350   14.7713   20.5818 N   0  0  0  0  0  0  0  0  0  0  0  0
   11.6930   14.4635   21.8565 C   0  0  0  0  0  0  0  0  0  0  0  0
   12.2594   13.7462   22.6649 O   0  0  0  0  0  0  0  0  0  0  0  0
    8.3465   14.8542   23.7060 C   0  0  0  0  0  0  0  0  0  0  0  0
  2  1  1  6
  2  3  1  0
  2  4  1  0
  4  5  1  0
  5  6  2  0
  5  7  1  0
  7  8  1  0
  8  9  1  0
  9 10  2  3
 10 11  1  0
 11 12  1  0
 12 13  2  0
 12 14  1  0
 14 15  1  0
 15 16  2  0
  9 17  1  0
 17  7  1  0
 15 10  1  0
M  END
>  <energy_score>  (1983) 
-1.602898

>  <inchikey>  (1983) 
TWHKTLLEDDYTGG-UHFFFAOYSA-N

>  <smiles>  (1983) 
CC(Cl)CC(=O)N1CC(=C2CC(=O)NC2=O)C1

>  <ref_pdb>  (1983) 
A2513a

>  <alias>  (1983) 
TWHKTLLEDDYTGG-UHFFFAOYSA-N-P437-P122-P437-601512

>  <HIPPO Pose ID>  (1983) 
521731

>  <name>  (1983) 
TWHKTLLEDDYTGG-UHFFFAOYSA-N-P437-P122-P437-601512

>  <HIPPO Compound ID>  (1983) 
313611

>  <ref_mols>  (1983) 
A1775a,A4701a

>  <distance_score>  (1983) 
1.878086

>  <inspiration_score>  (1983) 
None

$$$$
XAKVKVDJCPBJFZ-UHFFFAOYSA-N-P437-P122-P437-601512
     RDKit          3D

 17 19  0  0  0  0  0  0  0  0999 V2000
    9.4275   10.1830   23.4429 C   0  0  0  0  0  0  0  0  0  0  0  0
    8.4922   10.5436   24.2908 C   0  0  0  0  0  0  0  0  0  0  0  0
    7.9184   10.2585   25.5368 C   0  0  0  0  0  0  0  0  0  0  0  0
    7.3696   11.3576   24.5705 C   0  0  1  0  0  0  0  0  0  0  0  0
    7.4635   12.7700   25.0239 C   0  0  0  0  0  0  0  0  0  0  0  0
    6.9387   13.0878   26.0259 O   0  0  0  0  0  0  0  0  0  0  0  0
    8.1768   13.5920   24.0056 N   0  0  0  0  0  0  0  0  0  0  0  0
    9.7280   13.7118   24.3365 C   0  0  0  0  0  0  0  0  0  0  0  0
    9.6771   14.7680   23.3056 C   0  0  0  0  0  0  0  0  0  0  0  0
   10.3649   15.0757   22.2118 C   0  0  0  0  0  0  0  0  0  0  0  0
    9.9322   15.8595   21.0299 C   0  0  0  0  0  0  0  0  0  0  0  0
   10.7838   15.2012   19.9777 C   0  0  0  0  0  0  0  0  0  0  0  0
   10.5777   15.2212   18.7768 O   0  0  0  0  0  0  0  0  0  0  0  0
   11.8120   14.5490   20.5782 N   0  0  0  0  0  0  0  0  0  0  0  0
   11.5463   14.2706   21.8785 C   0  0  0  0  0  0  0  0  0  0  0  0
   12.0769   13.4694   22.6285 O   0  0  0  0  0  0  0  0  0  0  0  0
    8.3588   15.0993   23.8949 C   0  0  0  0  0  0  0  0  0  0  0  0
  1  2  2  0
  2  3  1  0
  3  4  1  0
  4  5  1  1
  5  6  2  0
  5  7  1  0
  7  8  1  0
  8  9  1  0
  9 10  2  3
 10 11  1  0
 11 12  1  0
 12 13  2  0
 12 14  1  0
 14 15  1  0
 15 16  2  0
  9 17  1  0
  4  2  1  0
 17  7  1  0
 15 10  1  0
M  END
>  <energy_score>  (1984) 
-9.807564

>  <inchikey>  (1984) 
XAKVKVDJCPBJFZ-UHFFFAOYSA-N

>  <smiles>  (1984) 
C=C1CC1C(=O)N1CC(=C2CC(=O)NC2=O)C1

>  <ref_pdb>  (1984) 
A2513a

>  <alias>  (1984) 
XAKVKVDJCPBJFZ-UHFFFAOYSA-N-P437-P122-P437-601512

>  <HIPPO Pose ID>  (1984) 
521735

>  <name>  (1984) 
XAKVKVDJCPBJFZ-UHFFFAOYSA-N-P437-P122-P437-601512

>  <HIPPO Compound ID>  (1984) 
313613

>  <ref_mols>  (1984) 
A1775a,A4701a

>  <distance_score>  (1984) 
1.96399

>  <inspiration_score>  (1984) 
None

$$$$
HZNCJSQVFAVKMJ-UHFFFAOYSA-N-P437-P122-P437-601512
     RDKit          3D

 17 18  0  0  0  0  0  0  0  0999 V2000
   10.8696   15.0504   18.7227 O   0  0  0  0  0  0  0  0  0  0  0  0
   10.8918   15.0568   19.9412 C   0  0  0  0  0  0  0  0  0  0  0  0
    9.7333   15.3867   20.8398 C   0  0  0  0  0  0  0  0  0  0  0  0
   10.2456   14.8480   22.1234 C   0  0  0  0  0  0  0  0  0  0  0  0
    9.6008   14.5464   23.2438 C   0  0  0  0  0  0  0  0  0  0  0  0
    9.8939   13.8760   24.5233 C   0  0  0  0  0  0  0  0  0  0  0  0
    8.4978   13.1794   24.2927 N   0  0  0  0  0  0  0  0  0  0  0  0
    8.0049   12.5059   25.5450 C   0  0  0  0  0  0  0  0  0  0  0  0
    7.3366   12.9216   26.4213 O   0  0  0  0  0  0  0  0  0  0  0  0
    8.6214   11.1206   25.5876 C   0  0  0  0  0  0  0  0  0  0  0  0
    8.2342   10.2554   24.4205 C   0  0  0  0  0  0  0  0  0  0  0  0
    8.8170   10.6490   23.2675 F   0  0  0  0  0  0  0  0  0  0  0  0
    6.8942   10.3019   24.2434 F   0  0  0  0  0  0  0  0  0  0  0  0
    8.2012   14.5717   23.7225 C   0  0  0  0  0  0  0  0  0  0  0  0
   11.6254   14.3759   21.9546 C   0  0  0  0  0  0  0  0  0  0  0  0
   12.2341   13.6942   22.7627 O   0  0  0  0  0  0  0  0  0  0  0  0
   11.9775   14.7537   20.6996 N   0  0  0  0  0  0  0  0  0  0  0  0
  1  2  2  0
  2  3  1  0
  3  4  1  0
  4  5  2  3
  5  6  1  0
  6  7  1  0
  7  8  1  0
  8  9  2  0
  8 10  1  0
 10 11  1  0
 11 12  1  0
 11 13  1  0
  7 14  1  0
  4 15  1  0
 15 16  2  0
 15 17  1  0
 17  2  1  0
 14  5  1  0
M  END
>  <energy_score>  (1985) 
-9.379084

>  <inchikey>  (1985) 
HZNCJSQVFAVKMJ-UHFFFAOYSA-N

>  <smiles>  (1985) 
O=C1CC(=C2CN(C(=O)CC(F)F)C2)C(=O)N1

>  <ref_pdb>  (1985) 
A2513a

>  <alias>  (1985) 
HZNCJSQVFAVKMJ-UHFFFAOYSA-N-P437-P122-P437-601512

>  <HIPPO Pose ID>  (1985) 
521757

>  <name>  (1985) 
HZNCJSQVFAVKMJ-UHFFFAOYSA-N-P437-P122-P437-601512

>  <HIPPO Compound ID>  (1985) 
313624

>  <ref_mols>  (1985) 
A1775a,A4701a

>  <distance_score>  (1985) 
1.991675

>  <inspiration_score>  (1985) 
None

$$$$
AUULVAKKBMJVDP-UHFFFAOYSA-N-P437-P122-P437-601512
     RDKit          3D

 17 18  0  0  0  0  0  0  0  0999 V2000
    6.6696   10.9872   26.7795 N   0  0  0  0  0  0  0  0  0  0  0  0
    7.0006   10.1328   25.6451 O   0  0  0  0  0  0  0  0  0  0  0  0
    8.1842   10.6242   25.0126 C   0  0  0  0  0  0  0  0  0  0  0  0
    7.7557   11.4784   23.8473 C   0  0  0  0  0  0  0  0  0  0  0  0
    7.3769   12.8883   24.2855 C   0  0  0  0  0  0  0  0  0  0  0  0
    6.5807   13.1672   25.1030 O   0  0  0  0  0  0  0  0  0  0  0  0
    8.1972   13.7674   23.3910 N   0  0  0  0  0  0  0  0  0  0  0  0
    9.5849   14.1536   24.0672 C   0  0  0  0  0  0  0  0  0  0  0  0
    9.6231   15.0536   22.8977 C   0  0  0  0  0  0  0  0  0  0  0  0
   10.4113   15.2260   21.8442 C   0  0  0  0  0  0  0  0  0  0  0  0
   10.0134   15.7172   20.5007 C   0  0  0  0  0  0  0  0  0  0  0  0
   11.0821   15.0731   19.6725 C   0  0  0  0  0  0  0  0  0  0  0  0
   11.0487   14.9070   18.4672 O   0  0  0  0  0  0  0  0  0  0  0  0
   12.0848   14.6493   20.4786 N   0  0  0  0  0  0  0  0  0  0  0  0
   11.6551   14.4473   21.7486 C   0  0  0  0  0  0  0  0  0  0  0  0
   12.0899   13.6924   22.6035 O   0  0  0  0  0  0  0  0  0  0  0  0
    8.1800   15.2756   23.1943 C   0  0  0  0  0  0  0  0  0  0  0  0
  1  2  1  0
  2  3  1  0
  3  4  1  0
  4  5  1  0
  5  6  2  0
  5  7  1  0
  7  8  1  0
  8  9  1  0
  9 10  2  3
 10 11  1  0
 11 12  1  0
 12 13  2  0
 12 14  1  0
 14 15  1  0
 15 16  2  0
  9 17  1  0
 17  7  1  0
 15 10  1  0
M  END
>  <energy_score>  (1986) 
-13.916291

>  <inchikey>  (1986) 
AUULVAKKBMJVDP-UHFFFAOYSA-N

>  <smiles>  (1986) 
NOCCC(=O)N1CC(=C2CC(=O)NC2=O)C1

>  <ref_pdb>  (1986) 
A2513a

>  <alias>  (1986) 
AUULVAKKBMJVDP-UHFFFAOYSA-N-P437-P122-P437-601512

>  <HIPPO Pose ID>  (1986) 
521759

>  <name>  (1986) 
AUULVAKKBMJVDP-UHFFFAOYSA-N-P437-P122-P437-601512

>  <HIPPO Compound ID>  (1986) 
313625

>  <ref_mols>  (1986) 
A1775a,A4701a

>  <distance_score>  (1986) 
1.760789

>  <inspiration_score>  (1986) 
None

$$$$
MQRSNEJKUGEBOQ-UHFFFAOYSA-N-P437-P122-P437-601512
     RDKit          3D

 17 18  0  0  0  0  0  0  0  0999 V2000
    9.4239   11.1868   23.2291 C   0  0  0  0  0  0  0  0  0  0  0  0
    8.5540   11.3329   24.2490 C   0  0  0  0  0  0  0  0  0  0  0  0
    7.8860   10.1703   24.8921 C   0  0  0  0  0  0  0  0  0  0  0  0
    8.2886    8.9603   24.2658 O   0  0  0  0  0  0  0  0  0  0  0  0
    8.1549   12.6679   24.8476 C   0  0  0  0  0  0  0  0  0  0  0  0
    7.4440   12.7749   25.7761 O   0  0  0  0  0  0  0  0  0  0  0  0
    8.7572   13.7101   23.9684 N   0  0  0  0  0  0  0  0  0  0  0  0
   10.1647   14.1873   24.5147 C   0  0  0  0  0  0  0  0  0  0  0  0
    9.9631   15.1480   23.4007 C   0  0  0  0  0  0  0  0  0  0  0  0
   10.5360   15.3744   22.2167 C   0  0  0  0  0  0  0  0  0  0  0  0
    9.9123   15.9328   20.9873 C   0  0  0  0  0  0  0  0  0  0  0  0
   10.7428   15.2549   19.9311 C   0  0  0  0  0  0  0  0  0  0  0  0
   10.4642   15.1857   18.7467 O   0  0  0  0  0  0  0  0  0  0  0  0
   11.8415   14.7023   20.5027 N   0  0  0  0  0  0  0  0  0  0  0  0
   11.6725   14.5113   21.8335 C   0  0  0  0  0  0  0  0  0  0  0  0
   12.2024   13.6818   22.5547 O   0  0  0  0  0  0  0  0  0  0  0  0
    8.5599   15.2207   23.9364 C   0  0  0  0  0  0  0  0  0  0  0  0
  1  2  2  0
  2  3  1  0
  3  4  1  0
  2  5  1  0
  5  6  2  0
  5  7  1  0
  7  8  1  0
  8  9  1  0
  9 10  2  3
 10 11  1  0
 11 12  1  0
 12 13  2  0
 12 14  1  0
 14 15  1  0
 15 16  2  0
  9 17  1  0
 17  7  1  0
 15 10  1  0
M  END
>  <energy_score>  (1987) 
-3.734131

>  <inchikey>  (1987) 
MQRSNEJKUGEBOQ-UHFFFAOYSA-N

>  <smiles>  (1987) 
C=C(CO)C(=O)N1CC(=C2CC(=O)NC2=O)C1

>  <ref_pdb>  (1987) 
A2513a

>  <alias>  (1987) 
MQRSNEJKUGEBOQ-UHFFFAOYSA-N-P437-P122-P437-601512

>  <HIPPO Pose ID>  (1987) 
521795

>  <name>  (1987) 
MQRSNEJKUGEBOQ-UHFFFAOYSA-N-P437-P122-P437-601512

>  <HIPPO Compound ID>  (1987) 
313643

>  <ref_mols>  (1987) 
A1775a,A4701a

>  <distance_score>  (1987) 
1.87475

>  <inspiration_score>  (1987) 
None

$$$$
LPNKNLFUSXKKMV-UHFFFAOYSA-N-P77-P77-P183-601513
     RDKit          3D

 26 28  0  0  0  0  0  0  0  0999 V2000
    9.3038   14.0507   20.9355 O   0  0  0  0  0  0  0  0  0  0  0  0
   10.4404   14.3060   20.9356 C   0  0  0  0  0  0  0  0  0  0  0  0
   11.5662   13.8411   21.8748 N   0  0  0  0  0  0  0  0  0  0  0  0
   11.5169   13.0576   23.0417 C   0  0  0  0  0  0  0  0  0  0  0  0
   10.3460   12.0394   22.9033 C   0  0  0  0  0  0  0  0  0  0  0  0
   10.0232   11.3474   24.1173 N   0  0  0  0  0  0  0  0  0  0  0  0
    8.8041   10.5268   24.1340 C   0  0  0  0  0  0  0  0  0  0  0  0
    7.6294   11.1554   24.9335 C   0  0  0  0  0  0  0  0  0  0  0  0
    7.5417   12.6572   24.6529 C   0  0  0  0  0  0  0  0  0  0  0  0
    6.4366   13.2489   25.4116 N   0  0  0  0  0  0  0  0  0  0  0  0
    5.9292   14.7737   24.8925 S   0  0  0  0  0  0  0  0  0  0  0  0
    4.6213   14.9673   25.4799 O   0  0  0  0  0  0  0  0  0  0  0  0
    7.0196   15.6786   25.1819 O   0  0  0  0  0  0  0  0  0  0  0  0
    5.7109   14.6174   23.1129 C   0  0  0  0  0  0  0  0  0  0  0  0
    6.8540   15.0864   22.2547 C   0  0  0  0  0  0  0  0  0  0  0  0
    5.6302   15.9293   22.4319 C   0  0  0  0  0  0  0  0  0  0  0  0
    8.8325   13.3717   24.9987 C   0  0  0  0  0  0  0  0  0  0  0  0
    9.9174   12.3428   25.1318 C   0  0  0  0  0  0  0  0  0  0  0  0
   11.0554   15.1942   19.8803 C   0  0  1  0  0  0  0  0  0  0  0  0
   11.1164   14.5898   18.6598 F   0  0  0  0  0  0  0  0  0  0  0  0
   10.2478   16.3873   19.9141 N   0  0  0  0  0  0  0  0  0  0  0  0
    9.7275   17.0826   18.8804 C   0  0  0  0  0  0  0  0  0  0  0  0
    9.1066   18.1555   19.4655 C   0  0  0  0  0  0  0  0  0  0  0  0
    8.0302   19.4680   18.7013 Br  0  0  0  0  0  0  0  0  0  0  0  0
    9.2292   17.9886   20.8375 C   0  0  0  0  0  0  0  0  0  0  0  0
   10.0087   16.9502   21.1240 N   0  0  0  0  0  0  0  0  0  0  0  0
  1  2  2  0
  2  3  1  0
  3  4  1  0
  4  5  1  0
  5  6  1  0
  6  7  1  0
  7  8  1  0
  8  9  1  0
  9 10  1  0
 10 11  1  0
 11 12  2  0
 11 13  2  0
 11 14  1  0
 14 15  1  0
 15 16  1  0
  9 17  1  0
 17 18  1  0
  2 19  1  0
 19 20  1  6
 19 21  1  0
 21 22  1  0
 22 23  2  0
 23 24  1  0
 23 25  1  0
 25 26  2  0
 18  6  1  0
 26 21  1  0
 16 14  1  0
M  END
>  <energy_score>  (1988) 
-12.573728

>  <inchikey>  (1988) 
LPNKNLFUSXKKMV-UHFFFAOYSA-N

>  <smiles>  (1988) 
O=C(NCCN1CCC(NS(=O)(=O)C2CC2)CC1)C(F)n1cc(Br)cn1

>  <ref_pdb>  (1988) 
A1068a

>  <alias>  (1988) 
LPNKNLFUSXKKMV-UHFFFAOYSA-N-P77-P77-P183-601513

>  <HIPPO Pose ID>  (1988) 
523088

>  <name>  (1988) 
LPNKNLFUSXKKMV-UHFFFAOYSA-N-P77-P77-P183-601513

>  <HIPPO Compound ID>  (1988) 
289510

>  <ref_mols>  (1988) 
A0719a,A3436a

>  <distance_score>  (1988) 
1.640438

>  <inspiration_score>  (1988) 
None

$$$$
IXWFLSHHECQBJH-UHFFFAOYSA-N-P37-P37-P120-601513
     RDKit          3D

 22 24  0  0  0  0  0  0  0  0999 V2000
   10.4978    9.7727   22.1956 O   0  0  0  0  0  0  0  0  0  0  0  0
   10.0739   10.6653   22.9287 C   0  0  0  0  0  0  0  0  0  0  0  0
   10.5282   12.0928   22.8276 C   0  0  0  0  0  0  0  0  0  0  0  0
   10.3136   12.9872   24.0191 C   0  0  0  0  0  0  0  0  0  0  0  0
    8.8487   13.3343   24.2010 C   0  0  0  0  0  0  0  0  0  0  0  0
    8.0731   12.2596   24.8915 C   0  0  0  0  0  0  0  0  0  0  0  0
    7.0540   12.6653   25.7937 C   0  0  0  0  0  0  0  0  0  0  0  0
    6.2992   11.7231   26.4797 C   0  0  0  0  0  0  0  0  0  0  0  0
    5.2910   12.0542   27.3689 N   0  0  0  0  0  0  0  0  0  0  0  0
    4.3689   11.1593   28.2091 C   0  0  0  0  0  0  0  0  0  0  0  0
    4.3595   10.0039   28.3470 O   0  0  0  0  0  0  0  0  0  0  0  0
    3.2831   11.9290   28.8459 C   0  0  2  0  0  0  0  0  0  0  0  0
    3.3470   12.6616   30.1548 C   0  0  0  0  0  0  0  0  0  0  0  0
    2.7641   11.2705   30.1175 C   0  0  1  0  0  0  0  0  0  0  0  0
    1.3454   10.8740   30.1312 C   0  0  0  0  0  0  0  0  0  0  0  0
    0.9005   10.7761   31.3989 F   0  0  0  0  0  0  0  0  0  0  0  0
    1.1808    9.6744   29.5294 F   0  0  0  0  0  0  0  0  0  0  0  0
    0.5787   11.7697   29.4721 F   0  0  0  0  0  0  0  0  0  0  0  0
    6.5244   10.3834   26.2426 C   0  0  0  0  0  0  0  0  0  0  0  0
    7.4795    9.9937   25.3326 C   0  0  0  0  0  0  0  0  0  0  0  0
    8.2657   10.8988   24.6574 C   0  0  0  0  0  0  0  0  0  0  0  0
    9.1350   10.2628   23.7867 N   0  0  0  0  0  0  0  0  0  0  0  0
  1  2  2  0
  2  3  1  0
  3  4  1  0
  4  5  1  0
  5  6  1  0
  6  7  2  0
  7  8  1  0
  8  9  1  0
  9 10  1  0
 10 11  2  0
 12 10  1  1
 12 13  1  0
 13 14  1  0
 14 15  1  6
 15 16  1  0
 15 17  1  0
 15 18  1  0
  8 19  2  0
 19 20  1  0
 20 21  2  0
 21 22  1  0
 22  2  1  0
 21  6  1  0
 14 12  1  0
M  END
>  <energy_score>  (1989) 
-20.088351

>  <inchikey>  (1989) 
IXWFLSHHECQBJH-UHFFFAOYSA-N

>  <smiles>  (1989) 
O=C1CCCc2cc(NC(=O)C3CC3C(F)(F)F)ccc2N1

>  <ref_pdb>  (1989) 
A1068a

>  <alias>  (1989) 
IXWFLSHHECQBJH-UHFFFAOYSA-N-P37-P37-P120-601513

>  <HIPPO Pose ID>  (1989) 
523106

>  <name>  (1989) 
IXWFLSHHECQBJH-UHFFFAOYSA-N-P37-P37-P120-601513

>  <HIPPO Compound ID>  (1989) 
301712

>  <ref_mols>  (1989) 
A1445a,A0310a

>  <distance_score>  (1989) 
1.55032

>  <inspiration_score>  (1989) 
None

$$$$
WLVNSVUQEKNCRR-UHFFFAOYSA-N-P37-P37-P120-601513
     RDKit          3D

 23 24  0  0  0  0  0  0  0  0999 V2000
    3.0088   12.7561   28.1603 C   0  0  0  0  0  0  0  0  0  0  0  0
    3.2625   12.1959   29.5556 C   0  0  0  0  0  0  0  0  0  0  0  0
    3.2897   10.6462   29.6809 C   0  0  2  0  0  0  0  0  0  0  0  0
    4.1300    9.8530   28.6349 C   0  0  0  0  0  0  0  0  0  0  0  0
    5.4573   10.5316   28.3144 C   0  0  0  0  0  0  0  0  0  0  0  0
    5.8998   11.3523   29.0214 O   0  0  0  0  0  0  0  0  0  0  0  0
    5.9584   10.0128   26.9306 N   0  0  0  0  0  0  0  0  0  0  0  0
    7.0050   10.4488   26.1312 C   0  0  0  0  0  0  0  0  0  0  0  0
    7.6163    9.7278   25.1077 C   0  0  0  0  0  0  0  0  0  0  0  0
    8.5918   10.2828   24.2773 C   0  0  0  0  0  0  0  0  0  0  0  0
    8.7930   11.6417   24.3701 C   0  0  0  0  0  0  0  0  0  0  0  0
    8.2358   12.3660   25.4231 C   0  0  0  0  0  0  0  0  0  0  0  0
    7.3736   11.7575   26.3155 C   0  0  0  0  0  0  0  0  0  0  0  0
    8.4537   13.8371   25.5748 C   0  0  0  0  0  0  0  0  0  0  0  0
    7.4754   14.5219   24.6585 C   0  0  0  0  0  0  0  0  0  0  0  0
    7.6121   14.0603   23.2176 C   0  0  0  0  0  0  0  0  0  0  0  0
    8.9498   13.4565   22.7682 C   0  0  0  0  0  0  0  0  0  0  0  0
    9.5422   13.8816   21.7836 O   0  0  0  0  0  0  0  0  0  0  0  0
    9.4350   12.3122   23.3405 N   0  0  0  0  0  0  0  0  0  0  0  0
    1.8510   10.1448   29.7015 C   0  0  0  0  0  0  0  0  0  0  0  0
    1.1944   10.6047   30.7881 F   0  0  0  0  0  0  0  0  0  0  0  0
    1.7998    8.7978   29.7355 F   0  0  0  0  0  0  0  0  0  0  0  0
    1.1661   10.5418   28.6057 F   0  0  0  0  0  0  0  0  0  0  0  0
  1  2  1  0
  3  2  1  6
  3  4  1  0
  4  5  1  0
  5  6  2  0
  5  7  1  0
  7  8  1  0
  8  9  2  0
  9 10  1  0
 10 11  2  0
 11 12  1  0
 12 13  2  0
 12 14  1  0
 14 15  1  0
 15 16  1  0
 16 17  1  0
 17 18  2  0
 17 19  1  0
  3 20  1  0
 20 21  1  0
 20 22  1  0
 20 23  1  0
 13  8  1  0
 19 11  1  0
M  END
>  <energy_score>  (1990) 
-2.708391

>  <inchikey>  (1990) 
WLVNSVUQEKNCRR-UHFFFAOYSA-N

>  <smiles>  (1990) 
CCC(CC(=O)Nc1ccc2c(c1)CCCC(=O)N2)C(F)(F)F

>  <ref_pdb>  (1990) 
A1068a

>  <alias>  (1990) 
WLVNSVUQEKNCRR-UHFFFAOYSA-N-P37-P37-P120-601513

>  <HIPPO Pose ID>  (1990) 
523108

>  <name>  (1990) 
WLVNSVUQEKNCRR-UHFFFAOYSA-N-P37-P37-P120-601513

>  <HIPPO Compound ID>  (1990) 
301713

>  <ref_mols>  (1990) 
A1445a,A0310a

>  <distance_score>  (1990) 
1.672035

>  <inspiration_score>  (1990) 
None

$$$$
KXKXRYUGSFYBKG-UHFFFAOYSA-N-P37-P37-P120-601513
     RDKit          3D

 23 24  0  0  0  0  0  0  0  0999 V2000
    3.5055   11.9092   30.5455 C   0  0  0  0  0  0  0  0  0  0  0  0
    3.0592   11.1116   29.3039 C   0  0  0  0  0  0  0  0  0  0  0  0
    2.7228   12.1237   28.1901 C   0  0  0  0  0  0  0  0  0  0  0  0
    4.1302   10.0625   28.8232 C   0  0  0  0  0  0  0  0  0  0  0  0
    5.4220   10.7502   28.3779 C   0  0  0  0  0  0  0  0  0  0  0  0
    5.8233   11.6660   28.9875 O   0  0  0  0  0  0  0  0  0  0  0  0
    5.9406   10.1144   27.0487 N   0  0  0  0  0  0  0  0  0  0  0  0
    6.9558   10.5209   26.1907 C   0  0  0  0  0  0  0  0  0  0  0  0
    7.5403    9.7691   25.1748 C   0  0  0  0  0  0  0  0  0  0  0  0
    8.5190   10.2832   24.3184 C   0  0  0  0  0  0  0  0  0  0  0  0
    8.7485   11.6386   24.3712 C   0  0  0  0  0  0  0  0  0  0  0  0
    8.2135   12.3980   25.4095 C   0  0  0  0  0  0  0  0  0  0  0  0
    7.3489   11.8278   26.3254 C   0  0  0  0  0  0  0  0  0  0  0  0
    8.4443   13.8698   25.5246 C   0  0  0  0  0  0  0  0  0  0  0  0
    7.4614   14.5267   24.5925 C   0  0  0  0  0  0  0  0  0  0  0  0
    7.6396   14.0656   23.1559 C   0  0  0  0  0  0  0  0  0  0  0  0
    8.9839   13.4393   22.7560 C   0  0  0  0  0  0  0  0  0  0  0  0
    9.6489   13.8880   21.8306 O   0  0  0  0  0  0  0  0  0  0  0  0
    9.4031   12.2676   23.3240 N   0  0  0  0  0  0  0  0  0  0  0  0
    1.7677   10.3808   29.6756 C   0  0  0  0  0  0  0  0  0  0  0  0
    1.9081    9.6628   30.8081 F   0  0  0  0  0  0  0  0  0  0  0  0
    1.3826    9.5328   28.6954 F   0  0  0  0  0  0  0  0  0  0  0  0
    0.7516   11.2503   29.8668 F   0  0  0  0  0  0  0  0  0  0  0  0
  1  2  1  0
  2  3  1  0
  2  4  1  0
  4  5  1  0
  5  6  2  0
  5  7  1  0
  7  8  1  0
  8  9  2  0
  9 10  1  0
 10 11  2  0
 11 12  1  0
 12 13  2  0
 12 14  1  0
 14 15  1  0
 15 16  1  0
 16 17  1  0
 17 18  2  0
 17 19  1  0
  2 20  1  0
 20 21  1  0
 20 22  1  0
 20 23  1  0
 13  8  1  0
 19 11  1  0
M  END
>  <energy_score>  (1991) 
-2.38944

>  <inchikey>  (1991) 
KXKXRYUGSFYBKG-UHFFFAOYSA-N

>  <smiles>  (1991) 
CC(C)(CC(=O)Nc1ccc2c(c1)CCCC(=O)N2)C(F)(F)F

>  <ref_pdb>  (1991) 
A1068a

>  <alias>  (1991) 
KXKXRYUGSFYBKG-UHFFFAOYSA-N-P37-P37-P120-601513

>  <HIPPO Pose ID>  (1991) 
523120

>  <name>  (1991) 
KXKXRYUGSFYBKG-UHFFFAOYSA-N-P37-P37-P120-601513

>  <HIPPO Compound ID>  (1991) 
301719

>  <ref_mols>  (1991) 
A1445a,A0310a

>  <distance_score>  (1991) 
1.706232

>  <inspiration_score>  (1991) 
None

$$$$
URWXLUZXOXJXLX-UHFFFAOYSA-N-P120-P37-P120-601513
     RDKit          3D

 23 25  0  0  0  0  0  0  0  0999 V2000
    5.5497   11.2281   29.0213 O   0  0  0  0  0  0  0  0  0  0  0  0
    4.9956   10.4805   28.3100 C   0  0  0  0  0  0  0  0  0  0  0  0
    3.7129    9.8075   28.7549 C   0  0  0  0  0  0  0  0  0  0  0  0
    2.5603   10.8044   28.9081 C   0  0  0  0  0  0  0  0  0  0  0  0
    1.4251   10.2454   29.7047 C   0  0  0  0  0  0  0  0  0  0  0  0
    1.7148   10.2321   31.0228 F   0  0  0  0  0  0  0  0  0  0  0  0
    1.1561    8.9793   29.3145 F   0  0  0  0  0  0  0  0  0  0  0  0
    0.3052   10.9796   29.5254 F   0  0  0  0  0  0  0  0  0  0  0  0
    2.7758   12.3152   29.0119 C   0  0  0  0  0  0  0  0  0  0  0  0
    2.2500   11.7285   27.7332 C   0  0  0  0  0  0  0  0  0  0  0  0
    5.2952   10.0815   26.8344 N   0  0  0  0  0  0  0  0  0  0  0  0
    6.2338   10.5688   25.9478 C   0  0  0  0  0  0  0  0  0  0  0  0
    6.9391    9.8039   25.0341 C   0  0  0  0  0  0  0  0  0  0  0  0
    7.9297   10.3738   24.2343 C   0  0  0  0  0  0  0  0  0  0  0  0
    8.1653   11.7407   24.3336 C   0  0  0  0  0  0  0  0  0  0  0  0
    7.4887   12.5084   25.2825 C   0  0  0  0  0  0  0  0  0  0  0  0
    6.5109   11.9139   26.0622 C   0  0  0  0  0  0  0  0  0  0  0  0
    7.8972   13.9092   25.6537 C   0  0  0  0  0  0  0  0  0  0  0  0
    7.5375   14.9279   24.6247 C   0  0  0  0  0  0  0  0  0  0  0  0
    8.0331   14.5342   23.2621 C   0  0  0  0  0  0  0  0  0  0  0  0
    9.2615   13.6193   23.1884 C   0  0  0  0  0  0  0  0  0  0  0  0
   10.3332   13.9657   22.7083 O   0  0  0  0  0  0  0  0  0  0  0  0
    9.1549   12.3117   23.5524 N   0  0  0  0  0  0  0  0  0  0  0  0
  1  2  2  0
  2  3  1  0
  3  4  1  0
  4  5  1  0
  5  6  1  0
  5  7  1  0
  5  8  1  0
  4  9  1  0
  9 10  1  0
  2 11  1  0
 11 12  1  0
 12 13  2  0
 13 14  1  0
 14 15  2  0
 15 16  1  0
 16 17  2  0
 16 18  1  0
 18 19  1  0
 19 20  1  0
 20 21  1  0
 21 22  2  0
 21 23  1  0
 10  4  1  0
 17 12  1  0
 23 15  1  0
M  END
>  <energy_score>  (1992) 
-13.067576

>  <inchikey>  (1992) 
URWXLUZXOXJXLX-UHFFFAOYSA-N

>  <smiles>  (1992) 
O=C(CC1(C(F)(F)F)CC1)Nc1ccc2c(c1)CCCC(=O)N2

>  <ref_pdb>  (1992) 
A1068a

>  <alias>  (1992) 
URWXLUZXOXJXLX-UHFFFAOYSA-N-P120-P37-P120-601513

>  <HIPPO Pose ID>  (1992) 
523123

>  <name>  (1992) 
URWXLUZXOXJXLX-UHFFFAOYSA-N-P120-P37-P120-601513

>  <HIPPO Compound ID>  (1992) 
301720

>  <ref_mols>  (1992) 
A1445a,A0310a

>  <distance_score>  (1992) 
1.75085

>  <inspiration_score>  (1992) 
None

$$$$
VODVPRWFBACHJW-UHFFFAOYSA-N-P120-P37-P120-601513
     RDKit          3D

 24 26  0  0  0  0  0  0  0  0999 V2000
    8.5054    9.5382   23.6177 C   0  0  0  0  0  0  0  0  0  0  0  0
    7.6895   10.5257   24.4021 C   0  0  0  0  0  0  0  0  0  0  0  0
    6.7336    9.9959   25.2755 C   0  0  0  0  0  0  0  0  0  0  0  0
    6.0225   10.8094   26.1419 C   0  0  0  0  0  0  0  0  0  0  0  0
    5.2479   10.2682   27.1431 N   0  0  0  0  0  0  0  0  0  0  0  0
    4.9494   10.7786   28.5573 C   0  0  0  0  0  0  0  0  0  0  0  0
    5.3703   11.6983   29.1314 O   0  0  0  0  0  0  0  0  0  0  0  0
    3.8699    9.9729   29.2005 C   0  0  1  0  0  0  0  0  0  0  0  0
    3.8082    9.7583   30.6918 C   0  0  0  0  0  0  0  0  0  0  0  0
    2.8160   10.7086   30.0388 C   0  0  1  0  0  0  0  0  0  0  0  0
    2.9549   12.1811   30.3583 C   0  0  0  0  0  0  0  0  0  0  0  0
    1.3905   10.3069   29.8597 C   0  0  0  0  0  0  0  0  0  0  0  0
    0.7405   10.3838   31.0401 F   0  0  0  0  0  0  0  0  0  0  0  0
    1.2754    9.0379   29.4028 F   0  0  0  0  0  0  0  0  0  0  0  0
    0.7688   11.1168   28.9736 F   0  0  0  0  0  0  0  0  0  0  0  0
    6.1659   12.1824   26.0910 C   0  0  0  0  0  0  0  0  0  0  0  0
    7.0325   12.7374   25.1730 C   0  0  0  0  0  0  0  0  0  0  0  0
    7.8325   11.9211   24.3534 C   0  0  0  0  0  0  0  0  0  0  0  0
    8.8072   12.5460   23.5484 N   0  0  0  0  0  0  0  0  0  0  0  0
   10.1908   12.2501   23.7611 C   0  0  0  0  0  0  0  0  0  0  0  0
   10.9255   13.1922   22.8534 C   0  0  0  0  0  0  0  0  0  0  0  0
   10.0763   14.4366   22.9423 C   0  0  0  0  0  0  0  0  0  0  0  0
    8.6993   13.8868   23.1647 C   0  0  0  0  0  0  0  0  0  0  0  0
    7.6815   14.5429   23.0103 O   0  0  0  0  0  0  0  0  0  0  0  0
  1  2  1  0
  2  3  2  0
  3  4  1  0
  4  5  1  0
  5  6  1  0
  6  7  2  0
  8  6  1  1
  8  9  1  0
  9 10  1  0
 10 11  1  1
 10 12  1  0
 12 13  1  0
 12 14  1  0
 12 15  1  0
  4 16  2  0
 16 17  1  0
 17 18  2  0
 18 19  1  0
 19 20  1  0
 20 21  1  0
 21 22  1  0
 22 23  1  0
 23 24  2  0
 18  2  1  0
 23 19  1  0
 10  8  1  0
M  END
>  <energy_score>  (1993) 
-36.331163

>  <inchikey>  (1993) 
VODVPRWFBACHJW-UHFFFAOYSA-N

>  <smiles>  (1993) 
Cc1cc(NC(=O)C2CC2(C)C(F)(F)F)ccc1N1CCCC1=O

>  <ref_pdb>  (1993) 
A1068a

>  <alias>  (1993) 
VODVPRWFBACHJW-UHFFFAOYSA-N-P120-P37-P120-601513

>  <HIPPO Pose ID>  (1993) 
523137

>  <name>  (1993) 
VODVPRWFBACHJW-UHFFFAOYSA-N-P120-P37-P120-601513

>  <HIPPO Compound ID>  (1993) 
301727

>  <ref_mols>  (1993) 
A1445a,A0310a

>  <distance_score>  (1993) 
1.942775

>  <inspiration_score>  (1993) 
None

$$$$
YCZYXBLKVSOEFT-UHFFFAOYSA-N-P37-P37-P120-601513
     RDKit          3D

 24 25  0  0  0  0  0  0  0  0999 V2000
    3.9155   11.1615   30.6410 C   0  0  0  0  0  0  0  0  0  0  0  0
    3.3148    9.9935   29.8449 C   0  0  2  0  0  0  0  0  0  0  0  0
    4.1986    9.4941   28.6854 C   0  0  1  0  0  0  0  0  0  0  0  0
    3.5338    8.5745   27.9364 F   0  0  0  0  0  0  0  0  0  0  0  0
    4.8253   10.5895   27.8227 C   0  0  0  0  0  0  0  0  0  0  0  0
    4.5416   11.7168   27.9729 O   0  0  0  0  0  0  0  0  0  0  0  0
    5.8940    9.9273   26.8835 N   0  0  0  0  0  0  0  0  0  0  0  0
    6.8462   10.5062   26.0526 C   0  0  0  0  0  0  0  0  0  0  0  0
    7.6526    9.8150   25.1504 C   0  0  0  0  0  0  0  0  0  0  0  0
    8.5771   10.4648   24.3261 C   0  0  0  0  0  0  0  0  0  0  0  0
    8.6409   11.8490   24.3658 C   0  0  0  0  0  0  0  0  0  0  0  0
    7.9362   12.5257   25.3635 C   0  0  0  0  0  0  0  0  0  0  0  0
    7.0299   11.8597   26.1732 C   0  0  0  0  0  0  0  0  0  0  0  0
    8.0535   14.0037   25.5538 C   0  0  0  0  0  0  0  0  0  0  0  0
    7.1221   14.6579   24.5676 C   0  0  0  0  0  0  0  0  0  0  0  0
    7.3727   14.1820   23.1485 C   0  0  0  0  0  0  0  0  0  0  0  0
    8.8065   13.7585   22.8104 C   0  0  0  0  0  0  0  0  0  0  0  0
    9.4402   14.4199   21.9865 O   0  0  0  0  0  0  0  0  0  0  0  0
    9.3213   12.5892   23.3754 N   0  0  0  0  0  0  0  0  0  0  0  0
   10.6123   12.1010   22.9207 C   0  0  0  0  0  0  0  0  0  0  0  0
    1.8913   10.3131   29.4461 C   0  0  0  0  0  0  0  0  0  0  0  0
    1.1828   10.6661   30.5481 F   0  0  0  0  0  0  0  0  0  0  0  0
    1.2773    9.2339   28.9194 F   0  0  0  0  0  0  0  0  0  0  0  0
    1.7854   11.3166   28.5580 F   0  0  0  0  0  0  0  0  0  0  0  0
  2  1  1  6
  2  3  1  0
  3  4  1  6
  3  5  1  0
  5  6  2  0
  5  7  1  0
  7  8  1  0
  8  9  2  0
  9 10  1  0
 10 11  2  0
 11 12  1  0
 12 13  2  0
 12 14  1  0
 14 15  1  0
 15 16  1  0
 16 17  1  0
 17 18  2  0
 17 19  1  0
 19 20  1  0
  2 21  1  0
 21 22  1  0
 21 23  1  0
 21 24  1  0
 13  8  1  0
 19 11  1  0
M  END
>  <energy_score>  (1994) 
-9.334633

>  <inchikey>  (1994) 
YCZYXBLKVSOEFT-UHFFFAOYSA-N

>  <smiles>  (1994) 
CC(C(F)C(=O)Nc1ccc2c(c1)CCCC(=O)N2C)C(F)(F)F

>  <ref_pdb>  (1994) 
A1068a

>  <alias>  (1994) 
YCZYXBLKVSOEFT-UHFFFAOYSA-N-P37-P37-P120-601513

>  <HIPPO Pose ID>  (1994) 
523150

>  <name>  (1994) 
YCZYXBLKVSOEFT-UHFFFAOYSA-N-P37-P37-P120-601513

>  <HIPPO Compound ID>  (1994) 
301734

>  <ref_mols>  (1994) 
A1445a,A0310a

>  <distance_score>  (1994) 
1.604857

>  <inspiration_score>  (1994) 
None

$$$$
XQXXMKFQWKVGCX-UHFFFAOYSA-N-P37-P37-P120-601513
     RDKit          3D

 24 25  0  0  0  0  0  0  0  0999 V2000
    3.4474   11.9640   29.8024 C   0  0  0  0  0  0  0  0  0  0  0  0
    3.4140   10.4121   29.8012 C   0  0  0  0  0  0  0  0  0  0  0  0
    3.8960    9.9044   31.1729 C   0  0  0  0  0  0  0  0  0  0  0  0
    4.2366    9.7347   28.6353 C   0  0  2  0  0  0  0  0  0  0  0  0
    4.5450    8.3740   28.9415 O   0  0  0  0  0  0  0  0  0  0  0  0
    5.5380   10.5057   28.2654 C   0  0  0  0  0  0  0  0  0  0  0  0
    5.9313   11.3850   28.9311 O   0  0  0  0  0  0  0  0  0  0  0  0
    6.0614    9.9601   26.8941 N   0  0  0  0  0  0  0  0  0  0  0  0
    7.0675   10.4301   26.0645 C   0  0  0  0  0  0  0  0  0  0  0  0
    7.7010    9.7107   25.0526 C   0  0  0  0  0  0  0  0  0  0  0  0
    8.6535   10.2890   24.2114 C   0  0  0  0  0  0  0  0  0  0  0  0
    8.8249   11.6536   24.2981 C   0  0  0  0  0  0  0  0  0  0  0  0
    8.2582   12.3689   25.3511 C   0  0  0  0  0  0  0  0  0  0  0  0
    7.4003   11.7489   26.2374 C   0  0  0  0  0  0  0  0  0  0  0  0
    8.4605   13.8406   25.5135 C   0  0  0  0  0  0  0  0  0  0  0  0
    7.4683   14.5175   24.6073 C   0  0  0  0  0  0  0  0  0  0  0  0
    7.6170   14.0756   23.1615 C   0  0  0  0  0  0  0  0  0  0  0  0
    8.9614   13.4853   22.7102 C   0  0  0  0  0  0  0  0  0  0  0  0
    9.5560   13.9313   21.7364 O   0  0  0  0  0  0  0  0  0  0  0  0
    9.4520   12.3358   23.2674 N   0  0  0  0  0  0  0  0  0  0  0  0
    1.9332   10.0604   29.6287 C   0  0  0  0  0  0  0  0  0  0  0  0
    1.1975   10.5012   30.6759 F   0  0  0  0  0  0  0  0  0  0  0  0
    1.7162    8.7382   29.5109 F   0  0  0  0  0  0  0  0  0  0  0  0
    1.4282   10.6494   28.5130 F   0  0  0  0  0  0  0  0  0  0  0  0
  1  2  1  0
  2  3  1  0
  2  4  1  0
  4  5  1  1
  4  6  1  0
  6  7  2  0
  6  8  1  0
  8  9  1  0
  9 10  2  0
 10 11  1  0
 11 12  2  0
 12 13  1  0
 13 14  2  0
 13 15  1  0
 15 16  1  0
 16 17  1  0
 17 18  1  0
 18 19  2  0
 18 20  1  0
  2 21  1  0
 21 22  1  0
 21 23  1  0
 21 24  1  0
 14  9  1  0
 20 12  1  0
M  END
>  <energy_score>  (1995) 
-126.300537

>  <inchikey>  (1995) 
XQXXMKFQWKVGCX-UHFFFAOYSA-N

>  <smiles>  (1995) 
CC(C)(C(O)C(=O)Nc1ccc2c(c1)CCCC(=O)N2)C(F)(F)F

>  <ref_pdb>  (1995) 
A1068a

>  <alias>  (1995) 
XQXXMKFQWKVGCX-UHFFFAOYSA-N-P37-P37-P120-601513

>  <HIPPO Pose ID>  (1995) 
523158

>  <name>  (1995) 
XQXXMKFQWKVGCX-UHFFFAOYSA-N-P37-P37-P120-601513

>  <HIPPO Compound ID>  (1995) 
301738

>  <ref_mols>  (1995) 
A1445a,A0310a

>  <distance_score>  (1995) 
1.649675

>  <inspiration_score>  (1995) 
None

$$$$
SMNZPGBYIXIJLJ-UHFFFAOYSA-N-P37-P37-P120-601513
     RDKit          3D

 25 26  0  0  0  0  0  0  0  0999 V2000
    2.8372   12.9381   30.7947 C   0  0  0  0  0  0  0  0  0  0  0  0
    3.4126   12.1779   29.6826 N   0  0  0  0  0  0  0  0  0  0  0  0
    2.9460   12.7483   28.4175 C   0  0  0  0  0  0  0  0  0  0  0  0
    3.3006   10.6737   29.7954 C   0  0  2  0  0  0  0  0  0  0  0  0
    3.8679   10.1991   31.1613 C   0  0  0  0  0  0  0  0  0  0  0  0
    4.1404    9.9108   28.6877 C   0  0  0  0  0  0  0  0  0  0  0  0
    5.4914   10.5626   28.3715 C   0  0  0  0  0  0  0  0  0  0  0  0
    5.9785   11.3512   29.0859 O   0  0  0  0  0  0  0  0  0  0  0  0
    5.9461   10.0545   26.9635 N   0  0  0  0  0  0  0  0  0  0  0  0
    6.9917   10.4690   26.1521 C   0  0  0  0  0  0  0  0  0  0  0  0
    7.5846    9.7413   25.1236 C   0  0  0  0  0  0  0  0  0  0  0  0
    8.5629   10.2834   24.2871 C   0  0  0  0  0  0  0  0  0  0  0  0
    8.7779   11.6404   24.3733 C   0  0  0  0  0  0  0  0  0  0  0  0
    8.2344   12.3729   25.4278 C   0  0  0  0  0  0  0  0  0  0  0  0
    7.3773   11.7734   26.3315 C   0  0  0  0  0  0  0  0  0  0  0  0
    8.4596   13.8437   25.5713 C   0  0  0  0  0  0  0  0  0  0  0  0
    7.4784   14.5263   24.6558 C   0  0  0  0  0  0  0  0  0  0  0  0
    7.6152   14.0636   23.2151 C   0  0  0  0  0  0  0  0  0  0  0  0
    8.9527   13.4549   22.7706 C   0  0  0  0  0  0  0  0  0  0  0  0
    9.5607   13.8908   21.8006 O   0  0  0  0  0  0  0  0  0  0  0  0
    9.4202   12.3004   23.3370 N   0  0  0  0  0  0  0  0  0  0  0  0
    1.8290   10.1552   29.7060 C   0  0  0  0  0  0  0  0  0  0  0  0
    1.0826   10.5631   30.7567 F   0  0  0  0  0  0  0  0  0  0  0  0
    1.7822    8.8043   29.6811 F   0  0  0  0  0  0  0  0  0  0  0  0
    1.2126   10.5845   28.5764 F   0  0  0  0  0  0  0  0  0  0  0  0
  1  2  1  0
  2  3  1  0
  2  4  1  0
  4  5  1  1
  4  6  1  0
  6  7  1  0
  7  8  2  0
  7  9  1  0
  9 10  1  0
 10 11  2  0
 11 12  1  0
 12 13  2  0
 13 14  1  0
 14 15  2  0
 14 16  1  0
 16 17  1  0
 17 18  1  0
 18 19  1  0
 19 20  2  0
 19 21  1  0
  4 22  1  0
 22 23  1  0
 22 24  1  0
 22 25  1  0
 15 10  1  0
 21 13  1  0
M  END
>  <energy_score>  (1996) 
-7.53638

>  <inchikey>  (1996) 
SMNZPGBYIXIJLJ-UHFFFAOYSA-N

>  <smiles>  (1996) 
CN(C)C(C)(CC(=O)Nc1ccc2c(c1)CCCC(=O)N2)C(F)(F)F

>  <ref_pdb>  (1996) 
A1068a

>  <alias>  (1996) 
SMNZPGBYIXIJLJ-UHFFFAOYSA-N-P37-P37-P120-601513

>  <HIPPO Pose ID>  (1996) 
523188

>  <name>  (1996) 
SMNZPGBYIXIJLJ-UHFFFAOYSA-N-P37-P37-P120-601513

>  <HIPPO Compound ID>  (1996) 
301753

>  <ref_mols>  (1996) 
A1445a,A0310a

>  <distance_score>  (1996) 
1.680394

>  <inspiration_score>  (1996) 
None

$$$$
VUVJMSXHLUTATD-UHFFFAOYSA-N-P37-P37-P120-601513
     RDKit          3D

 25 27  0  0  0  0  0  0  0  0999 V2000
   10.4946    9.9267   22.1629 O   0  0  0  0  0  0  0  0  0  0  0  0
   10.0851   10.8175   22.9061 C   0  0  0  0  0  0  0  0  0  0  0  0
   10.5311   12.2441   22.8107 C   0  0  0  0  0  0  0  0  0  0  0  0
   10.2666   13.1343   23.9980 C   0  0  0  0  0  0  0  0  0  0  0  0
    8.7875   13.4497   24.1510 C   0  0  0  0  0  0  0  0  0  0  0  0
    8.0373   12.3573   24.8524 C   0  0  0  0  0  0  0  0  0  0  0  0
    7.0181   12.7349   25.7671 C   0  0  0  0  0  0  0  0  0  0  0  0
    6.3655   11.7692   26.5185 C   0  0  0  0  0  0  0  0  0  0  0  0
    5.4159   12.0250   27.4875 N   0  0  0  0  0  0  0  0  0  0  0  0
    4.9440   11.1603   28.6918 C   0  0  0  0  0  0  0  0  0  0  0  0
    5.3420   10.1346   29.0906 O   0  0  0  0  0  0  0  0  0  0  0  0
    3.6961   11.8193   29.3093 C   0  0  2  0  0  0  0  0  0  0  0  0
    4.0400   12.7349   30.3548 N   0  0  0  0  0  0  0  0  0  0  0  0
    3.9442   12.1631   31.6023 C   0  0  0  0  0  0  0  0  0  0  0  0
    4.3080   12.6949   32.6349 O   0  0  0  0  0  0  0  0  0  0  0  0
    3.3747   10.7761   31.4622 C   0  0  0  0  0  0  0  0  0  0  0  0
    2.9186   10.7015   30.0048 C   0  0  1  0  0  0  0  0  0  0  0  0
    1.4353   10.8466   29.8574 C   0  0  0  0  0  0  0  0  0  0  0  0
    0.9411   11.8103   30.6493 F   0  0  0  0  0  0  0  0  0  0  0  0
    0.8235    9.6849   30.1741 F   0  0  0  0  0  0  0  0  0  0  0  0
    1.1023   11.1310   28.5782 F   0  0  0  0  0  0  0  0  0  0  0  0
    6.6345   10.4324   26.2927 C   0  0  0  0  0  0  0  0  0  0  0  0
    7.5570   10.0636   25.3457 C   0  0  0  0  0  0  0  0  0  0  0  0
    8.2840   10.9987   24.6407 C   0  0  0  0  0  0  0  0  0  0  0  0
    9.1664   10.3904   23.7690 N   0  0  0  0  0  0  0  0  0  0  0  0
  1  2  2  0
  2  3  1  0
  3  4  1  0
  4  5  1  0
  5  6  1  0
  6  7  2  0
  7  8  1  0
  8  9  1  0
  9 10  1  0
 10 11  2  0
 12 10  1  1
 12 13  1  0
 13 14  1  0
 14 15  2  0
 14 16  1  0
 16 17  1  0
 17 18  1  1
 18 19  1  0
 18 20  1  0
 18 21  1  0
  8 22  2  0
 22 23  1  0
 23 24  2  0
 24 25  1  0
 25  2  1  0
 24  6  1  0
 17 12  1  0
M  END
>  <energy_score>  (1997) 
-30.541083

>  <inchikey>  (1997) 
VUVJMSXHLUTATD-UHFFFAOYSA-N

>  <smiles>  (1997) 
O=C1CCCc2cc(NC(=O)C3NC(=O)CC3C(F)(F)F)ccc2N1

>  <ref_pdb>  (1997) 
A1068a

>  <alias>  (1997) 
VUVJMSXHLUTATD-UHFFFAOYSA-N-P37-P37-P120-601513

>  <HIPPO Pose ID>  (1997) 
523200

>  <name>  (1997) 
VUVJMSXHLUTATD-UHFFFAOYSA-N-P37-P37-P120-601513

>  <HIPPO Compound ID>  (1997) 
301759

>  <ref_mols>  (1997) 
A1445a,A0310a

>  <distance_score>  (1997) 
1.600292

>  <inspiration_score>  (1997) 
None

$$$$
JIUQNLYUUFKPGX-UHFFFAOYSA-N-P37-P37-P120-601513
     RDKit          3D

 26 29  0  0  0  0  0  0  0  0999 V2000
   10.4123    9.8647   22.3465 O   0  0  0  0  0  0  0  0  0  0  0  0
    9.9298   10.6933   23.1118 C   0  0  0  0  0  0  0  0  0  0  0  0
   10.4484   12.0863   23.2495 C   0  0  0  0  0  0  0  0  0  0  0  0
    9.3445   13.1206   23.2247 C   0  0  0  0  0  0  0  0  0  0  0  0
    8.7500   13.3571   24.6027 C   0  0  0  0  0  0  0  0  0  0  0  0
    7.9920   12.2175   25.2203 C   0  0  0  0  0  0  0  0  0  0  0  0
    7.1349   12.5400   26.3220 C   0  0  0  0  0  0  0  0  0  0  0  0
    6.3711   11.5618   26.9583 C   0  0  0  0  0  0  0  0  0  0  0  0
    5.6948   11.7543   28.1607 N   0  0  0  0  0  0  0  0  0  0  0  0
    4.9846   10.7288   29.0986 C   0  0  0  0  0  0  0  0  0  0  0  0
    4.9280    9.5595   29.0405 O   0  0  0  0  0  0  0  0  0  0  0  0
    4.3449   11.3939   30.3064 C   0  0  1  0  0  0  0  0  0  0  0  0
    5.0610   12.5289   31.0312 C   0  0  0  0  0  0  0  0  0  0  0  0
    3.9574   13.4820   31.3446 N   0  0  0  0  0  0  0  0  0  0  0  0
    3.5994   14.2111   30.0996 C   0  0  0  0  0  0  0  0  0  0  0  0
    2.8630   13.1664   29.2632 C   0  0  0  0  0  0  0  0  0  0  0  0
    2.9160   11.9246   30.1612 C   0  0  1  0  0  0  0  0  0  0  0  0
    1.8501   10.9067   29.8484 C   0  0  0  0  0  0  0  0  0  0  0  0
    0.6496   11.3295   30.2981 F   0  0  0  0  0  0  0  0  0  0  0  0
    2.0730    9.7035   30.4044 F   0  0  0  0  0  0  0  0  0  0  0  0
    1.7317   10.7308   28.5132 F   0  0  0  0  0  0  0  0  0  0  0  0
    2.7781   12.5793   31.5287 C   0  0  0  0  0  0  0  0  0  0  0  0
    6.3650   10.2955   26.4232 C   0  0  0  0  0  0  0  0  0  0  0  0
    7.2182    9.9789   25.3854 C   0  0  0  0  0  0  0  0  0  0  0  0
    8.0811   10.8871   24.8114 C   0  0  0  0  0  0  0  0  0  0  0  0
    8.9092   10.2760   23.8739 N   0  0  0  0  0  0  0  0  0  0  0  0
  1  2  2  0
  2  3  1  0
  3  4  1  0
  4  5  1  0
  5  6  1  0
  6  7  2  0
  7  8  1  0
  8  9  1  0
  9 10  1  0
 10 11  2  0
 12 10  1  6
 12 13  1  0
 13 14  1  0
 14 15  1  0
 15 16  1  0
 16 17  1  0
 17 18  1  6
 18 19  1  0
 18 20  1  0
 18 21  1  0
 17 22  1  0
  8 23  2  0
 23 24  1  0
 24 25  2  0
 25 26  1  0
 26  2  1  0
 25  6  1  0
 17 12  1  0
 22 14  1  0
M  END
>  <energy_score>  (1998) 
-25.26355

>  <inchikey>  (1998) 
JIUQNLYUUFKPGX-UHFFFAOYSA-N

>  <smiles>  (1998) 
O=C1CCCc2cc(NC(=O)C3CN4CCC3(C(F)(F)F)C4)ccc2N1

>  <ref_pdb>  (1998) 
A1068a

>  <alias>  (1998) 
JIUQNLYUUFKPGX-UHFFFAOYSA-N-P37-P37-P120-601513

>  <HIPPO Pose ID>  (1998) 
523254

>  <name>  (1998) 
JIUQNLYUUFKPGX-UHFFFAOYSA-N-P37-P37-P120-601513

>  <HIPPO Compound ID>  (1998) 
301786

>  <ref_mols>  (1998) 
A1445a,A0310a

>  <distance_score>  (1998) 
1.779506

>  <inspiration_score>  (1998) 
None

$$$$
AQBMOMLUWTYQCT-UHFFFAOYSA-N-P37-P37-P120-601513
     RDKit          3D

 26 27  0  0  0  0  0  0  0  0999 V2000
   10.5198    9.8433   22.1961 O   0  0  0  0  0  0  0  0  0  0  0  0
   10.0879   10.7192   22.9419 C   0  0  0  0  0  0  0  0  0  0  0  0
   10.5050   12.1562   22.8399 C   0  0  0  0  0  0  0  0  0  0  0  0
   10.2218   13.0513   24.0180 C   0  0  0  0  0  0  0  0  0  0  0  0
    8.7379   13.3403   24.1658 C   0  0  0  0  0  0  0  0  0  0  0  0
    7.9902   12.2441   24.8546 C   0  0  0  0  0  0  0  0  0  0  0  0
    6.8975   12.6076   25.6901 C   0  0  0  0  0  0  0  0  0  0  0  0
    6.1813   11.6355   26.3765 C   0  0  0  0  0  0  0  0  0  0  0  0
    5.0632   11.8822   27.1532 N   0  0  0  0  0  0  0  0  0  0  0  0
    4.2755   10.9462   28.1169 C   0  0  0  0  0  0  0  0  0  0  0  0
    4.4983    9.8484   28.4590 O   0  0  0  0  0  0  0  0  0  0  0  0
    2.9790   11.6205   28.5540 C   0  0  1  0  0  0  0  0  0  0  0  0
    1.9611   11.0180   27.7382 O   0  0  0  0  0  0  0  0  0  0  0  0
    2.7846   11.3188   30.0325 C   0  0  0  0  0  0  0  0  0  0  0  0
    3.1305   12.5440   30.7994 C   0  0  0  0  0  0  0  0  0  0  0  0
    2.3279   13.5840   30.5061 F   0  0  0  0  0  0  0  0  0  0  0  0
    3.0929   12.3437   32.1300 F   0  0  0  0  0  0  0  0  0  0  0  0
    4.3966   12.9270   30.4961 F   0  0  0  0  0  0  0  0  0  0  0  0
    1.3959   10.9032   30.3438 C   0  0  0  0  0  0  0  0  0  0  0  0
    1.2185   10.7018   31.6617 F   0  0  0  0  0  0  0  0  0  0  0  0
    1.1265    9.7207   29.7307 F   0  0  0  0  0  0  0  0  0  0  0  0
    0.4870   11.7982   29.9218 F   0  0  0  0  0  0  0  0  0  0  0  0
    6.5293   10.3126   26.2174 C   0  0  0  0  0  0  0  0  0  0  0  0
    7.5379    9.9594   25.3539 C   0  0  0  0  0  0  0  0  0  0  0  0
    8.2770   10.8923   24.6692 C   0  0  0  0  0  0  0  0  0  0  0  0
    9.1890   10.2848   23.8242 N   0  0  0  0  0  0  0  0  0  0  0  0
  1  2  2  0
  2  3  1  0
  3  4  1  0
  4  5  1  0
  5  6  1  0
  6  7  2  0
  7  8  1  0
  8  9  1  0
  9 10  1  0
 10 11  2  0
 10 12  1  0
 12 13  1  6
 12 14  1  0
 14 15  1  0
 15 16  1  0
 15 17  1  0
 15 18  1  0
 14 19  1  0
 19 20  1  0
 19 21  1  0
 19 22  1  0
  8 23  2  0
 23 24  1  0
 24 25  2  0
 25 26  1  0
 26  2  1  0
 25  6  1  0
M  END
>  <energy_score>  (1999) 
-25.295203

>  <inchikey>  (1999) 
AQBMOMLUWTYQCT-UHFFFAOYSA-N

>  <smiles>  (1999) 
O=C1CCCc2cc(NC(=O)C(O)C(C(F)(F)F)C(F)(F)F)ccc2N1

>  <ref_pdb>  (1999) 
A1068a

>  <alias>  (1999) 
AQBMOMLUWTYQCT-UHFFFAOYSA-N-P37-P37-P120-601513

>  <HIPPO Pose ID>  (1999) 
523256

>  <name>  (1999) 
AQBMOMLUWTYQCT-UHFFFAOYSA-N-P37-P37-P120-601513

>  <HIPPO Compound ID>  (1999) 
301787

>  <ref_mols>  (1999) 
A1445a,A0310a

>  <distance_score>  (1999) 
1.550654

>  <inspiration_score>  (1999) 
None

$$$$
RWQWZGXFXSXGCR-UHFFFAOYSA-N-P120-P37-P120-601513
     RDKit          3D

 26 28  0  0  0  0  0  0  0  0999 V2000
    8.2812    9.5598   24.1927 C   0  0  0  0  0  0  0  0  0  0  0  0
    7.5458   10.7534   24.7204 C   0  0  0  0  0  0  0  0  0  0  0  0
    6.4165   10.5120   25.5297 C   0  0  0  0  0  0  0  0  0  0  0  0
    5.5586   11.5513   25.8705 C   0  0  0  0  0  0  0  0  0  0  0  0
    4.5233   11.4534   26.7616 N   0  0  0  0  0  0  0  0  0  0  0  0
    4.4109   10.6645   28.0909 C   0  0  0  0  0  0  0  0  0  0  0  0
    5.1535    9.9166   28.5913 O   0  0  0  0  0  0  0  0  0  0  0  0
    3.1080   11.1620   28.7041 C   0  0  2  0  0  0  0  0  0  0  0  0
    3.2085   12.6662   29.0423 C   0  0  1  0  0  0  0  0  0  0  0  0
    2.1766   13.5370   28.3373 C   0  0  0  0  0  0  0  0  0  0  0  0
    3.0165   12.8041   30.4558 O   0  0  0  0  0  0  0  0  0  0  0  0
    3.2954   11.5387   31.0427 C   0  0  0  0  0  0  0  0  0  0  0  0
    2.8369   10.5065   30.0434 C   0  0  1  0  0  0  0  0  0  0  0  0
    1.3621   10.2385   30.1542 C   0  0  0  0  0  0  0  0  0  0  0  0
    1.0268    9.8758   31.4060 F   0  0  0  0  0  0  0  0  0  0  0  0
    1.0256    9.2205   29.3263 F   0  0  0  0  0  0  0  0  0  0  0  0
    0.6093   11.2975   29.8004 F   0  0  0  0  0  0  0  0  0  0  0  0
    5.7416   12.8197   25.3692 C   0  0  0  0  0  0  0  0  0  0  0  0
    6.8940   13.0849   24.6799 C   0  0  0  0  0  0  0  0  0  0  0  0
    7.8603   12.0907   24.4387 C   0  0  0  0  0  0  0  0  0  0  0  0
    9.0874   12.5822   23.9671 N   0  0  0  0  0  0  0  0  0  0  0  0
   10.1625   11.8938   23.3545 C   0  0  0  0  0  0  0  0  0  0  0  0
   10.8311   13.0036   22.5759 C   0  0  0  0  0  0  0  0  0  0  0  0
   10.8376   14.1080   23.6049 C   0  0  0  0  0  0  0  0  0  0  0  0
    9.5661   13.8530   24.3520 C   0  0  0  0  0  0  0  0  0  0  0  0
    9.1230   14.6436   25.1724 O   0  0  0  0  0  0  0  0  0  0  0  0
  1  2  1  0
  2  3  2  0
  3  4  1  0
  4  5  1  0
  5  6  1  0
  6  7  2  0
  8  6  1  1
  8  9  1  0
  9 10  1  6
  9 11  1  0
 11 12  1  0
 12 13  1  0
 13 14  1  1
 14 15  1  0
 14 16  1  0
 14 17  1  0
  4 18  2  0
 18 19  1  0
 19 20  2  0
 20 21  1  0
 21 22  1  0
 22 23  1  0
 23 24  1  0
 24 25  1  0
 25 26  2  0
 20  2  1  0
 25 21  1  0
 13  8  1  0
M  END
>  <energy_score>  (2000) 
-40.485891

>  <inchikey>  (2000) 
RWQWZGXFXSXGCR-UHFFFAOYSA-N

>  <smiles>  (2000) 
Cc1cc(NC(=O)C2C(C)OCC2C(F)(F)F)ccc1N1CCCC1=O

>  <ref_pdb>  (2000) 
A1068a

>  <alias>  (2000) 
RWQWZGXFXSXGCR-UHFFFAOYSA-N-P120-P37-P120-601513

>  <HIPPO Pose ID>  (2000) 
523273

>  <name>  (2000) 
RWQWZGXFXSXGCR-UHFFFAOYSA-N-P120-P37-P120-601513

>  <HIPPO Compound ID>  (2000) 
301796

>  <ref_mols>  (2000) 
A1445a,A0310a

>  <distance_score>  (2000) 
1.97387

>  <inspiration_score>  (2000) 
None

$$$$
GEPWCJVXNIHJIN-UHFFFAOYSA-N-P37-P37-P120-601513
     RDKit          3D

 26 28  0  0  0  0  0  0  0  0999 V2000
    6.4389   10.1787   30.1107 C   0  0  0  0  0  0  0  0  0  0  0  0
    4.9234   10.0639   30.1445 C   0  0  1  0  0  0  0  0  0  0  0  0
    4.4350   11.0425   31.0802 O   0  0  0  0  0  0  0  0  0  0  0  0
    3.4377   11.8549   30.4470 C   0  0  0  0  0  0  0  0  0  0  0  0
    2.9398   11.0609   29.2572 C   0  0  2  0  0  0  0  0  0  0  0  0
    1.7449   10.2481   29.6702 C   0  0  0  0  0  0  0  0  0  0  0  0
    1.9168    9.5939   30.8303 F   0  0  0  0  0  0  0  0  0  0  0  0
    1.4384    9.3388   28.7185 F   0  0  0  0  0  0  0  0  0  0  0  0
    0.6698   11.0575   29.8011 F   0  0  0  0  0  0  0  0  0  0  0  0
    4.1795   10.2596   28.8232 C   0  0  1  0  0  0  0  0  0  0  0  0
    4.9480   11.1423   27.8334 C   0  0  0  0  0  0  0  0  0  0  0  0
    4.7926   12.3031   27.8804 O   0  0  0  0  0  0  0  0  0  0  0  0
    5.8781   10.2816   26.9170 N   0  0  0  0  0  0  0  0  0  0  0  0
    6.6949   10.6552   25.8583 C   0  0  0  0  0  0  0  0  0  0  0  0
    7.6994    9.9119   25.2567 C   0  0  0  0  0  0  0  0  0  0  0  0
    8.6709   10.5107   24.4429 C   0  0  0  0  0  0  0  0  0  0  0  0
    8.5796   11.8740   24.2173 C   0  0  0  0  0  0  0  0  0  0  0  0
    7.3911   12.5160   24.5215 C   0  0  0  0  0  0  0  0  0  0  0  0
    6.5048   11.9344   25.4055 C   0  0  0  0  0  0  0  0  0  0  0  0
    7.1129   13.9145   24.0782 C   0  0  0  0  0  0  0  0  0  0  0  0
    7.6125   14.8080   25.1783 C   0  0  0  0  0  0  0  0  0  0  0  0
    9.0041   14.4127   25.6395 C   0  0  0  0  0  0  0  0  0  0  0  0
    9.9865   13.8424   24.5872 C   0  0  0  0  0  0  0  0  0  0  0  0
   11.0904   14.3914   24.4762 O   0  0  0  0  0  0  0  0  0  0  0  0
    9.6861   12.6736   23.8725 N   0  0  0  0  0  0  0  0  0  0  0  0
   10.7309   12.1353   23.0281 C   0  0  0  0  0  0  0  0  0  0  0  0
  2  1  1  6
  2  3  1  0
  3  4  1  0
  4  5  1  0
  5  6  1  1
  6  7  1  0
  6  8  1  0
  6  9  1  0
  5 10  1  0
 10 11  1  6
 11 12  2  0
 11 13  1  0
 13 14  1  0
 14 15  2  0
 15 16  1  0
 16 17  2  0
 17 18  1  0
 18 19  2  0
 18 20  1  0
 20 21  1  0
 21 22  1  0
 22 23  1  0
 23 24  2  0
 23 25  1  0
 25 26  1  0
 10  2  1  0
 19 14  1  0
 25 17  1  0
M  END
>  <energy_score>  (2001) 
-26.32102

>  <inchikey>  (2001) 
GEPWCJVXNIHJIN-UHFFFAOYSA-N

>  <smiles>  (2001) 
CC1OCC(C(F)(F)F)C1C(=O)Nc1ccc2c(c1)CCCC(=O)N2C

>  <ref_pdb>  (2001) 
A1068a

>  <alias>  (2001) 
GEPWCJVXNIHJIN-UHFFFAOYSA-N-P37-P37-P120-601513

>  <HIPPO Pose ID>  (2001) 
523274

>  <name>  (2001) 
GEPWCJVXNIHJIN-UHFFFAOYSA-N-P37-P37-P120-601513

>  <HIPPO Compound ID>  (2001) 
301797

>  <ref_mols>  (2001) 
A1445a,A0310a

>  <distance_score>  (2001) 
1.601839

>  <inspiration_score>  (2001) 
None

$$$$
PGMMYDKTKXWBFT-UHFFFAOYSA-N-P37-P37-P120-601513
     RDKit          3D

 26 28  0  0  0  0  0  0  0  0999 V2000
    1.7460   14.6587   28.0020 C   0  0  0  0  0  0  0  0  0  0  0  0
    2.6822   13.6231   28.4186 N   0  0  0  0  0  0  0  0  0  0  0  0
    2.8718   12.5792   27.3936 C   0  0  0  0  0  0  0  0  0  0  0  0
    3.1862   11.2850   28.2023 C   0  0  1  0  0  0  0  0  0  0  0  0
    4.7041   11.3976   28.4038 C   0  0  0  0  0  0  0  0  0  0  0  0
    5.2173   11.8728   29.3446 O   0  0  0  0  0  0  0  0  0  0  0  0
    5.3328   10.8506   27.0661 N   0  0  0  0  0  0  0  0  0  0  0  0
    6.6409   10.8724   26.6145 C   0  0  0  0  0  0  0  0  0  0  0  0
    7.0681   10.0698   25.5550 C   0  0  0  0  0  0  0  0  0  0  0  0
    8.1209   10.4362   24.7035 C   0  0  0  0  0  0  0  0  0  0  0  0
    8.5199   11.7593   24.7463 C   0  0  0  0  0  0  0  0  0  0  0  0
    8.1264   12.5495   25.8391 C   0  0  0  0  0  0  0  0  0  0  0  0
    7.2912   12.0568   26.8401 C   0  0  0  0  0  0  0  0  0  0  0  0
    8.4332   14.0168   25.8819 C   0  0  0  0  0  0  0  0  0  0  0  0
    7.3857   14.7057   25.0339 C   0  0  0  0  0  0  0  0  0  0  0  0
    7.2844   14.1111   23.6402 C   0  0  0  0  0  0  0  0  0  0  0  0
    8.5944   13.5642   23.0724 C   0  0  0  0  0  0  0  0  0  0  0  0
    9.1207   14.1362   22.1175 O   0  0  0  0  0  0  0  0  0  0  0  0
    9.1043   12.3798   23.6164 N   0  0  0  0  0  0  0  0  0  0  0  0
   10.2746   11.7687   23.0125 C   0  0  0  0  0  0  0  0  0  0  0  0
    2.1427   11.5165   29.2654 C   0  0  1  0  0  0  0  0  0  0  0  0
    1.9809   10.5302   30.3581 C   0  0  0  0  0  0  0  0  0  0  0  0
    2.9582   10.5423   31.2660 F   0  0  0  0  0  0  0  0  0  0  0  0
    1.8814    9.2837   29.8396 F   0  0  0  0  0  0  0  0  0  0  0  0
    0.8125   10.7905   30.9847 F   0  0  0  0  0  0  0  0  0  0  0  0
    2.3024   12.9596   29.6780 C   0  0  0  0  0  0  0  0  0  0  0  0
  1  2  1  0
  2  3  1  0
  3  4  1  0
  4  5  1  1
  5  6  2  0
  5  7  1  0
  7  8  1  0
  8  9  2  0
  9 10  1  0
 10 11  2  0
 11 12  1  0
 12 13  2  0
 12 14  1  0
 14 15  1  0
 15 16  1  0
 16 17  1  0
 17 18  2  0
 17 19  1  0
 19 20  1  0
  4 21  1  0
 21 22  1  1
 22 23  1  0
 22 24  1  0
 22 25  1  0
 21 26  1  0
 26  2  1  0
 13  8  1  0
 19 11  1  0
M  END
>  <energy_score>  (2002) 
-15.025528

>  <inchikey>  (2002) 
PGMMYDKTKXWBFT-UHFFFAOYSA-N

>  <smiles>  (2002) 
CN1CC(C(=O)Nc2ccc3c(c2)CCCC(=O)N3C)C(C(F)(F)F)C1

>  <ref_pdb>  (2002) 
A1068a

>  <alias>  (2002) 
PGMMYDKTKXWBFT-UHFFFAOYSA-N-P37-P37-P120-601513

>  <HIPPO Pose ID>  (2002) 
523292

>  <name>  (2002) 
PGMMYDKTKXWBFT-UHFFFAOYSA-N-P37-P37-P120-601513

>  <HIPPO Compound ID>  (2002) 
301806

>  <ref_mols>  (2002) 
A1445a,A0310a

>  <distance_score>  (2002) 
1.791181

>  <inspiration_score>  (2002) 
None

$$$$
YPYBHFCFHLHCPV-UHFFFAOYSA-N-P120-P37-P120-601513
     RDKit          3D

 26 27  0  0  0  0  0  0  0  0999 V2000
    4.7368    9.0944   31.3730 C   0  0  0  0  0  0  0  0  0  0  0  0
    3.9414   10.2613   31.7330 N   0  0  0  0  0  0  0  0  0  0  0  0
    4.5359   10.9219   32.9022 C   0  0  0  0  0  0  0  0  0  0  0  0
    3.7692   11.2376   30.6428 C   0  0  0  0  0  0  0  0  0  0  0  0
    2.8564   10.8505   29.4708 C   0  0  1  0  0  0  0  0  0  0  0  0
    3.5529   10.0220   28.3625 C   0  0  0  0  0  0  0  0  0  0  0  0
    4.3712   10.9676   27.5090 C   0  0  0  0  0  0  0  0  0  0  0  0
    4.2852   12.1242   27.6682 O   0  0  0  0  0  0  0  0  0  0  0  0
    5.2749   10.1467   26.5415 N   0  0  0  0  0  0  0  0  0  0  0  0
    6.1468   10.5684   25.5521 C   0  0  0  0  0  0  0  0  0  0  0  0
    7.1855    9.8499   24.9873 C   0  0  0  0  0  0  0  0  0  0  0  0
    8.2103   10.5403   24.3064 C   0  0  0  0  0  0  0  0  0  0  0  0
    8.1453   11.9374   24.1768 C   0  0  0  0  0  0  0  0  0  0  0  0
    6.9262   12.5451   24.4157 C   0  0  0  0  0  0  0  0  0  0  0  0
    5.9897   11.8881   25.1861 C   0  0  0  0  0  0  0  0  0  0  0  0
    6.5919   13.9160   23.9074 C   0  0  0  0  0  0  0  0  0  0  0  0
    7.0541   14.9810   24.8575 C   0  0  0  0  0  0  0  0  0  0  0  0
    8.3955   14.6456   25.4479 C   0  0  0  0  0  0  0  0  0  0  0  0
    9.4180   14.0597   24.4798 C   0  0  0  0  0  0  0  0  0  0  0  0
   10.4493   14.7112   24.2896 O   0  0  0  0  0  0  0  0  0  0  0  0
    9.2551   12.7838   23.9158 N   0  0  0  0  0  0  0  0  0  0  0  0
   10.4222   12.2841   23.2395 C   0  0  0  0  0  0  0  0  0  0  0  0
    1.5457   10.2356   29.8769 C   0  0  0  0  0  0  0  0  0  0  0  0
    1.0199   10.8076   30.9760 F   0  0  0  0  0  0  0  0  0  0  0  0
    1.6358    8.9058   30.0746 F   0  0  0  0  0  0  0  0  0  0  0  0
    0.6532   10.4205   28.8697 F   0  0  0  0  0  0  0  0  0  0  0  0
  1  2  1  0
  2  3  1  0
  2  4  1  0
  5  4  1  1
  5  6  1  0
  6  7  1  0
  7  8  2  0
  7  9  1  0
  9 10  1  0
 10 11  2  0
 11 12  1  0
 12 13  2  0
 13 14  1  0
 14 15  2  0
 14 16  1  0
 16 17  1  0
 17 18  1  0
 18 19  1  0
 19 20  2  0
 19 21  1  0
 21 22  1  0
  5 23  1  0
 23 24  1  0
 23 25  1  0
 23 26  1  0
 15 10  1  0
 21 13  1  0
M  END
>  <energy_score>  (2003) 
-35.763144

>  <inchikey>  (2003) 
YPYBHFCFHLHCPV-UHFFFAOYSA-N

>  <smiles>  (2003) 
CN(C)CC(CC(=O)Nc1ccc2c(c1)CCCC(=O)N2C)C(F)(F)F

>  <ref_pdb>  (2003) 
A1068a

>  <alias>  (2003) 
YPYBHFCFHLHCPV-UHFFFAOYSA-N-P120-P37-P120-601513

>  <HIPPO Pose ID>  (2003) 
523309

>  <name>  (2003) 
YPYBHFCFHLHCPV-UHFFFAOYSA-N-P120-P37-P120-601513

>  <HIPPO Compound ID>  (2003) 
301814

>  <ref_mols>  (2003) 
A1445a,A0310a

>  <distance_score>  (2003) 
1.62431

>  <inspiration_score>  (2003) 
None

$$$$
POWLVKFCKVTVEY-UHFFFAOYSA-N-P37-P37-P120-601513
     RDKit          3D

 27 29  0  0  0  0  0  0  0  0999 V2000
    8.5264    9.6180   24.5400 C   0  0  0  0  0  0  0  0  0  0  0  0
    7.8107   10.8205   25.0563 C   0  0  0  0  0  0  0  0  0  0  0  0
    6.7903   10.6016   25.9985 C   0  0  0  0  0  0  0  0  0  0  0  0
    5.9813   11.6326   26.4599 C   0  0  0  0  0  0  0  0  0  0  0  0
    4.8815   11.3726   27.2511 N   0  0  0  0  0  0  0  0  0  0  0  0
    4.5327   10.1300   28.1166 C   0  0  0  0  0  0  0  0  0  0  0  0
    5.1577    9.1726   28.3522 O   0  0  0  0  0  0  0  0  0  0  0  0
    3.1046   10.3091   28.5677 C   0  0  0  0  0  0  0  0  0  0  0  0
    2.9750   10.7386   30.0142 C   0  0  1  0  0  0  0  0  0  0  0  0
    3.4540   12.1455   30.2262 C   0  0  0  0  0  0  0  0  0  0  0  0
    2.7443   13.3720   30.1745 C   0  0  0  0  0  0  0  0  0  0  0  0
    3.6932   14.3264   30.4293 C   0  0  0  0  0  0  0  0  0  0  0  0
    4.8951   13.7306   30.6077 O   0  0  0  0  0  0  0  0  0  0  0  0
    4.7524   12.3627   30.4780 N   0  0  0  0  0  0  0  0  0  0  0  0
    1.5102   10.5597   30.3629 C   0  0  0  0  0  0  0  0  0  0  0  0
    1.2504   10.8821   31.6434 F   0  0  0  0  0  0  0  0  0  0  0  0
    1.1197    9.2793   30.1738 F   0  0  0  0  0  0  0  0  0  0  0  0
    0.7244   11.3288   29.5690 F   0  0  0  0  0  0  0  0  0  0  0  0
    6.1635   12.9118   25.9846 C   0  0  0  0  0  0  0  0  0  0  0  0
    7.2067   13.1560   25.1060 C   0  0  0  0  0  0  0  0  0  0  0  0
    8.0731   12.1306   24.6563 C   0  0  0  0  0  0  0  0  0  0  0  0
    9.2037   12.5216   23.9034 N   0  0  0  0  0  0  0  0  0  0  0  0
    9.6769   13.8786   24.0009 C   0  0  0  0  0  0  0  0  0  0  0  0
   11.1481   13.7519   23.7671 C   0  0  0  0  0  0  0  0  0  0  0  0
   11.1724   12.7209   22.6752 C   0  0  0  0  0  0  0  0  0  0  0  0
   10.0702   11.7737   23.0788 C   0  0  0  0  0  0  0  0  0  0  0  0
    9.9977   10.6290   22.6673 O   0  0  0  0  0  0  0  0  0  0  0  0
  1  2  1  0
  2  3  2  0
  3  4  1  0
  4  5  1  0
  5  6  1  0
  6  7  2  0
  6  8  1  0
  9  8  1  6
  9 10  1  0
 10 11  1  0
 11 12  2  0
 12 13  1  0
 13 14  1  0
  9 15  1  0
 15 16  1  0
 15 17  1  0
 15 18  1  0
  4 19  2  0
 19 20  1  0
 20 21  2  0
 21 22  1  0
 22 23  1  0
 23 24  1  0
 24 25  1  0
 25 26  1  0
 26 27  2  0
 21  2  1  0
 26 22  1  0
 14 10  2  0
M  END
>  <energy_score>  (2004) 
-45.199981

>  <inchikey>  (2004) 
POWLVKFCKVTVEY-UHFFFAOYSA-N

>  <smiles>  (2004) 
Cc1cc(NC(=O)CC(c2ccon2)C(F)(F)F)ccc1N1CCCC1=O

>  <ref_pdb>  (2004) 
A1068a

>  <alias>  (2004) 
POWLVKFCKVTVEY-UHFFFAOYSA-N-P37-P37-P120-601513

>  <HIPPO Pose ID>  (2004) 
523330

>  <name>  (2004) 
POWLVKFCKVTVEY-UHFFFAOYSA-N-P37-P37-P120-601513

>  <HIPPO Compound ID>  (2004) 
301825

>  <ref_mols>  (2004) 
A1445a,A0310a

>  <distance_score>  (2004) 
1.801041

>  <inspiration_score>  (2004) 
None

$$$$
BIICXUPOIUOACI-UHFFFAOYSA-N-P37-P37-P120-601513
     RDKit          3D

 28 31  0  0  0  0  0  0  0  0999 V2000
    9.2705   10.4206   23.6591 C   0  0  0  0  0  0  0  0  0  0  0  0
    8.4090   11.2657   24.5344 C   0  0  0  0  0  0  0  0  0  0  0  0
    7.5081   10.6134   25.3942 C   0  0  0  0  0  0  0  0  0  0  0  0
    6.5935   11.3323   26.1603 C   0  0  0  0  0  0  0  0  0  0  0  0
    5.8635   10.6521   27.1315 N   0  0  0  0  0  0  0  0  0  0  0  0
    4.7025   11.1414   28.0541 C   0  0  0  0  0  0  0  0  0  0  0  0
    4.1368   12.1633   28.0808 O   0  0  0  0  0  0  0  0  0  0  0  0
    4.4619   10.0151   29.0806 C   0  0  1  0  0  0  0  0  0  0  0  0
    5.7223    9.9966   30.0274 C   0  0  2  0  0  0  0  0  0  0  0  0
    5.4890    9.0217   31.2017 C   0  0  0  0  0  0  0  0  0  0  0  0
    4.3879    9.5730   32.1235 C   0  0  0  0  0  0  0  0  0  0  0  0
    3.6262   10.7020   31.3881 C   0  0  1  0  0  0  0  0  0  0  0  0
    4.5929   11.8880   31.2450 C   0  0  0  0  0  0  0  0  0  0  0  0
    5.9203   11.4036   30.6430 C   0  0  0  0  0  0  0  0  0  0  0  0
    3.2171   10.1205   30.0072 C   0  0  1  0  0  0  0  0  0  0  0  0
    1.9075   10.6761   29.4848 C   0  0  0  0  0  0  0  0  0  0  0  0
    0.9457   10.4564   30.4204 F   0  0  0  0  0  0  0  0  0  0  0  0
    1.5265   10.0041   28.3737 F   0  0  0  0  0  0  0  0  0  0  0  0
    1.8909   11.9851   29.2199 F   0  0  0  0  0  0  0  0  0  0  0  0
    6.5358   12.7144   26.0252 C   0  0  0  0  0  0  0  0  0  0  0  0
    7.4618   13.3808   25.2112 C   0  0  0  0  0  0  0  0  0  0  0  0
    8.4404   12.6666   24.5086 C   0  0  0  0  0  0  0  0  0  0  0  0
    9.4130   13.3880   23.7817 N   0  0  0  0  0  0  0  0  0  0  0  0
   10.8127   13.4176   24.1397 C   0  0  0  0  0  0  0  0  0  0  0  0
   11.5587   13.4534   22.8239 C   0  0  0  0  0  0  0  0  0  0  0  0
   10.5742   14.1081   21.8772 C   0  0  0  0  0  0  0  0  0  0  0  0
    9.2339   13.6966   22.4346 C   0  0  0  0  0  0  0  0  0  0  0  0
    8.1854   13.6666   21.8075 O   0  0  0  0  0  0  0  0  0  0  0  0
  1  2  1  0
  2  3  2  0
  3  4  1  0
  4  5  1  0
  5  6  1  0
  6  7  2  0
  8  6  1  6
  8  9  1  0
  9 10  1  1
 10 11  1  0
 12 11  1  1
 12 13  1  0
 13 14  1  0
 12 15  1  0
 15 16  1  6
 16 17  1  0
 16 18  1  0
 16 19  1  0
  4 20  2  0
 20 21  1  0
 21 22  2  0
 22 23  1  0
 23 24  1  0
 24 25  1  0
 25 26  1  0
 26 27  1  0
 27 28  2  0
 22  2  1  0
 27 23  1  0
 15  8  1  0
 14  9  1  0
M  END
>  <energy_score>  (2005) 
-16.624263

>  <inchikey>  (2005) 
BIICXUPOIUOACI-UHFFFAOYSA-N

>  <smiles>  (2005) 
Cc1cc(NC(=O)C2C3CCC(CC3)C2C(F)(F)F)ccc1N1CCCC1=O

>  <ref_pdb>  (2005) 
A1068a

>  <alias>  (2005) 
BIICXUPOIUOACI-UHFFFAOYSA-N-P37-P37-P120-601513

>  <HIPPO Pose ID>  (2005) 
523346

>  <name>  (2005) 
BIICXUPOIUOACI-UHFFFAOYSA-N-P37-P37-P120-601513

>  <HIPPO Compound ID>  (2005) 
301833

>  <ref_mols>  (2005) 
A1445a,A0310a

>  <distance_score>  (2005) 
1.692876

>  <inspiration_score>  (2005) 
None

$$$$
SSCUSTRUHCVCGF-UHFFFAOYSA-N-P37-P37-P120-601513
     RDKit          3D

 28 31  0  0  0  0  0  0  0  0999 V2000
    7.8253   14.5052   24.6499 C   0  0  0  0  0  0  0  0  0  0  0  0
    7.9336   13.0542   24.9732 C   0  0  0  0  0  0  0  0  0  0  0  0
    6.9025   12.5201   25.7714 C   0  0  0  0  0  0  0  0  0  0  0  0
    6.7864   11.1570   25.9707 C   0  0  0  0  0  0  0  0  0  0  0  0
    5.8279   10.6397   26.8328 N   0  0  0  0  0  0  0  0  0  0  0  0
    4.8637   11.3619   27.8270 C   0  0  0  0  0  0  0  0  0  0  0  0
    4.6802   12.5029   28.0106 O   0  0  0  0  0  0  0  0  0  0  0  0
    4.1540   10.2868   28.6593 C   0  0  1  0  0  0  0  0  0  0  0  0
    5.1599    9.5347   29.5422 C   0  0  2  0  0  0  0  0  0  0  0  0
    4.5088    8.2957   30.1621 C   0  0  0  0  0  0  0  0  0  0  0  0
    3.6496    8.9015   31.2714 C   0  0  0  0  0  0  0  0  0  0  0  0
    3.8428   10.3964   31.0349 C   0  0  1  0  0  0  0  0  0  0  0  0
    5.2527   10.4038   30.6950 O   0  0  0  0  0  0  0  0  0  0  0  0
    3.2324   10.9143   29.7376 C   0  0  2  0  0  0  0  0  0  0  0  0
    1.7753   10.5901   29.5705 C   0  0  0  0  0  0  0  0  0  0  0  0
    1.0775   10.9405   30.6706 F   0  0  0  0  0  0  0  0  0  0  0  0
    1.5679    9.2744   29.3522 F   0  0  0  0  0  0  0  0  0  0  0  0
    1.2504   11.2465   28.5133 F   0  0  0  0  0  0  0  0  0  0  0  0
    7.6682   10.3211   25.3147 C   0  0  0  0  0  0  0  0  0  0  0  0
    8.7373   10.8489   24.5804 C   0  0  0  0  0  0  0  0  0  0  0  0
    8.9431   12.2324   24.4491 C   0  0  0  0  0  0  0  0  0  0  0  0
   10.0973   12.7663   23.7849 N   0  0  0  0  0  0  0  0  0  0  0  0
   10.7674   13.9399   24.0745 C   0  0  0  0  0  0  0  0  0  0  0  0
   10.7348   14.6505   25.0698 O   0  0  0  0  0  0  0  0  0  0  0  0
   11.7138   14.2293   22.9600 C   0  0  0  0  0  0  0  0  0  0  0  0
   12.0993   12.8355   22.5921 C   0  0  0  0  0  0  0  0  0  0  0  0
   10.8659   12.0336   22.9237 C   0  0  0  0  0  0  0  0  0  0  0  0
   10.6529   10.8872   22.5641 O   0  0  0  0  0  0  0  0  0  0  0  0
  1  2  1  0
  2  3  2  0
  3  4  1  0
  4  5  1  0
  5  6  1  0
  6  7  2  0
  8  6  1  1
  8  9  1  0
  9 10  1  1
 10 11  1  0
 12 11  1  6
 12 13  1  0
 12 14  1  0
 14 15  1  6
 15 16  1  0
 15 17  1  0
 15 18  1  0
  4 19  2  0
 19 20  1  0
 20 21  2  0
 21 22  1  0
 22 23  1  0
 23 24  2  0
 23 25  1  0
 25 26  1  0
 26 27  1  0
 27 28  2  0
 21  2  1  0
 27 22  1  0
 14  8  1  0
 13  9  1  0
M  END
>  <energy_score>  (2006) 
-38.659307

>  <inchikey>  (2006) 
SSCUSTRUHCVCGF-UHFFFAOYSA-N

>  <smiles>  (2006) 
Cc1cc(NC(=O)C2C3CCC(O3)C2C(F)(F)F)ccc1N1C(=O)CCC1=O

>  <ref_pdb>  (2006) 
A1068a

>  <alias>  (2006) 
SSCUSTRUHCVCGF-UHFFFAOYSA-N-P37-P37-P120-601513

>  <HIPPO Pose ID>  (2006) 
523360

>  <name>  (2006) 
SSCUSTRUHCVCGF-UHFFFAOYSA-N-P37-P37-P120-601513

>  <HIPPO Compound ID>  (2006) 
301840

>  <ref_mols>  (2006) 
A1445a,A0310a

>  <distance_score>  (2006) 
1.420608

>  <inspiration_score>  (2006) 
None

$$$$
FCXFXKJTQINMBT-UHFFFAOYSA-N-P37-P37-P120-601513
     RDKit          3D

 29 31  0  0  0  0  0  0  0  0999 V2000
    7.3411   12.0109   32.3126 C   0  0  0  0  0  0  0  0  0  0  0  0
    6.0076   12.0827   31.6646 C   0  0  0  0  0  0  0  0  0  0  0  0
    5.1635   13.1738   31.6366 C   0  0  0  0  0  0  0  0  0  0  0  0
    3.7324   12.7920   30.7843 S   0  0  0  0  0  0  0  0  0  0  0  0
    4.3345   11.2109   30.4821 C   0  0  0  0  0  0  0  0  0  0  0  0
    3.5818   10.1299   29.7162 C   0  0  2  0  0  0  0  0  0  0  0  0
    3.6802    8.9506   30.5959 O   0  0  0  0  0  0  0  0  0  0  0  0
    4.3367    9.6933   28.4320 C   0  0  0  0  0  0  0  0  0  0  0  0
    4.8687   10.8467   27.5942 C   0  0  0  0  0  0  0  0  0  0  0  0
    4.4778   11.9421   27.7223 O   0  0  0  0  0  0  0  0  0  0  0  0
    6.0191   10.2800   26.6983 N   0  0  0  0  0  0  0  0  0  0  0  0
    6.9425   10.9393   25.8863 C   0  0  0  0  0  0  0  0  0  0  0  0
    7.8549   10.2182   25.1307 C   0  0  0  0  0  0  0  0  0  0  0  0
    8.8816   10.8686   24.4285 C   0  0  0  0  0  0  0  0  0  0  0  0
    9.0416   12.2631   24.4790 C   0  0  0  0  0  0  0  0  0  0  0  0
   10.1738   12.8786   23.8628 N   0  0  0  0  0  0  0  0  0  0  0  0
   10.8818   12.2122   22.8180 C   0  0  0  0  0  0  0  0  0  0  0  0
   11.6700   13.3133   22.1524 C   0  0  0  0  0  0  0  0  0  0  0  0
   12.0970   14.1591   23.3187 C   0  0  0  0  0  0  0  0  0  0  0  0
   10.9364   13.9979   24.2711 C   0  0  0  0  0  0  0  0  0  0  0  0
   10.8178   14.7297   25.2425 O   0  0  0  0  0  0  0  0  0  0  0  0
    8.0295   12.9858   25.1244 C   0  0  0  0  0  0  0  0  0  0  0  0
    7.9208   14.4696   25.0264 C   0  0  0  0  0  0  0  0  0  0  0  0
    7.0109   12.3225   25.8456 C   0  0  0  0  0  0  0  0  0  0  0  0
    2.0861   10.4288   29.4774 C   0  0  0  0  0  0  0  0  0  0  0  0
    1.4311   10.6955   30.6354 F   0  0  0  0  0  0  0  0  0  0  0  0
    1.4649    9.3505   28.9272 F   0  0  0  0  0  0  0  0  0  0  0  0
    1.8506   11.4551   28.6333 F   0  0  0  0  0  0  0  0  0  0  0  0
    5.5222   10.9582   31.0155 N   0  0  0  0  0  0  0  0  0  0  0  0
  1  2  1  0
  2  3  2  0
  3  4  1  0
  4  5  1  0
  5  6  1  0
  6  7  1  1
  6  8  1  0
  8  9  1  0
  9 10  2  0
  9 11  1  0
 11 12  1  0
 12 13  2  0
 13 14  1  0
 14 15  2  0
 15 16  1  0
 16 17  1  0
 17 18  1  0
 18 19  1  0
 19 20  1  0
 20 21  2  0
 15 22  1  0
 22 23  1  0
 22 24  2  0
  6 25  1  0
 25 26  1  0
 25 27  1  0
 25 28  1  0
  5 29  2  0
 29  2  1  0
 24 12  1  0
 20 16  1  0
M  END
>  <energy_score>  (2007) 
-49.599336

>  <inchikey>  (2007) 
FCXFXKJTQINMBT-UHFFFAOYSA-N

>  <smiles>  (2007) 
Cc1csc(C(O)(CC(=O)Nc2ccc(N3CCCC3=O)c(C)c2)C(F)(F)F)n1

>  <ref_pdb>  (2007) 
A1068a

>  <alias>  (2007) 
FCXFXKJTQINMBT-UHFFFAOYSA-N-P37-P37-P120-601513

>  <HIPPO Pose ID>  (2007) 
523378

>  <name>  (2007) 
FCXFXKJTQINMBT-UHFFFAOYSA-N-P37-P37-P120-601513

>  <HIPPO Compound ID>  (2007) 
301849

>  <ref_mols>  (2007) 
A1445a,A0310a

>  <distance_score>  (2007) 
1.457857

>  <inspiration_score>  (2007) 
None

$$$$
LCTZQUCRLZLOMB-UHFFFAOYSA-N-P120-P37-P120-601513
     RDKit          3D

 29 31  0  0  0  0  0  0  0  0999 V2000
    4.6909   13.3266   32.7951 C   0  0  0  0  0  0  0  0  0  0  0  0
    3.8386   13.2754   31.5975 C   0  0  0  0  0  0  0  0  0  0  0  0
    2.9983   14.1624   30.9668 C   0  0  0  0  0  0  0  0  0  0  0  0
    2.4387   13.5751   29.8610 N   0  0  0  0  0  0  0  0  0  0  0  0
    2.9715   12.3656   29.8485 C   0  0  0  0  0  0  0  0  0  0  0  0
    2.7073   11.2657   28.8597 C   0  0  1  0  0  0  0  0  0  0  0  0
    2.0811   11.8753   27.6842 O   0  0  0  0  0  0  0  0  0  0  0  0
    3.9603   10.5188   28.3630 C   0  0  0  0  0  0  0  0  0  0  0  0
    4.9588   11.5085   27.7589 C   0  0  0  0  0  0  0  0  0  0  0  0
    5.0986   12.5692   28.2320 O   0  0  0  0  0  0  0  0  0  0  0  0
    5.6653   10.8474   26.5369 N   0  0  0  0  0  0  0  0  0  0  0  0
    6.5810   11.3733   25.6299 C   0  0  0  0  0  0  0  0  0  0  0  0
    7.4293   10.6071   24.8554 C   0  0  0  0  0  0  0  0  0  0  0  0
    8.4735   11.2503   24.1506 C   0  0  0  0  0  0  0  0  0  0  0  0
    8.6627   12.6577   24.1661 C   0  0  0  0  0  0  0  0  0  0  0  0
    9.7864   13.2716   23.5316 N   0  0  0  0  0  0  0  0  0  0  0  0
   10.8647   12.4967   23.0321 C   0  0  0  0  0  0  0  0  0  0  0  0
   11.8925   13.4598   22.4808 C   0  0  0  0  0  0  0  0  0  0  0  0
   11.1767   14.7707   22.4356 C   0  0  0  0  0  0  0  0  0  0  0  0
   10.3261   14.5692   23.6468 C   0  0  0  0  0  0  0  0  0  0  0  0
   10.2981   15.3513   24.5778 O   0  0  0  0  0  0  0  0  0  0  0  0
    7.6583   13.4071   24.7733 C   0  0  0  0  0  0  0  0  0  0  0  0
    7.5341   14.8924   24.6703 C   0  0  0  0  0  0  0  0  0  0  0  0
    6.6772   12.7592   25.5450 C   0  0  0  0  0  0  0  0  0  0  0  0
    1.7018   10.3296   29.5432 C   0  0  0  0  0  0  0  0  0  0  0  0
    2.0965    9.9298   30.7739 F   0  0  0  0  0  0  0  0  0  0  0  0
    1.4775    9.2051   28.8225 F   0  0  0  0  0  0  0  0  0  0  0  0
    0.5005   10.9420   29.6881 F   0  0  0  0  0  0  0  0  0  0  0  0
    3.8245   12.1068   30.8883 O   0  0  0  0  0  0  0  0  0  0  0  0
  1  2  1  0
  2  3  2  0
  3  4  1  0
  4  5  2  0
  5  6  1  0
  6  7  1  6
  6  8  1  0
  8  9  1  0
  9 10  2  0
  9 11  1  0
 11 12  1  0
 12 13  2  0
 13 14  1  0
 14 15  2  0
 15 16  1  0
 16 17  1  0
 17 18  1  0
 18 19  1  0
 19 20  1  0
 20 21  2  0
 15 22  1  0
 22 23  1  0
 22 24  2  0
  6 25  1  0
 25 26  1  0
 25 27  1  0
 25 28  1  0
  5 29  1  0
 29  2  1  0
 24 12  1  0
 20 16  1  0
M  END
>  <energy_score>  (2008) 
-42.423736

>  <inchikey>  (2008) 
LCTZQUCRLZLOMB-UHFFFAOYSA-N

>  <smiles>  (2008) 
Cc1cnc(C(O)(CC(=O)Nc2ccc(N3CCCC3=O)c(C)c2)C(F)(F)F)o1

>  <ref_pdb>  (2008) 
A1068a

>  <alias>  (2008) 
LCTZQUCRLZLOMB-UHFFFAOYSA-N-P120-P37-P120-601513

>  <HIPPO Pose ID>  (2008) 
523381

>  <name>  (2008) 
LCTZQUCRLZLOMB-UHFFFAOYSA-N-P120-P37-P120-601513

>  <HIPPO Compound ID>  (2008) 
301850

>  <ref_mols>  (2008) 
A1445a,A0310a

>  <distance_score>  (2008) 
1.422532

>  <inspiration_score>  (2008) 
None

$$$$
RWRUCVBUNDSZTI-UHFFFAOYSA-N-P120-P37-P120-601513
     RDKit          3D

 29 32  0  0  0  0  0  0  0  0999 V2000
    8.3076   10.2648   23.8276 C   0  0  0  0  0  0  0  0  0  0  0  0
    7.8121   11.4790   24.5465 C   0  0  0  0  0  0  0  0  0  0  0  0
    6.7444   11.1237   25.3964 C   0  0  0  0  0  0  0  0  0  0  0  0
    6.0988   12.0524   26.1849 C   0  0  0  0  0  0  0  0  0  0  0  0
    5.2127   11.5367   27.1175 N   0  0  0  0  0  0  0  0  0  0  0  0
    4.4637   12.2303   28.2876 C   0  0  0  0  0  0  0  0  0  0  0  0
    4.4193   13.3554   28.5959 O   0  0  0  0  0  0  0  0  0  0  0  0
    3.8232   11.0807   29.0934 C   0  0  1  0  0  0  0  0  0  0  0  0
    4.9365   10.3359   29.8995 C   0  0  1  0  0  0  0  0  0  0  0  0
    5.6334   11.3179   30.8640 C   0  0  0  0  0  0  0  0  0  0  0  0
    4.5820   12.0169   31.7344 C   0  0  0  0  0  0  0  0  0  0  0  0
    3.2080   11.3478   31.5334 C   0  0  2  0  0  0  0  0  0  0  0  0
    3.3697    9.8457   31.8136 C   0  0  0  0  0  0  0  0  0  0  0  0
    4.2906    9.2281   30.7574 C   0  0  0  0  0  0  0  0  0  0  0  0
    2.7420   11.5814   30.0768 C   0  0  2  0  0  0  0  0  0  0  0  0
    1.4076   10.9155   29.7752 C   0  0  0  0  0  0  0  0  0  0  0  0
    0.5246   11.1528   30.7653 F   0  0  0  0  0  0  0  0  0  0  0  0
    1.5052    9.5758   29.6310 F   0  0  0  0  0  0  0  0  0  0  0  0
    0.8865   11.3964   28.6258 F   0  0  0  0  0  0  0  0  0  0  0  0
    6.4563   13.3828   26.0743 C   0  0  0  0  0  0  0  0  0  0  0  0
    7.5315   13.7626   25.2412 C   0  0  0  0  0  0  0  0  0  0  0  0
    8.2928   12.8252   24.5075 C   0  0  0  0  0  0  0  0  0  0  0  0
    9.4403   13.2980   23.7555 N   0  0  0  0  0  0  0  0  0  0  0  0
   10.4324   12.5034   23.2838 C   0  0  0  0  0  0  0  0  0  0  0  0
   10.5716   11.3176   23.5048 O   0  0  0  0  0  0  0  0  0  0  0  0
   11.5150   13.3187   22.6334 C   0  0  0  0  0  0  0  0  0  0  0  0
   10.8895   14.6714   22.5902 C   0  0  0  0  0  0  0  0  0  0  0  0
   10.0630   14.5223   23.8223 C   0  0  0  0  0  0  0  0  0  0  0  0
   10.2024   15.2736   24.7720 O   0  0  0  0  0  0  0  0  0  0  0  0
  1  2  1  0
  2  3  2  0
  3  4  1  0
  4  5  1  0
  5  6  1  0
  6  7  2  0
  8  6  1  1
  8  9  1  0
  9 10  1  1
 10 11  1  0
 12 11  1  6
 12 13  1  0
 13 14  1  0
 12 15  1  0
 15 16  1  6
 16 17  1  0
 16 18  1  0
 16 19  1  0
  4 20  2  0
 20 21  1  0
 21 22  2  0
 22 23  1  0
 23 24  1  0
 24 25  2  0
 24 26  1  0
 26 27  1  0
 27 28  1  0
 28 29  2  0
 22  2  1  0
 28 23  1  0
 15  8  1  0
 14  9  1  0
M  END
>  <energy_score>  (2009) 
-40.366451

>  <inchikey>  (2009) 
RWRUCVBUNDSZTI-UHFFFAOYSA-N

>  <smiles>  (2009) 
Cc1cc(NC(=O)C2C3CCC(CC3)C2C(F)(F)F)ccc1N1C(=O)CCC1=O

>  <ref_pdb>  (2009) 
A1068a

>  <alias>  (2009) 
RWRUCVBUNDSZTI-UHFFFAOYSA-N-P120-P37-P120-601513

>  <HIPPO Pose ID>  (2009) 
523393

>  <name>  (2009) 
RWRUCVBUNDSZTI-UHFFFAOYSA-N-P120-P37-P120-601513

>  <HIPPO Compound ID>  (2009) 
301856

>  <ref_mols>  (2009) 
A1445a,A0310a

>  <distance_score>  (2009) 
1.592028

>  <inspiration_score>  (2009) 
None

$$$$
LRLHWDJXBOPSGQ-UHFFFAOYSA-N-P37-P37-P120-601513
     RDKit          3D

 30 32  0  0  0  0  0  0  0  0999 V2000
    4.7673   15.2773   30.7795 C   0  0  0  0  0  0  0  0  0  0  0  0
    4.3218   14.1889   29.8945 C   0  0  0  0  0  0  0  0  0  0  0  0
    3.9658   14.0990   28.5703 C   0  0  0  0  0  0  0  0  0  0  0  0
    3.6286   12.8031   28.2632 N   0  0  0  0  0  0  0  0  0  0  0  0
    3.7533   12.1635   29.4140 C   0  0  0  0  0  0  0  0  0  0  0  0
    3.5096   10.7120   29.6898 C   0  0  2  0  0  0  0  0  0  0  0  0
    4.2281   10.3214   30.8839 O   0  0  0  0  0  0  0  0  0  0  0  0
    3.9692    9.8295   28.5302 C   0  0  0  0  0  0  0  0  0  0  0  0
    5.4270    9.9928   28.1065 C   0  0  0  0  0  0  0  0  0  0  0  0
    6.2589    9.2973   28.5433 O   0  0  0  0  0  0  0  0  0  0  0  0
    5.5064   11.0918   27.0079 N   0  0  0  0  0  0  0  0  0  0  0  0
    6.5619   11.4752   26.1911 C   0  0  0  0  0  0  0  0  0  0  0  0
    7.5019   10.5707   25.7229 C   0  0  0  0  0  0  0  0  0  0  0  0
    8.5852   10.9946   24.9365 C   0  0  0  0  0  0  0  0  0  0  0  0
    8.7860   12.3516   24.6571 C   0  0  0  0  0  0  0  0  0  0  0  0
    9.9699   12.8079   24.0012 N   0  0  0  0  0  0  0  0  0  0  0  0
   10.7520   13.9022   24.3212 C   0  0  0  0  0  0  0  0  0  0  0  0
   10.6534   14.7047   25.2412 O   0  0  0  0  0  0  0  0  0  0  0  0
   11.9263   13.9591   23.3983 C   0  0  0  0  0  0  0  0  0  0  0  0
   11.5174   13.0397   22.2921 C   0  0  0  0  0  0  0  0  0  0  0  0
   10.4855   12.1486   22.9208 C   0  0  0  0  0  0  0  0  0  0  0  0
   10.1015   11.0753   22.4896 O   0  0  0  0  0  0  0  0  0  0  0  0
    7.7433   13.2236   25.0025 C   0  0  0  0  0  0  0  0  0  0  0  0
    7.6945   14.6208   24.4963 C   0  0  0  0  0  0  0  0  0  0  0  0
    6.6434   12.7855   25.7657 C   0  0  0  0  0  0  0  0  0  0  0  0
    1.9832   10.5240   29.8604 C   0  0  0  0  0  0  0  0  0  0  0  0
    1.5072   11.1071   30.9831 F   0  0  0  0  0  0  0  0  0  0  0  0
    1.6459    9.2115   29.9169 F   0  0  0  0  0  0  0  0  0  0  0  0
    1.2887   11.0394   28.8121 F   0  0  0  0  0  0  0  0  0  0  0  0
    4.2021   12.9444   30.4449 O   0  0  0  0  0  0  0  0  0  0  0  0
  1  2  1  0
  2  3  2  0
  3  4  1  0
  4  5  2  0
  5  6  1  0
  6  7  1  1
  6  8  1  0
  8  9  1  0
  9 10  2  0
  9 11  1  0
 11 12  1  0
 12 13  2  0
 13 14  1  0
 14 15  2  0
 15 16  1  0
 16 17  1  0
 17 18  2  0
 17 19  1  0
 19 20  1  0
 20 21  1  0
 21 22  2  0
 15 23  1  0
 23 24  1  0
 23 25  2  0
  6 26  1  0
 26 27  1  0
 26 28  1  0
 26 29  1  0
  5 30  1  0
 30  2  1  0
 25 12  1  0
 21 16  1  0
M  END
>  <energy_score>  (2010) 
-36.679718

>  <inchikey>  (2010) 
LRLHWDJXBOPSGQ-UHFFFAOYSA-N

>  <smiles>  (2010) 
Cc1cnc(C(O)(CC(=O)Nc2ccc(N3C(=O)CCC3=O)c(C)c2)C(F)(F)F)o1

>  <ref_pdb>  (2010) 
A1068a

>  <alias>  (2010) 
LRLHWDJXBOPSGQ-UHFFFAOYSA-N-P37-P37-P120-601513

>  <HIPPO Pose ID>  (2010) 
523396

>  <name>  (2010) 
LRLHWDJXBOPSGQ-UHFFFAOYSA-N-P37-P37-P120-601513

>  <HIPPO Compound ID>  (2010) 
301858

>  <ref_mols>  (2010) 
A1445a,A0310a

>  <distance_score>  (2010) 
1.466041

>  <inspiration_score>  (2010) 
None

$$$$
UHBJOEILNAYTGK-UHFFFAOYSA-N-P37-P37-P198-601513
     RDKit          3D

 20 22  0  0  0  0  0  0  0  0999 V2000
    1.4350   14.0734   26.6667 C   0  0  0  0  0  0  0  0  0  0  0  0
    2.5349   13.8437   27.6974 C   0  0  1  0  0  0  0  0  0  0  0  0
    3.7221   13.3013   27.0743 N   0  0  0  0  0  0  0  0  0  0  0  0
    4.5823   12.0867   27.4542 C   0  0  0  0  0  0  0  0  0  0  0  0
    4.4299   11.2836   28.2830 O   0  0  0  0  0  0  0  0  0  0  0  0
    5.7647   11.9993   26.5280 C   0  0  0  0  0  0  0  0  0  0  0  0
    6.3653   10.7721   26.2994 C   0  0  0  0  0  0  0  0  0  0  0  0
    7.3993   10.7251   25.3733 C   0  0  0  0  0  0  0  0  0  0  0  0
    7.8262   11.8817   24.7380 C   0  0  0  0  0  0  0  0  0  0  0  0
    7.1749   13.0684   25.0430 C   0  0  0  0  0  0  0  0  0  0  0  0
    6.1440   13.1589   25.9195 N   0  0  0  0  0  0  0  0  0  0  0  0
    8.8856   11.8242   23.8326 N   0  0  0  0  0  0  0  0  0  0  0  0
    9.4618   10.6381   23.4740 C   0  0  0  0  0  0  0  0  0  0  0  0
   10.4095   10.5796   22.7057 O   0  0  0  0  0  0  0  0  0  0  0  0
    8.8218    9.4010   24.0260 C   0  0  0  0  0  0  0  0  0  0  0  0
    7.9701    9.5128   25.1513 O   0  0  0  0  0  0  0  0  0  0  0  0
    2.9095   15.1204   28.4193 C   0  0  0  0  0  0  0  0  0  0  0  0
    3.5986   16.0996   27.6178 O   0  0  0  0  0  0  0  0  0  0  0  0
    3.3438   15.0693   29.8620 C   0  0  0  0  0  0  0  0  0  0  0  0
    2.0194   15.6795   29.4960 C   0  0  0  0  0  0  0  0  0  0  0  0
  2  1  1  6
  2  3  1  0
  3  4  1  0
  4  5  2  0
  4  6  1  0
  6  7  2  0
  7  8  1  0
  8  9  2  0
  9 10  1  0
 10 11  2  0
  9 12  1  0
 12 13  1  0
 13 14  2  0
 13 15  1  0
 15 16  1  0
  2 17  1  0
 17 18  1  0
 17 19  1  0
 19 20  1  0
 11  6  1  0
 20 17  1  0
 16  8  1  0
M  END
>  <energy_score>  (2011) 
-15.844087

>  <inchikey>  (2011) 
UHBJOEILNAYTGK-UHFFFAOYSA-N

>  <smiles>  (2011) 
CC(NC(=O)c1cc2c(cn1)NC(=O)CO2)C1(O)CC1

>  <ref_pdb>  (2011) 
A1068a

>  <alias>  (2011) 
UHBJOEILNAYTGK-UHFFFAOYSA-N-P37-P37-P198-601513

>  <HIPPO Pose ID>  (2011) 
523496

>  <name>  (2011) 
UHBJOEILNAYTGK-UHFFFAOYSA-N-P37-P37-P198-601513

>  <HIPPO Compound ID>  (2011) 
302206

>  <ref_mols>  (2011) 
A0310a,A3618a

>  <distance_score>  (2011) 
1.855417

>  <inspiration_score>  (2011) 
None

$$$$
YBVLTUOSBQQSQG-UHFFFAOYSA-N-P37-P37-P198-601513
     RDKit          3D

 20 22  0  0  0  0  0  0  0  0999 V2000
    1.4413   15.7796   26.3184 N   0  0  0  0  0  0  0  0  0  0  0  0
    1.8864   14.9191   26.9600 C   0  0  0  0  0  0  0  0  0  0  0  0
    2.4891   13.8277   27.7509 C   0  0  2  0  0  0  0  0  0  0  0  0
    3.7464   13.3743   27.1930 N   0  0  0  0  0  0  0  0  0  0  0  0
    4.5994   12.1388   27.5259 C   0  0  0  0  0  0  0  0  0  0  0  0
    4.4665   11.3304   28.3537 O   0  0  0  0  0  0  0  0  0  0  0  0
    5.7477   12.0295   26.5555 C   0  0  0  0  0  0  0  0  0  0  0  0
    6.3665   10.8055   26.3503 C   0  0  0  0  0  0  0  0  0  0  0  0
    7.3905   10.7485   25.4117 C   0  0  0  0  0  0  0  0  0  0  0  0
    7.7882   11.8938   24.7369 C   0  0  0  0  0  0  0  0  0  0  0  0
    7.1145   13.0752   25.0128 C   0  0  0  0  0  0  0  0  0  0  0  0
    6.0908   13.1708   25.8985 N   0  0  0  0  0  0  0  0  0  0  0  0
    8.8419   11.8307   23.8241 N   0  0  0  0  0  0  0  0  0  0  0  0
    9.4318   10.6441   23.4881 C   0  0  0  0  0  0  0  0  0  0  0  0
   10.3713   10.5748   22.7107 O   0  0  0  0  0  0  0  0  0  0  0  0
    8.8089    9.4148   24.0757 C   0  0  0  0  0  0  0  0  0  0  0  0
    7.9954    9.5441   25.2289 O   0  0  0  0  0  0  0  0  0  0  0  0
    1.4498   12.7455   27.6843 C   0  0  0  0  0  0  0  0  0  0  0  0
    1.3686   11.6708   28.7453 C   0  0  0  0  0  0  0  0  0  0  0  0
    0.2974   12.7186   28.6650 C   0  0  0  0  0  0  0  0  0  0  0  0
  1  2  3  0
  3  2  1  6
  3  4  1  0
  4  5  1  0
  5  6  2  0
  5  7  1  0
  7  8  2  0
  8  9  1  0
  9 10  2  0
 10 11  1  0
 11 12  2  0
 10 13  1  0
 13 14  1  0
 14 15  2  0
 14 16  1  0
 16 17  1  0
  3 18  1  0
 18 19  1  0
 19 20  1  0
 12  7  1  0
 20 18  1  0
 17  9  1  0
M  END
>  <energy_score>  (2012) 
-7.748566

>  <inchikey>  (2012) 
YBVLTUOSBQQSQG-UHFFFAOYSA-N

>  <smiles>  (2012) 
N#CC(NC(=O)c1cc2c(cn1)NC(=O)CO2)C1CC1

>  <ref_pdb>  (2012) 
A1068a

>  <alias>  (2012) 
YBVLTUOSBQQSQG-UHFFFAOYSA-N-P37-P37-P198-601513

>  <HIPPO Pose ID>  (2012) 
523498

>  <name>  (2012) 
YBVLTUOSBQQSQG-UHFFFAOYSA-N-P37-P37-P198-601513

>  <HIPPO Compound ID>  (2012) 
302207

>  <ref_mols>  (2012) 
A0310a,A3618a

>  <distance_score>  (2012) 
1.574002

>  <inspiration_score>  (2012) 
None

$$$$
RQPHSNWYTUPFAW-UHFFFAOYSA-N-P37-P37-P198-601513
     RDKit          3D

 20 22  0  0  0  0  0  0  0  0999 V2000
    1.5675   15.3683   26.9798 C   0  0  0  0  0  0  0  0  0  0  0  0
    1.6160   14.0291   26.9449 C   0  0  0  0  0  0  0  0  0  0  0  0
    2.3698   13.1722   27.9398 C   0  0  2  0  0  0  0  0  0  0  0  0
    3.5830   12.7768   27.2599 N   0  0  0  0  0  0  0  0  0  0  0  0
    4.7838   11.9475   27.7555 C   0  0  0  0  0  0  0  0  0  0  0  0
    4.9505   11.3872   28.7644 O   0  0  0  0  0  0  0  0  0  0  0  0
    5.8291   11.8713   26.6843 C   0  0  0  0  0  0  0  0  0  0  0  0
    6.4383   10.6570   26.4151 C   0  0  0  0  0  0  0  0  0  0  0  0
    7.4108   10.6265   25.4223 C   0  0  0  0  0  0  0  0  0  0  0  0
    7.7735   11.7948   24.7679 C   0  0  0  0  0  0  0  0  0  0  0  0
    7.0925   12.9607   25.0926 C   0  0  0  0  0  0  0  0  0  0  0  0
    6.1064   13.0245   26.0217 N   0  0  0  0  0  0  0  0  0  0  0  0
    8.8049   11.7716   23.8296 N   0  0  0  0  0  0  0  0  0  0  0  0
    9.4130   10.6057   23.4582 C   0  0  0  0  0  0  0  0  0  0  0  0
   10.3380   10.5759   22.6615 O   0  0  0  0  0  0  0  0  0  0  0  0
    8.8257    9.3483   24.0219 C   0  0  0  0  0  0  0  0  0  0  0  0
    7.9998    9.4253   25.1696 O   0  0  0  0  0  0  0  0  0  0  0  0
    1.5034   12.0385   28.4538 C   0  0  0  0  0  0  0  0  0  0  0  0
    1.8616   11.3881   29.7726 C   0  0  0  0  0  0  0  0  0  0  0  0
    1.8537   10.5653   28.5197 C   0  0  0  0  0  0  0  0  0  0  0  0
  1  2  2  0
  2  3  1  0
  3  4  1  6
  4  5  1  0
  5  6  2  0
  5  7  1  0
  7  8  2  0
  8  9  1  0
  9 10  2  0
 10 11  1  0
 11 12  2  0
 10 13  1  0
 13 14  1  0
 14 15  2  0
 14 16  1  0
 16 17  1  0
  3 18  1  0
 18 19  1  0
 19 20  1  0
 12  7  1  0
 20 18  1  0
 17  9  1  0
M  END
>  <energy_score>  (2013) 
-5.248101

>  <inchikey>  (2013) 
RQPHSNWYTUPFAW-UHFFFAOYSA-N

>  <smiles>  (2013) 
C=CC(NC(=O)c1cc2c(cn1)NC(=O)CO2)C1CC1

>  <ref_pdb>  (2013) 
A1068a

>  <alias>  (2013) 
RQPHSNWYTUPFAW-UHFFFAOYSA-N-P37-P37-P198-601513

>  <HIPPO Pose ID>  (2013) 
523500

>  <name>  (2013) 
RQPHSNWYTUPFAW-UHFFFAOYSA-N-P37-P37-P198-601513

>  <HIPPO Compound ID>  (2013) 
302208

>  <ref_mols>  (2013) 
A0310a,A3618a

>  <distance_score>  (2013) 
1.773025

>  <inspiration_score>  (2013) 
None

$$$$
FEQAOEDYHVWQHA-UHFFFAOYSA-N-P37-P37-P198-601513
     RDKit          3D

 20 22  0  0  0  0  0  0  0  0999 V2000
   10.3738   10.4409   22.6904 O   0  0  0  0  0  0  0  0  0  0  0  0
    9.4531   10.5300   23.4882 C   0  0  0  0  0  0  0  0  0  0  0  0
    8.7717    9.3153   24.0392 C   0  0  0  0  0  0  0  0  0  0  0  0
    7.9002    9.4428   25.1490 O   0  0  0  0  0  0  0  0  0  0  0  0
    7.3706   10.6778   25.3721 C   0  0  0  0  0  0  0  0  0  0  0  0
    6.2979   10.7630   26.2562 C   0  0  0  0  0  0  0  0  0  0  0  0
    5.7373   12.0143   26.4764 C   0  0  0  0  0  0  0  0  0  0  0  0
    4.4985   12.1561   27.3338 C   0  0  0  0  0  0  0  0  0  0  0  0
    4.1472   11.2715   28.0072 O   0  0  0  0  0  0  0  0  0  0  0  0
    3.9033   13.5654   27.1448 N   0  0  0  0  0  0  0  0  0  0  0  0
    2.6889   14.1543   27.6756 C   0  0  1  0  0  0  0  0  0  0  0  0
    1.4072   13.8407   26.8664 C   0  0  0  0  0  0  0  0  0  0  0  0
    0.9609   12.4883   26.9673 O   0  0  0  0  0  0  0  0  0  0  0  0
    2.5402   13.8215   29.1341 C   0  0  0  0  0  0  0  0  0  0  0  0
    3.4241   14.4786   30.1665 C   0  0  0  0  0  0  0  0  0  0  0  0
    1.9623   14.8239   30.1033 C   0  0  0  0  0  0  0  0  0  0  0  0
    6.2110   13.1631   25.9112 N   0  0  0  0  0  0  0  0  0  0  0  0
    7.2669   13.0347   25.0719 C   0  0  0  0  0  0  0  0  0  0  0  0
    7.8688   11.8229   24.7666 C   0  0  0  0  0  0  0  0  0  0  0  0
    8.9400   11.7337   23.8780 N   0  0  0  0  0  0  0  0  0  0  0  0
  1  2  2  0
  2  3  1  0
  3  4  1  0
  4  5  1  0
  5  6  2  0
  6  7  1  0
  7  8  1  0
  8  9  2  0
  8 10  1  0
 10 11  1  0
 11 12  1  6
 12 13  1  0
 11 14  1  0
 14 15  1  0
 15 16  1  0
  7 17  2  0
 17 18  1  0
 18 19  2  0
 19 20  1  0
 20  2  1  0
 19  5  1  0
 16 14  1  0
M  END
>  <energy_score>  (2014) 
-12.295077

>  <inchikey>  (2014) 
FEQAOEDYHVWQHA-UHFFFAOYSA-N

>  <smiles>  (2014) 
O=C1COc2cc(C(=O)NC(CO)C3CC3)ncc2N1

>  <ref_pdb>  (2014) 
A1068a

>  <alias>  (2014) 
FEQAOEDYHVWQHA-UHFFFAOYSA-N-P37-P37-P198-601513

>  <HIPPO Pose ID>  (2014) 
523514

>  <name>  (2014) 
FEQAOEDYHVWQHA-UHFFFAOYSA-N-P37-P37-P198-601513

>  <HIPPO Compound ID>  (2014) 
302215

>  <ref_mols>  (2014) 
A0310a,A3618a

>  <distance_score>  (2014) 
1.613721

>  <inspiration_score>  (2014) 
None

$$$$
BMTDYDBPJGCXGY-UHFFFAOYSA-N-P37-P37-P198-601513
     RDKit          3D

 20 22  0  0  0  0  0  0  0  0999 V2000
    1.4336   13.9917   26.9068 C   0  0  0  0  0  0  0  0  0  0  0  0
    2.3889   14.7295   25.9511 C   0  0  0  0  0  0  0  0  0  0  0  0
    1.7471   14.7087   24.5504 C   0  0  0  0  0  0  0  0  0  0  0  0
    3.6654   14.0261   25.8572 N   0  0  0  0  0  0  0  0  0  0  0  0
    4.5872   13.4693   26.9632 C   0  0  0  0  0  0  0  0  0  0  0  0
    4.5105   13.5523   28.1242 O   0  0  0  0  0  0  0  0  0  0  0  0
    5.6725   12.6222   26.3756 C   0  0  0  0  0  0  0  0  0  0  0  0
    6.5564   13.0832   25.4174 C   0  0  0  0  0  0  0  0  0  0  0  0
    7.4846   12.1840   24.8878 C   0  0  0  0  0  0  0  0  0  0  0  0
    7.4845   10.8625   25.2986 C   0  0  0  0  0  0  0  0  0  0  0  0
    6.5630   10.5057   26.2609 C   0  0  0  0  0  0  0  0  0  0  0  0
    5.6662   11.3459   26.8109 N   0  0  0  0  0  0  0  0  0  0  0  0
    8.3267    9.9276   24.6973 N   0  0  0  0  0  0  0  0  0  0  0  0
    9.2485   10.3012   23.7548 C   0  0  0  0  0  0  0  0  0  0  0  0
    9.8949    9.4763   23.1215 O   0  0  0  0  0  0  0  0  0  0  0  0
    9.4372   11.8122   23.6335 C   0  0  0  0  0  0  0  0  0  0  0  0
    8.3114   12.6487   23.9013 O   0  0  0  0  0  0  0  0  0  0  0  0
    2.5511   16.1753   26.3952 C   0  0  0  0  0  0  0  0  0  0  0  0
    3.2004   16.5667   27.7042 C   0  0  0  0  0  0  0  0  0  0  0  0
    3.8759   16.9066   26.4074 C   0  0  0  0  0  0  0  0  0  0  0  0
  1  2  1  0
  2  3  1  0
  2  4  1  0
  4  5  1  0
  5  6  2  0
  5  7  1  0
  7  8  2  0
  8  9  1  0
  9 10  2  0
 10 11  1  0
 11 12  2  0
 10 13  1  0
 13 14  1  0
 14 15  2  0
 14 16  1  0
 16 17  1  0
  2 18  1  0
 18 19  1  0
 19 20  1  0
 12  7  1  0
 20 18  1  0
 17  9  1  0
M  END
>  <energy_score>  (2015) 
-6.523046

>  <inchikey>  (2015) 
BMTDYDBPJGCXGY-UHFFFAOYSA-N

>  <smiles>  (2015) 
CC(C)(NC(=O)c1cc2c(cn1)NC(=O)CO2)C1CC1

>  <ref_pdb>  (2015) 
A1068a

>  <alias>  (2015) 
BMTDYDBPJGCXGY-UHFFFAOYSA-N-P37-P37-P198-601513

>  <HIPPO Pose ID>  (2015) 
523516

>  <name>  (2015) 
BMTDYDBPJGCXGY-UHFFFAOYSA-N-P37-P37-P198-601513

>  <HIPPO Compound ID>  (2015) 
302216

>  <ref_mols>  (2015) 
A0310a,A3618a

>  <distance_score>  (2015) 
1.924763

>  <inspiration_score>  (2015) 
None

$$$$
AVMXAQCSXKWKQT-UHFFFAOYSA-N-P37-P37-P198-601513
     RDKit          3D

 20 22  0  0  0  0  0  0  0  0999 V2000
    0.7819   13.3287   27.1957 C   0  0  0  0  0  0  0  0  0  0  0  0
    1.8497   13.8656   27.3073 C   0  0  0  0  0  0  0  0  0  0  0  0
    3.1220   14.5607   27.5335 C   0  0  2  0  0  0  0  0  0  0  0  0
    4.2496   13.8597   26.9976 N   0  0  0  0  0  0  0  0  0  0  0  0
    4.7194   12.4107   27.2111 C   0  0  0  0  0  0  0  0  0  0  0  0
    4.3080   11.5795   27.9163 O   0  0  0  0  0  0  0  0  0  0  0  0
    5.9300   12.1555   26.3485 C   0  0  0  0  0  0  0  0  0  0  0  0
    6.4098   10.8668   26.1690 C   0  0  0  0  0  0  0  0  0  0  0  0
    7.4725   10.6957   25.2878 C   0  0  0  0  0  0  0  0  0  0  0  0
    8.0363   11.7917   24.6468 C   0  0  0  0  0  0  0  0  0  0  0  0
    7.5102   13.0450   24.9138 C   0  0  0  0  0  0  0  0  0  0  0  0
    6.4695   13.2575   25.7505 N   0  0  0  0  0  0  0  0  0  0  0  0
    9.0936   11.6150   23.7561 N   0  0  0  0  0  0  0  0  0  0  0  0
    9.5192   10.3725   23.3883 C   0  0  0  0  0  0  0  0  0  0  0  0
   10.4020   10.2006   22.5628 O   0  0  0  0  0  0  0  0  0  0  0  0
    8.7816    9.2199   23.9927 C   0  0  0  0  0  0  0  0  0  0  0  0
    7.9258    9.4255   25.1019 O   0  0  0  0  0  0  0  0  0  0  0  0
    3.2471   14.6719   29.0248 C   0  0  0  0  0  0  0  0  0  0  0  0
    4.1529   15.7161   29.6371 C   0  0  0  0  0  0  0  0  0  0  0  0
    2.6621   15.8481   29.7726 C   0  0  0  0  0  0  0  0  0  0  0  0
  1  2  3  0
  3  2  1  1
  3  4  1  0
  4  5  1  0
  5  6  2  0
  5  7  1  0
  7  8  2  0
  8  9  1  0
  9 10  2  0
 10 11  1  0
 11 12  2  0
 10 13  1  0
 13 14  1  0
 14 15  2  0
 14 16  1  0
 16 17  1  0
  3 18  1  0
 18 19  1  0
 19 20  1  0
 12  7  1  0
 20 18  1  0
 17  9  1  0
M  END
>  <energy_score>  (2016) 
-12.721105

>  <inchikey>  (2016) 
AVMXAQCSXKWKQT-UHFFFAOYSA-N

>  <smiles>  (2016) 
C#CC(NC(=O)c1cc2c(cn1)NC(=O)CO2)C1CC1

>  <ref_pdb>  (2016) 
A1068a

>  <alias>  (2016) 
AVMXAQCSXKWKQT-UHFFFAOYSA-N-P37-P37-P198-601513

>  <HIPPO Pose ID>  (2016) 
523520

>  <name>  (2016) 
AVMXAQCSXKWKQT-UHFFFAOYSA-N-P37-P37-P198-601513

>  <HIPPO Compound ID>  (2016) 
302218

>  <ref_mols>  (2016) 
A0310a,A3618a

>  <distance_score>  (2016) 
1.776447

>  <inspiration_score>  (2016) 
None

$$$$
OTZMOCRNMXTGLL-UHFFFAOYSA-N-P37-P37-P198-601513
     RDKit          3D

 20 22  0  0  0  0  0  0  0  0999 V2000
    1.4382   13.9325   26.4360 C   0  0  0  0  0  0  0  0  0  0  0  0
    2.5750   13.8522   27.4720 C   0  0  0  0  0  0  0  0  0  0  0  0
    2.1540   12.8674   28.5738 C   0  0  0  0  0  0  0  0  0  0  0  0
    3.7969   13.3987   26.8120 N   0  0  0  0  0  0  0  0  0  0  0  0
    5.0071   12.6054   27.3689 C   0  0  0  0  0  0  0  0  0  0  0  0
    5.2486   12.2593   28.4581 O   0  0  0  0  0  0  0  0  0  0  0  0
    6.0376   12.3598   26.3040 C   0  0  0  0  0  0  0  0  0  0  0  0
    6.5522   13.4409   25.5952 C   0  0  0  0  0  0  0  0  0  0  0  0
    7.5872   13.2095   24.6912 C   0  0  0  0  0  0  0  0  0  0  0  0
    8.0630   11.9151   24.5305 C   0  0  0  0  0  0  0  0  0  0  0  0
    7.4836   10.8939   25.2792 C   0  0  0  0  0  0  0  0  0  0  0  0
    6.4857   11.0870   26.1658 N   0  0  0  0  0  0  0  0  0  0  0  0
    7.9376    9.6114   25.2099 O   0  0  0  0  0  0  0  0  0  0  0  0
    8.7381    9.2984   24.0878 C   0  0  0  0  0  0  0  0  0  0  0  0
    9.5043   10.3708   23.3773 C   0  0  0  0  0  0  0  0  0  0  0  0
   10.3759   10.1058   22.5640 O   0  0  0  0  0  0  0  0  0  0  0  0
    9.1048   11.6491   23.6410 N   0  0  0  0  0  0  0  0  0  0  0  0
    2.7665   15.2369   28.0741 C   0  0  0  0  0  0  0  0  0  0  0  0
    3.5807   16.3118   27.3880 C   0  0  0  0  0  0  0  0  0  0  0  0
    4.0661   15.7138   28.6807 C   0  0  0  0  0  0  0  0  0  0  0  0
  1  2  1  0
  2  3  1  0
  2  4  1  0
  4  5  1  0
  5  6  2  0
  5  7  1  0
  7  8  2  0
  8  9  1  0
  9 10  2  0
 10 11  1  0
 11 12  2  0
 11 13  1  0
 13 14  1  0
 14 15  1  0
 15 16  2  0
 15 17  1  0
  2 18  1  0
 18 19  1  0
 19 20  1  0
 12  7  1  0
 20 18  1  0
 17 10  1  0
M  END
>  <energy_score>  (2017) 
-5.91878

>  <inchikey>  (2017) 
OTZMOCRNMXTGLL-UHFFFAOYSA-N

>  <smiles>  (2017) 
CC(C)(NC(=O)c1ccc2c(n1)OCC(=O)N2)C1CC1

>  <ref_pdb>  (2017) 
A1068a

>  <alias>  (2017) 
OTZMOCRNMXTGLL-UHFFFAOYSA-N-P37-P37-P198-601513

>  <HIPPO Pose ID>  (2017) 
523522

>  <name>  (2017) 
OTZMOCRNMXTGLL-UHFFFAOYSA-N-P37-P37-P198-601513

>  <HIPPO Compound ID>  (2017) 
302219

>  <ref_mols>  (2017) 
A0310a,A3618a

>  <distance_score>  (2017) 
1.666785

>  <inspiration_score>  (2017) 
None

$$$$
GQDZPBQFKKVNJT-UHFFFAOYSA-N-P37-P37-P198-601513
     RDKit          3D

 20 22  0  0  0  0  0  0  0  0999 V2000
    1.4717   14.1018   26.7441 C   0  0  0  0  0  0  0  0  0  0  0  0
    2.3713   13.4696   27.8063 C   0  0  2  0  0  0  0  0  0  0  0  0
    3.6520   13.1015   27.2258 N   0  0  0  0  0  0  0  0  0  0  0  0
    4.6494   11.9959   27.6214 C   0  0  0  0  0  0  0  0  0  0  0  0
    4.6387   11.2556   28.5216 O   0  0  0  0  0  0  0  0  0  0  0  0
    5.7670   11.9337   26.6179 C   0  0  0  0  0  0  0  0  0  0  0  0
    6.4009   10.7251   26.3807 C   0  0  0  0  0  0  0  0  0  0  0  0
    7.4059   10.7003   25.4223 C   0  0  0  0  0  0  0  0  0  0  0  0
    7.7712   11.8626   24.7593 C   0  0  0  0  0  0  0  0  0  0  0  0
    7.0788   13.0269   25.0625 C   0  0  0  0  0  0  0  0  0  0  0  0
    6.0702   13.0913   25.9682 N   0  0  0  0  0  0  0  0  0  0  0  0
    8.8167   11.8325   23.8354 N   0  0  0  0  0  0  0  0  0  0  0  0
    9.4314   10.6628   23.4841 C   0  0  0  0  0  0  0  0  0  0  0  0
   10.3746   10.6253   22.7091 O   0  0  0  0  0  0  0  0  0  0  0  0
    8.8337    9.4117   24.0515 C   0  0  0  0  0  0  0  0  0  0  0  0
    8.0290    9.5102   25.2127 O   0  0  0  0  0  0  0  0  0  0  0  0
    1.6713   12.2749   28.4165 C   0  0  0  0  0  0  0  0  0  0  0  0
    1.4229   11.2079   27.5545 F   0  0  0  0  0  0  0  0  0  0  0  0
    0.6045   12.4888   29.4635 C   0  0  0  0  0  0  0  0  0  0  0  0
    1.9234   11.8886   29.8520 C   0  0  0  0  0  0  0  0  0  0  0  0
  2  1  1  6
  2  3  1  0
  3  4  1  0
  4  5  2  0
  4  6  1  0
  6  7  2  0
  7  8  1  0
  8  9  2  0
  9 10  1  0
 10 11  2  0
  9 12  1  0
 12 13  1  0
 13 14  2  0
 13 15  1  0
 15 16  1  0
  2 17  1  0
 17 18  1  0
 17 19  1  0
 19 20  1  0
 11  6  1  0
 20 17  1  0
 16  8  1  0
M  END
>  <energy_score>  (2018) 
-0.574475

>  <inchikey>  (2018) 
GQDZPBQFKKVNJT-UHFFFAOYSA-N

>  <smiles>  (2018) 
CC(NC(=O)c1cc2c(cn1)NC(=O)CO2)C1(F)CC1

>  <ref_pdb>  (2018) 
A1068a

>  <alias>  (2018) 
GQDZPBQFKKVNJT-UHFFFAOYSA-N-P37-P37-P198-601513

>  <HIPPO Pose ID>  (2018) 
523540

>  <name>  (2018) 
GQDZPBQFKKVNJT-UHFFFAOYSA-N-P37-P37-P198-601513

>  <HIPPO Compound ID>  (2018) 
302228

>  <ref_mols>  (2018) 
A0310a,A3618a

>  <distance_score>  (2018) 
1.541224

>  <inspiration_score>  (2018) 
None

$$$$
JTAWIUYHQLVRHJ-UHFFFAOYSA-N-P198-P37-P198-601513
     RDKit          3D

 20 22  0  0  0  0  0  0  0  0999 V2000
    0.7829   13.3701   27.0169 C   0  0  0  0  0  0  0  0  0  0  0  0
    1.2247   14.5446   26.1561 C   0  0  0  0  0  0  0  0  0  0  0  0
    2.6368   15.0686   26.4798 C   0  0  1  0  0  0  0  0  0  0  0  0
    3.6442   14.0834   26.1880 N   0  0  0  0  0  0  0  0  0  0  0  0
    4.1784   12.9251   27.0354 C   0  0  0  0  0  0  0  0  0  0  0  0
    3.8376   12.5319   28.0767 O   0  0  0  0  0  0  0  0  0  0  0  0
    5.2403   12.1717   26.2977 C   0  0  0  0  0  0  0  0  0  0  0  0
    5.2984   10.8105   26.5081 C   0  0  0  0  0  0  0  0  0  0  0  0
    6.2415   10.0855   25.8065 C   0  0  0  0  0  0  0  0  0  0  0  0
    7.1284   10.7205   24.9701 C   0  0  0  0  0  0  0  0  0  0  0  0
    6.9956   12.0896   24.8010 C   0  0  0  0  0  0  0  0  0  0  0  0
    6.0495   12.8305   25.4286 N   0  0  0  0  0  0  0  0  0  0  0  0
    7.7830   12.7781   23.9096 O   0  0  0  0  0  0  0  0  0  0  0  0
    8.9996   12.1106   23.5746 C   0  0  0  0  0  0  0  0  0  0  0  0
    9.0009   10.5768   23.4898 C   0  0  0  0  0  0  0  0  0  0  0  0
    9.7658    9.9080   22.8089 O   0  0  0  0  0  0  0  0  0  0  0  0
    8.0804    9.9737   24.2904 N   0  0  0  0  0  0  0  0  0  0  0  0
    2.9455   16.3197   25.7090 C   0  0  0  0  0  0  0  0  0  0  0  0
    2.6356   17.6728   26.3002 C   0  0  0  0  0  0  0  0  0  0  0  0
    4.0643   17.2257   26.1616 C   0  0  0  0  0  0  0  0  0  0  0  0
  1  2  1  0
  3  2  1  6
  3  4  1  0
  4  5  1  0
  5  6  2  0
  5  7  1  0
  7  8  2  0
  8  9  1  0
  9 10  2  0
 10 11  1  0
 11 12  2  0
 11 13  1  0
 13 14  1  0
 14 15  1  0
 15 16  2  0
 15 17  1  0
  3 18  1  0
 18 19  1  0
 19 20  1  0
 12  7  1  0
 20 18  1  0
 17 10  1  0
M  END
>  <energy_score>  (2019) 
-19.648218

>  <inchikey>  (2019) 
JTAWIUYHQLVRHJ-UHFFFAOYSA-N

>  <smiles>  (2019) 
CCC(NC(=O)c1ccc2c(n1)OCC(=O)N2)C1CC1

>  <ref_pdb>  (2019) 
A1068a

>  <alias>  (2019) 
JTAWIUYHQLVRHJ-UHFFFAOYSA-N-P198-P37-P198-601513

>  <HIPPO Pose ID>  (2019) 
523561

>  <name>  (2019) 
JTAWIUYHQLVRHJ-UHFFFAOYSA-N-P198-P37-P198-601513

>  <HIPPO Compound ID>  (2019) 
302238

>  <ref_mols>  (2019) 
A0310a,A3618a

>  <distance_score>  (2019) 
1.888241

>  <inspiration_score>  (2019) 
None

$$$$
DYHZPXCHUGKQMD-UHFFFAOYSA-N-P198-P37-P198-601513
     RDKit          3D

 20 22  0  0  0  0  0  0  0  0999 V2000
    1.2750   14.1818   25.8409 C   0  0  0  0  0  0  0  0  0  0  0  0
    2.4365   14.7686   25.0292 C   0  0  1  0  0  0  0  0  0  0  0  0
    3.6393   13.9808   25.1662 N   0  0  0  0  0  0  0  0  0  0  0  0
    4.2404   13.2860   26.3927 C   0  0  0  0  0  0  0  0  0  0  0  0
    3.9057   13.2992   27.5070 O   0  0  0  0  0  0  0  0  0  0  0  0
    5.3670   12.4124   25.9526 C   0  0  0  0  0  0  0  0  0  0  0  0
    5.3912   11.1178   26.4252 C   0  0  0  0  0  0  0  0  0  0  0  0
    6.3120   10.2464   25.8661 C   0  0  0  0  0  0  0  0  0  0  0  0
    7.2180   10.6999   24.9278 C   0  0  0  0  0  0  0  0  0  0  0  0
    7.1349   12.0271   24.5302 C   0  0  0  0  0  0  0  0  0  0  0  0
    6.1996   12.8822   24.9900 N   0  0  0  0  0  0  0  0  0  0  0  0
    7.9389   12.5295   23.5329 O   0  0  0  0  0  0  0  0  0  0  0  0
    9.1719   11.8207   23.4194 C   0  0  0  0  0  0  0  0  0  0  0  0
    9.0864   10.2895   23.4808 C   0  0  0  0  0  0  0  0  0  0  0  0
    9.8107    9.5195   22.8655 O   0  0  0  0  0  0  0  0  0  0  0  0
    8.1335    9.8283   24.3467 N   0  0  0  0  0  0  0  0  0  0  0  0
    2.0923   14.8393   23.5527 C   0  0  0  0  0  0  0  0  0  0  0  0
    1.9527   13.5644   22.8900 O   0  0  0  0  0  0  0  0  0  0  0  0
    2.6790   15.9317   22.6959 C   0  0  0  0  0  0  0  0  0  0  0  0
    1.2117   15.9389   23.0240 C   0  0  0  0  0  0  0  0  0  0  0  0
  2  1  1  1
  2  3  1  0
  3  4  1  0
  4  5  2  0
  4  6  1  0
  6  7  2  0
  7  8  1  0
  8  9  2  0
  9 10  1  0
 10 11  2  0
 10 12  1  0
 12 13  1  0
 13 14  1  0
 14 15  2  0
 14 16  1  0
  2 17  1  0
 17 18  1  0
 17 19  1  0
 19 20  1  0
 11  6  1  0
 20 17  1  0
 16  9  1  0
M  END
>  <energy_score>  (2020) 
-10.373461

>  <inchikey>  (2020) 
DYHZPXCHUGKQMD-UHFFFAOYSA-N

>  <smiles>  (2020) 
CC(NC(=O)c1ccc2c(n1)OCC(=O)N2)C1(O)CC1

>  <ref_pdb>  (2020) 
A1068a

>  <alias>  (2020) 
DYHZPXCHUGKQMD-UHFFFAOYSA-N-P198-P37-P198-601513

>  <HIPPO Pose ID>  (2020) 
523563

>  <name>  (2020) 
DYHZPXCHUGKQMD-UHFFFAOYSA-N-P198-P37-P198-601513

>  <HIPPO Compound ID>  (2020) 
302239

>  <ref_mols>  (2020) 
A0310a,A3618a

>  <distance_score>  (2020) 
1.987014

>  <inspiration_score>  (2020) 
None

$$$$
CZUYWEGJAVCDKC-UHFFFAOYSA-N-P198-P37-P198-601513
     RDKit          3D

 20 22  0  0  0  0  0  0  0  0999 V2000
    9.7532    9.8880   22.8050 O   0  0  0  0  0  0  0  0  0  0  0  0
    8.9990   10.5642   23.4905 C   0  0  0  0  0  0  0  0  0  0  0  0
    9.0046   12.0982   23.5699 C   0  0  0  0  0  0  0  0  0  0  0  0
    7.7838   12.7685   23.8882 O   0  0  0  0  0  0  0  0  0  0  0  0
    6.9940   12.0902   24.7860 C   0  0  0  0  0  0  0  0  0  0  0  0
    6.0437   12.8378   25.4000 N   0  0  0  0  0  0  0  0  0  0  0  0
    5.2281   12.1859   26.2699 C   0  0  0  0  0  0  0  0  0  0  0  0
    4.1673   12.9513   26.9972 C   0  0  0  0  0  0  0  0  0  0  0  0
    3.8099   12.5661   28.0352 O   0  0  0  0  0  0  0  0  0  0  0  0
    3.6770   14.1301   26.1538 N   0  0  0  0  0  0  0  0  0  0  0  0
    2.5739   15.0368   26.3613 C   0  0  2  0  0  0  0  0  0  0  0  0
    1.2484   14.4352   25.8671 C   0  0  0  0  0  0  0  0  0  0  0  0
    0.9769   13.2554   26.4880 F   0  0  0  0  0  0  0  0  0  0  0  0
    2.8791   16.3443   25.6895 C   0  0  0  0  0  0  0  0  0  0  0  0
    3.8800   17.2917   26.3046 C   0  0  0  0  0  0  0  0  0  0  0  0
    2.4185   17.6437   26.3025 C   0  0  0  0  0  0  0  0  0  0  0  0
    5.2879   10.8277   26.4981 C   0  0  0  0  0  0  0  0  0  0  0  0
    6.2370   10.0960   25.8112 C   0  0  0  0  0  0  0  0  0  0  0  0
    7.1268   10.7227   24.9707 C   0  0  0  0  0  0  0  0  0  0  0  0
    8.0794    9.9692   24.2990 N   0  0  0  0  0  0  0  0  0  0  0  0
  1  2  2  0
  2  3  1  0
  3  4  1  0
  4  5  1  0
  5  6  2  0
  6  7  1  0
  7  8  1  0
  8  9  2  0
  8 10  1  0
 10 11  1  0
 11 12  1  6
 12 13  1  0
 11 14  1  0
 14 15  1  0
 15 16  1  0
  7 17  2  0
 17 18  1  0
 18 19  2  0
 19 20  1  0
 20  2  1  0
 19  5  1  0
 16 14  1  0
M  END
>  <energy_score>  (2021) 
-5.430562

>  <inchikey>  (2021) 
CZUYWEGJAVCDKC-UHFFFAOYSA-N

>  <smiles>  (2021) 
O=C1COc2nc(C(=O)NC(CF)C3CC3)ccc2N1

>  <ref_pdb>  (2021) 
A1068a

>  <alias>  (2021) 
CZUYWEGJAVCDKC-UHFFFAOYSA-N-P198-P37-P198-601513

>  <HIPPO Pose ID>  (2021) 
523577

>  <name>  (2021) 
CZUYWEGJAVCDKC-UHFFFAOYSA-N-P198-P37-P198-601513

>  <HIPPO Compound ID>  (2021) 
302246

>  <ref_mols>  (2021) 
A0310a,A3618a

>  <distance_score>  (2021) 
1.876625

>  <inspiration_score>  (2021) 
None

$$$$
HQVOAMNTBWHKGB-UHFFFAOYSA-N-P198-P37-P198-601513
     RDKit          3D

 21 23  0  0  0  0  0  0  0  0999 V2000
    1.3555   14.3467   26.9828 C   0  0  0  0  0  0  0  0  0  0  0  0
    2.7688   14.9644   27.0380 C   0  0  1  0  0  0  0  0  0  0  0  0
    3.0533   15.3964   28.5045 C   0  0  0  0  0  0  0  0  0  0  0  0
    4.4197   15.7877   28.6782 O   0  0  0  0  0  0  0  0  0  0  0  0
    3.7380   13.9595   26.6242 N   0  0  0  0  0  0  0  0  0  0  0  0
    4.0289   12.5686   27.1873 C   0  0  0  0  0  0  0  0  0  0  0  0
    3.4915   11.9666   28.0243 O   0  0  0  0  0  0  0  0  0  0  0  0
    5.1370   11.9168   26.4145 C   0  0  0  0  0  0  0  0  0  0  0  0
    5.2181   10.5455   26.4688 C   0  0  0  0  0  0  0  0  0  0  0  0
    6.2076    9.9318   25.7303 C   0  0  0  0  0  0  0  0  0  0  0  0
    7.1036   10.6661   24.9965 C   0  0  0  0  0  0  0  0  0  0  0  0
    6.9497   12.0380   24.9785 C   0  0  0  0  0  0  0  0  0  0  0  0
    5.9758   12.6873   25.6691 N   0  0  0  0  0  0  0  0  0  0  0  0
    7.7499   12.8365   24.2054 O   0  0  0  0  0  0  0  0  0  0  0  0
    8.9148   12.2087   23.6700 C   0  0  0  0  0  0  0  0  0  0  0  0
    8.9745   10.6824   23.5141 C   0  0  0  0  0  0  0  0  0  0  0  0
    9.7579   10.0766   22.7961 O   0  0  0  0  0  0  0  0  0  0  0  0
    8.0798   10.0015   24.2730 N   0  0  0  0  0  0  0  0  0  0  0  0
    2.9582   16.1419   26.1052 C   0  0  0  0  0  0  0  0  0  0  0  0
    2.6138   16.0284   24.6405 C   0  0  0  0  0  0  0  0  0  0  0  0
    1.8353   16.9652   25.5269 C   0  0  0  0  0  0  0  0  0  0  0  0
  2  1  1  1
  2  3  1  0
  3  4  1  0
  2  5  1  0
  5  6  1  0
  6  7  2  0
  6  8  1  0
  8  9  2  0
  9 10  1  0
 10 11  2  0
 11 12  1  0
 12 13  2  0
 12 14  1  0
 14 15  1  0
 15 16  1  0
 16 17  2  0
 16 18  1  0
  2 19  1  0
 19 20  1  0
 20 21  1  0
 13  8  1  0
 21 19  1  0
 18 11  1  0
M  END
>  <energy_score>  (2022) 
-28.720508

>  <inchikey>  (2022) 
HQVOAMNTBWHKGB-UHFFFAOYSA-N

>  <smiles>  (2022) 
CC(CO)(NC(=O)c1ccc2c(n1)OCC(=O)N2)C1CC1

>  <ref_pdb>  (2022) 
A1068a

>  <alias>  (2022) 
HQVOAMNTBWHKGB-UHFFFAOYSA-N-P198-P37-P198-601513

>  <HIPPO Pose ID>  (2022) 
523587

>  <name>  (2022) 
HQVOAMNTBWHKGB-UHFFFAOYSA-N-P198-P37-P198-601513

>  <HIPPO Compound ID>  (2022) 
302251

>  <ref_mols>  (2022) 
A0310a,A3618a

>  <distance_score>  (2022) 
1.856499

>  <inspiration_score>  (2022) 
None

$$$$
UWJGEIKPYJKAOT-UHFFFAOYSA-N-P198-P37-P198-601513
     RDKit          3D

 21 23  0  0  0  0  0  0  0  0999 V2000
   10.0175    9.5479   22.6156 O   0  0  0  0  0  0  0  0  0  0  0  0
    9.1618    9.9875   23.3689 C   0  0  0  0  0  0  0  0  0  0  0  0
    8.1609    9.0896   24.0245 C   0  0  0  0  0  0  0  0  0  0  0  0
    7.1881    9.5568   24.9386 O   0  0  0  0  0  0  0  0  0  0  0  0
    7.0304   10.9073   24.9971 C   0  0  0  0  0  0  0  0  0  0  0  0
    5.9627   11.3031   25.7275 N   0  0  0  0  0  0  0  0  0  0  0  0
    5.7766   12.6484   25.8260 C   0  0  0  0  0  0  0  0  0  0  0  0
    4.5939   13.1372   26.6204 C   0  0  0  0  0  0  0  0  0  0  0  0
    4.5445   14.2589   26.9333 O   0  0  0  0  0  0  0  0  0  0  0  0
    3.5966   11.9916   26.8574 N   0  0  0  0  0  0  0  0  0  0  0  0
    2.3670   11.9595   27.6138 C   0  0  2  0  0  0  0  0  0  0  0  0
    1.2341   12.8320   27.0422 C   0  0  0  0  0  0  0  0  0  0  0  0
    1.4595   14.3339   27.0096 C   0  0  0  0  0  0  0  0  0  0  0  0
    0.2333   14.9534   26.6156 O   0  0  0  0  0  0  0  0  0  0  0  0
    2.6646   12.2524   29.0583 C   0  0  0  0  0  0  0  0  0  0  0  0
    1.8097   11.6638   30.1530 C   0  0  0  0  0  0  0  0  0  0  0  0
    3.2151   11.1686   29.9534 C   0  0  0  0  0  0  0  0  0  0  0  0
    6.6138   13.5907   25.2382 C   0  0  0  0  0  0  0  0  0  0  0  0
    7.6990   13.1487   24.4900 C   0  0  0  0  0  0  0  0  0  0  0  0
    7.9102   11.7849   24.3607 C   0  0  0  0  0  0  0  0  0  0  0  0
    8.9785   11.3197   23.5926 N   0  0  0  0  0  0  0  0  0  0  0  0
  1  2  2  0
  2  3  1  0
  3  4  1  0
  4  5  1  0
  5  6  2  0
  6  7  1  0
  7  8  1  0
  8  9  2  0
  8 10  1  0
 10 11  1  0
 11 12  1  6
 12 13  1  0
 13 14  1  0
 11 15  1  0
 15 16  1  0
 16 17  1  0
  7 18  2  0
 18 19  1  0
 19 20  2  0
 20 21  1  0
 21  2  1  0
 20  5  1  0
 17 15  1  0
M  END
>  <energy_score>  (2023) 
-15.142138

>  <inchikey>  (2023) 
UWJGEIKPYJKAOT-UHFFFAOYSA-N

>  <smiles>  (2023) 
O=C1COc2nc(C(=O)NC(CCO)C3CC3)ccc2N1

>  <ref_pdb>  (2023) 
A1068a

>  <alias>  (2023) 
UWJGEIKPYJKAOT-UHFFFAOYSA-N-P198-P37-P198-601513

>  <HIPPO Pose ID>  (2023) 
523589

>  <name>  (2023) 
UWJGEIKPYJKAOT-UHFFFAOYSA-N-P198-P37-P198-601513

>  <HIPPO Compound ID>  (2023) 
302252

>  <ref_mols>  (2023) 
A0310a,A3618a

>  <distance_score>  (2023) 
1.885545

>  <inspiration_score>  (2023) 
None

$$$$
MYVHMOBHFUXSHG-UHFFFAOYSA-N-P198-P37-P198-601513
     RDKit          3D

 21 24  0  0  0  0  0  0  0  0999 V2000
    9.7861    9.5530   22.8635 O   0  0  0  0  0  0  0  0  0  0  0  0
    9.0645   10.3210   23.4848 C   0  0  0  0  0  0  0  0  0  0  0  0
    9.1541   11.8528   23.4380 C   0  0  0  0  0  0  0  0  0  0  0  0
    7.9258   12.5682   23.5673 O   0  0  0  0  0  0  0  0  0  0  0  0
    7.1163   12.0548   24.5548 C   0  0  0  0  0  0  0  0  0  0  0  0
    6.1964   12.9145   25.0415 N   0  0  0  0  0  0  0  0  0  0  0  0
    5.3579   12.4325   25.9923 C   0  0  0  0  0  0  0  0  0  0  0  0
    4.3135   13.3464   26.5450 C   0  0  0  0  0  0  0  0  0  0  0  0
    4.0086   13.2584   27.6651 O   0  0  0  0  0  0  0  0  0  0  0  0
    3.7643   14.2472   25.4334 N   0  0  0  0  0  0  0  0  0  0  0  0
    2.6588   15.1661   25.4362 C   0  0  0  0  0  0  0  0  0  0  0  0
    1.3787   14.3636   25.4727 C   0  0  0  0  0  0  0  0  0  0  0  0
    0.8508   13.8084   26.7753 C   0  0  0  0  0  0  0  0  0  0  0  0
    0.1274   14.9355   26.0964 C   0  0  0  0  0  0  0  0  0  0  0  0
    2.8138   16.0992   24.2652 C   0  0  0  0  0  0  0  0  0  0  0  0
    1.6719   16.5426   23.3793 C   0  0  0  0  0  0  0  0  0  0  0  0
    2.7200   15.6109   22.8365 C   0  0  0  0  0  0  0  0  0  0  0  0
    5.3659   11.1237   26.4292 C   0  0  0  0  0  0  0  0  0  0  0  0
    6.2788   10.2537   25.8546 C   0  0  0  0  0  0  0  0  0  0  0  0
    7.1900   10.7192   24.9279 C   0  0  0  0  0  0  0  0  0  0  0  0
    8.1067    9.8527   24.3411 N   0  0  0  0  0  0  0  0  0  0  0  0
  1  2  2  0
  2  3  1  0
  3  4  1  0
  4  5  1  0
  5  6  2  0
  6  7  1  0
  7  8  1  0
  8  9  2  0
  8 10  1  0
 10 11  1  0
 11 12  1  0
 12 13  1  0
 13 14  1  0
 11 15  1  0
 15 16  1  0
 16 17  1  0
  7 18  2  0
 18 19  1  0
 19 20  2  0
 20 21  1  0
 21  2  1  0
 20  5  1  0
 14 12  1  0
 17 15  1  0
M  END
>  <energy_score>  (2024) 
-15.610207

>  <inchikey>  (2024) 
MYVHMOBHFUXSHG-UHFFFAOYSA-N

>  <smiles>  (2024) 
O=C1COc2nc(C(=O)NC(C3CC3)C3CC3)ccc2N1

>  <ref_pdb>  (2024) 
A1068a

>  <alias>  (2024) 
MYVHMOBHFUXSHG-UHFFFAOYSA-N-P198-P37-P198-601513

>  <HIPPO Pose ID>  (2024) 
523591

>  <name>  (2024) 
MYVHMOBHFUXSHG-UHFFFAOYSA-N-P198-P37-P198-601513

>  <HIPPO Compound ID>  (2024) 
302253

>  <ref_mols>  (2024) 
A0310a,A3618a

>  <distance_score>  (2024) 
1.997875

>  <inspiration_score>  (2024) 
None

$$$$
GJDDNJWYIOWQAM-UHFFFAOYSA-N-P37-P37-P198-601513
     RDKit          3D

 21 23  0  0  0  0  0  0  0  0999 V2000
    1.4971   13.6518   26.2265 C   0  0  0  0  0  0  0  0  0  0  0  0
    1.7591   14.6815   27.2823 C   0  0  0  0  0  0  0  0  0  0  0  0
    0.8433   15.4183   27.6619 O   0  0  0  0  0  0  0  0  0  0  0  0
    3.1800   14.7938   27.8770 C   0  0  2  0  0  0  0  0  0  0  0  0
    4.2047   14.0478   27.1627 N   0  0  0  0  0  0  0  0  0  0  0  0
    4.5682   12.5516   27.2085 C   0  0  0  0  0  0  0  0  0  0  0  0
    4.0554   11.6664   27.7669 O   0  0  0  0  0  0  0  0  0  0  0  0
    5.8024   12.3060   26.3683 C   0  0  0  0  0  0  0  0  0  0  0  0
    6.2930   11.0194   26.1904 C   0  0  0  0  0  0  0  0  0  0  0  0
    7.3723   10.8538   25.3267 C   0  0  0  0  0  0  0  0  0  0  0  0
    7.9382   11.9498   24.6913 C   0  0  0  0  0  0  0  0  0  0  0  0
    7.4030   13.2004   24.9584 C   0  0  0  0  0  0  0  0  0  0  0  0
    6.3533   13.4103   25.7891 N   0  0  0  0  0  0  0  0  0  0  0  0
    9.0091   11.7764   23.8139 N   0  0  0  0  0  0  0  0  0  0  0  0
    9.4693   10.5365   23.4750 C   0  0  0  0  0  0  0  0  0  0  0  0
   10.3902   10.3709   22.6892 O   0  0  0  0  0  0  0  0  0  0  0  0
    8.7339    9.3781   24.0765 C   0  0  0  0  0  0  0  0  0  0  0  0
    7.8351    9.5881   25.1516 O   0  0  0  0  0  0  0  0  0  0  0  0
    3.3223   14.4988   29.3513 C   0  0  0  0  0  0  0  0  0  0  0  0
    2.2709   14.8384   30.3819 C   0  0  0  0  0  0  0  0  0  0  0  0
    2.5398   13.4004   30.0309 C   0  0  0  0  0  0  0  0  0  0  0  0
  1  2  1  0
  2  3  2  0
  2  4  1  0
  4  5  1  6
  5  6  1  0
  6  7  2  0
  6  8  1  0
  8  9  2  0
  9 10  1  0
 10 11  2  0
 11 12  1  0
 12 13  2  0
 11 14  1  0
 14 15  1  0
 15 16  2  0
 15 17  1  0
 17 18  1  0
  4 19  1  0
 19 20  1  0
 20 21  1  0
 13  8  1  0
 21 19  1  0
 18 10  1  0
M  END
>  <energy_score>  (2025) 
-1.494265

>  <inchikey>  (2025) 
GJDDNJWYIOWQAM-UHFFFAOYSA-N

>  <smiles>  (2025) 
CC(=O)C(NC(=O)c1cc2c(cn1)NC(=O)CO2)C1CC1

>  <ref_pdb>  (2025) 
A1068a

>  <alias>  (2025) 
GJDDNJWYIOWQAM-UHFFFAOYSA-N-P37-P37-P198-601513

>  <HIPPO Pose ID>  (2025) 
523680

>  <name>  (2025) 
GJDDNJWYIOWQAM-UHFFFAOYSA-N-P37-P37-P198-601513

>  <HIPPO Compound ID>  (2025) 
302298

>  <ref_mols>  (2025) 
A0310a,A3618a

>  <distance_score>  (2025) 
1.654666

>  <inspiration_score>  (2025) 
None

$$$$
PTMOZOOOXNSBSV-UHFFFAOYSA-N-P37-P37-P198-601513
     RDKit          3D

 21 23  0  0  0  0  0  0  0  0999 V2000
    1.4572   13.8493   27.0380 C   0  0  0  0  0  0  0  0  0  0  0  0
    2.5521   13.4251   28.0176 C   0  0  2  0  0  0  0  0  0  0  0  0
    3.7330   12.9853   27.2982 N   0  0  0  0  0  0  0  0  0  0  0  0
    4.9209   12.1171   27.7587 C   0  0  0  0  0  0  0  0  0  0  0  0
    5.1010   11.5546   28.7642 O   0  0  0  0  0  0  0  0  0  0  0  0
    5.9216   12.0008   26.6541 C   0  0  0  0  0  0  0  0  0  0  0  0
    6.4991   10.7712   26.3941 C   0  0  0  0  0  0  0  0  0  0  0  0
    7.4514   10.7121   25.3868 C   0  0  0  0  0  0  0  0  0  0  0  0
    7.8214   11.8607   24.7030 C   0  0  0  0  0  0  0  0  0  0  0  0
    7.1616   13.0415   25.0134 C   0  0  0  0  0  0  0  0  0  0  0  0
    6.1977   13.1372   25.9621 N   0  0  0  0  0  0  0  0  0  0  0  0
    8.8457   11.8025   23.7578 N   0  0  0  0  0  0  0  0  0  0  0  0
    9.4447   10.6212   23.4203 C   0  0  0  0  0  0  0  0  0  0  0  0
   10.3786   10.5603   22.6359 O   0  0  0  0  0  0  0  0  0  0  0  0
    8.8408    9.3843   24.0103 C   0  0  0  0  0  0  0  0  0  0  0  0
    8.0193    9.5009   25.1559 O   0  0  0  0  0  0  0  0  0  0  0  0
    2.0907   12.4726   29.0867 C   0  0  2  0  0  0  0  0  0  0  0  0
    2.2505   10.9567   29.0376 C   0  0  0  0  0  0  0  0  0  0  0  0
    0.9148   11.5745   28.9267 C   0  0  0  0  0  0  0  0  0  0  0  0
    0.2406   11.4013   27.7428 F   0  0  0  0  0  0  0  0  0  0  0  0
    0.0069   11.4100   29.9449 F   0  0  0  0  0  0  0  0  0  0  0  0
  2  1  1  6
  2  3  1  0
  3  4  1  0
  4  5  2  0
  4  6  1  0
  6  7  2  0
  7  8  1  0
  8  9  2  0
  9 10  1  0
 10 11  2  0
  9 12  1  0
 12 13  1  0
 13 14  2  0
 13 15  1  0
 15 16  1  0
  2 17  1  0
 17 18  1  6
 18 19  1  0
 19 20  1  0
 19 21  1  0
 11  6  1  0
 19 17  1  0
 16  8  1  0
M  END
>  <energy_score>  (2026) 
-2.325414

>  <inchikey>  (2026) 
PTMOZOOOXNSBSV-UHFFFAOYSA-N

>  <smiles>  (2026) 
CC(NC(=O)c1cc2c(cn1)NC(=O)CO2)C1CC1(F)F

>  <ref_pdb>  (2026) 
A1068a

>  <alias>  (2026) 
PTMOZOOOXNSBSV-UHFFFAOYSA-N-P37-P37-P198-601513

>  <HIPPO Pose ID>  (2026) 
523684

>  <name>  (2026) 
PTMOZOOOXNSBSV-UHFFFAOYSA-N-P37-P37-P198-601513

>  <HIPPO Compound ID>  (2026) 
302300

>  <ref_mols>  (2026) 
A0310a,A3618a

>  <distance_score>  (2026) 
1.914611

>  <inspiration_score>  (2026) 
None

$$$$
QFWSZRTWZPOBFW-UHFFFAOYSA-N-P198-P37-P198-601513
     RDKit          3D

 21 23  0  0  0  0  0  0  0  0999 V2000
    0.0943   15.1898   25.0673 C   0  0  0  0  0  0  0  0  0  0  0  0
    1.2247   14.7361   25.9786 C   0  0  0  0  0  0  0  0  0  0  0  0
    0.8245   13.5019   26.7892 C   0  0  0  0  0  0  0  0  0  0  0  0
    1.8838   13.0664   27.8157 C   0  0  2  0  0  0  0  0  0  0  0  0
    3.0951   12.6205   27.1785 N   0  0  0  0  0  0  0  0  0  0  0  0
    4.3393   13.4086   26.7349 C   0  0  0  0  0  0  0  0  0  0  0  0
    4.5506   14.5540   26.7444 O   0  0  0  0  0  0  0  0  0  0  0  0
    5.3456   12.4502   26.1557 C   0  0  0  0  0  0  0  0  0  0  0  0
    6.5134   12.9091   25.5836 C   0  0  0  0  0  0  0  0  0  0  0  0
    7.3795   11.9836   25.0129 C   0  0  0  0  0  0  0  0  0  0  0  0
    7.0719   10.6365   25.0262 C   0  0  0  0  0  0  0  0  0  0  0  0
    5.8980   10.2669   25.6573 C   0  0  0  0  0  0  0  0  0  0  0  0
    5.0251   11.1358   26.2189 N   0  0  0  0  0  0  0  0  0  0  0  0
    7.9095    9.7120   24.4039 N   0  0  0  0  0  0  0  0  0  0  0  0
    8.9745   10.1079   23.6392 C   0  0  0  0  0  0  0  0  0  0  0  0
    9.6359    9.2994   22.9965 O   0  0  0  0  0  0  0  0  0  0  0  0
    9.2010   11.6235   23.5872 C   0  0  0  0  0  0  0  0  0  0  0  0
    8.5454   12.4809   24.5097 O   0  0  0  0  0  0  0  0  0  0  0  0
    1.3604   11.9311   28.6558 C   0  0  0  0  0  0  0  0  0  0  0  0
    1.9526   11.6596   30.0159 C   0  0  0  0  0  0  0  0  0  0  0  0
    0.5547   12.2018   29.9014 C   0  0  0  0  0  0  0  0  0  0  0  0
  1  2  1  0
  2  3  1  0
  4  3  1  6
  4  5  1  0
  5  6  1  0
  6  7  2  0
  6  8  1  0
  8  9  2  0
  9 10  1  0
 10 11  2  0
 11 12  1  0
 12 13  2  0
 11 14  1  0
 14 15  1  0
 15 16  2  0
 15 17  1  0
 17 18  1  0
  4 19  1  0
 19 20  1  0
 20 21  1  0
 13  8  1  0
 21 19  1  0
 18 10  1  0
M  END
>  <energy_score>  (2027) 
-15.421166

>  <inchikey>  (2027) 
QFWSZRTWZPOBFW-UHFFFAOYSA-N

>  <smiles>  (2027) 
CCCC(NC(=O)c1cc2c(cn1)NC(=O)CO2)C1CC1

>  <ref_pdb>  (2027) 
A1068a

>  <alias>  (2027) 
QFWSZRTWZPOBFW-UHFFFAOYSA-N-P198-P37-P198-601513

>  <HIPPO Pose ID>  (2027) 
523691

>  <name>  (2027) 
QFWSZRTWZPOBFW-UHFFFAOYSA-N-P198-P37-P198-601513

>  <HIPPO Compound ID>  (2027) 
302303

>  <ref_mols>  (2027) 
A0310a,A3618a

>  <distance_score>  (2027) 
1.924488

>  <inspiration_score>  (2027) 
None

$$$$
MWYICUHDZHAABN-UHFFFAOYSA-N-P37-P37-P198-601513
     RDKit          3D

 21 23  0  0  0  0  0  0  0  0999 V2000
    0.4000   14.3920   27.7398 C   0  0  0  0  0  0  0  0  0  0  0  0
    1.6909   13.8611   27.1282 C   0  0  0  0  0  0  0  0  0  0  0  0
    3.0088   14.3869   27.7718 C   0  0  1  0  0  0  0  0  0  0  0  0
    3.0473   14.0989   29.2839 C   0  0  0  0  0  0  0  0  0  0  0  0
    4.1276   13.6976   27.1314 N   0  0  0  0  0  0  0  0  0  0  0  0
    4.6202   12.2461   27.2718 C   0  0  0  0  0  0  0  0  0  0  0  0
    4.1673   11.3483   27.8609 O   0  0  0  0  0  0  0  0  0  0  0  0
    5.8653   12.0605   26.4367 C   0  0  0  0  0  0  0  0  0  0  0  0
    6.3697   10.7885   26.2087 C   0  0  0  0  0  0  0  0  0  0  0  0
    7.4380   10.6665   25.3262 C   0  0  0  0  0  0  0  0  0  0  0  0
    7.9814   11.7938   24.7256 C   0  0  0  0  0  0  0  0  0  0  0  0
    7.4348   13.0280   25.0418 C   0  0  0  0  0  0  0  0  0  0  0  0
    6.3911   13.1931   25.8876 N   0  0  0  0  0  0  0  0  0  0  0  0
    9.0414   11.6656   23.8300 N   0  0  0  0  0  0  0  0  0  0  0  0
    9.4998   10.4441   23.4307 C   0  0  0  0  0  0  0  0  0  0  0  0
   10.3985   10.3192   22.6137 O   0  0  0  0  0  0  0  0  0  0  0  0
    8.7866    9.2550   23.9942 C   0  0  0  0  0  0  0  0  0  0  0  0
    7.9123    9.4112   25.0970 O   0  0  0  0  0  0  0  0  0  0  0  0
    3.1244   15.8973   27.5703 C   0  0  0  0  0  0  0  0  0  0  0  0
    3.6150   16.5312   26.2894 C   0  0  0  0  0  0  0  0  0  0  0  0
    4.4495   16.6287   27.5394 C   0  0  0  0  0  0  0  0  0  0  0  0
  1  2  1  0
  2  3  1  0
  3  4  1  1
  3  5  1  0
  5  6  1  0
  6  7  2  0
  6  8  1  0
  8  9  2  0
  9 10  1  0
 10 11  2  0
 11 12  1  0
 12 13  2  0
 11 14  1  0
 14 15  1  0
 15 16  2  0
 15 17  1  0
 17 18  1  0
  3 19  1  0
 19 20  1  0
 20 21  1  0
 13  8  1  0
 21 19  1  0
 18 10  1  0
M  END
>  <energy_score>  (2028) 
-42.135413

>  <inchikey>  (2028) 
MWYICUHDZHAABN-UHFFFAOYSA-N

>  <smiles>  (2028) 
CCC(C)(NC(=O)c1cc2c(cn1)NC(=O)CO2)C1CC1

>  <ref_pdb>  (2028) 
A1068a

>  <alias>  (2028) 
MWYICUHDZHAABN-UHFFFAOYSA-N-P37-P37-P198-601513

>  <HIPPO Pose ID>  (2028) 
523696

>  <name>  (2028) 
MWYICUHDZHAABN-UHFFFAOYSA-N-P37-P37-P198-601513

>  <HIPPO Compound ID>  (2028) 
302306

>  <ref_mols>  (2028) 
A0310a,A3618a

>  <distance_score>  (2028) 
1.666245

>  <inspiration_score>  (2028) 
None

$$$$
AJUHCQCUFFYGQR-UHFFFAOYSA-N-P198-P37-P198-601513
     RDKit          3D

 21 23  0  0  0  0  0  0  0  0999 V2000
    0.5700   12.9114   27.0620 C   0  0  0  0  0  0  0  0  0  0  0  0
    1.1522   14.2920   26.7567 C   0  0  0  0  0  0  0  0  0  0  0  0
    1.1787   14.5184   25.2409 C   0  0  0  0  0  0  0  0  0  0  0  0
    2.5295   14.4990   27.4390 C   0  0  1  0  0  0  0  0  0  0  0  0
    3.5925   13.7522   26.8142 N   0  0  0  0  0  0  0  0  0  0  0  0
    4.0246   12.2884   26.9953 C   0  0  0  0  0  0  0  0  0  0  0  0
    3.5442   11.4317   27.6198 O   0  0  0  0  0  0  0  0  0  0  0  0
    5.2736   12.0372   26.1866 C   0  0  0  0  0  0  0  0  0  0  0  0
    5.7308   10.7441   25.9898 C   0  0  0  0  0  0  0  0  0  0  0  0
    6.8557   10.5775   25.1910 C   0  0  0  0  0  0  0  0  0  0  0  0
    7.4942   11.6782   24.6340 C   0  0  0  0  0  0  0  0  0  0  0  0
    6.9806   12.9349   24.9068 C   0  0  0  0  0  0  0  0  0  0  0  0
    5.8869   13.1465   25.6732 N   0  0  0  0  0  0  0  0  0  0  0  0
    8.6082   11.5047   23.8146 N   0  0  0  0  0  0  0  0  0  0  0  0
    9.0215   10.2624   23.4304 C   0  0  0  0  0  0  0  0  0  0  0  0
    9.9140   10.1015   22.6117 O   0  0  0  0  0  0  0  0  0  0  0  0
    8.2452    9.1065   23.9782 C   0  0  0  0  0  0  0  0  0  0  0  0
    7.2895    9.3028   25.0054 O   0  0  0  0  0  0  0  0  0  0  0  0
    2.9265   15.9542   27.4696 C   0  0  0  0  0  0  0  0  0  0  0  0
    3.8970   16.4515   28.5133 C   0  0  0  0  0  0  0  0  0  0  0  0
    2.4504   16.8545   28.5823 C   0  0  0  0  0  0  0  0  0  0  0  0
  1  2  1  0
  2  3  1  0
  2  4  1  0
  4  5  1  6
  5  6  1  0
  6  7  2  0
  6  8  1  0
  8  9  2  0
  9 10  1  0
 10 11  2  0
 11 12  1  0
 12 13  2  0
 11 14  1  0
 14 15  1  0
 15 16  2  0
 15 17  1  0
 17 18  1  0
  4 19  1  0
 19 20  1  0
 20 21  1  0
 13  8  1  0
 21 19  1  0
 18 10  1  0
M  END
>  <energy_score>  (2029) 
-14.448886

>  <inchikey>  (2029) 
AJUHCQCUFFYGQR-UHFFFAOYSA-N

>  <smiles>  (2029) 
CC(C)C(NC(=O)c1cc2c(cn1)NC(=O)CO2)C1CC1

>  <ref_pdb>  (2029) 
A1068a

>  <alias>  (2029) 
AJUHCQCUFFYGQR-UHFFFAOYSA-N-P198-P37-P198-601513

>  <HIPPO Pose ID>  (2029) 
523699

>  <name>  (2029) 
AJUHCQCUFFYGQR-UHFFFAOYSA-N-P198-P37-P198-601513

>  <HIPPO Compound ID>  (2029) 
302307

>  <ref_mols>  (2029) 
A0310a,A3618a

>  <distance_score>  (2029) 
1.95481

>  <inspiration_score>  (2029) 
None

$$$$
OJRYYWZTIYUPJF-UHFFFAOYSA-N-P37-P37-P198-601513
     RDKit          3D

 21 23  0  0  0  0  0  0  0  0999 V2000
    0.8764   14.6486   26.1861 C   0  0  0  0  0  0  0  0  0  0  0  0
    1.6193   14.1871   27.0105 C   0  0  0  0  0  0  0  0  0  0  0  0
    2.5630   13.6375   28.0066 C   0  0  2  0  0  0  0  0  0  0  0  0
    3.0537   14.7374   28.9533 C   0  0  0  0  0  0  0  0  0  0  0  0
    3.6978   13.1075   27.2775 N   0  0  0  0  0  0  0  0  0  0  0  0
    4.7184   12.0234   27.6665 C   0  0  0  0  0  0  0  0  0  0  0  0
    4.7643   11.3298   28.6018 O   0  0  0  0  0  0  0  0  0  0  0  0
    5.7901   11.9371   26.6191 C   0  0  0  0  0  0  0  0  0  0  0  0
    6.4047   10.7234   26.3675 C   0  0  0  0  0  0  0  0  0  0  0  0
    7.3990   10.6951   25.3981 C   0  0  0  0  0  0  0  0  0  0  0  0
    7.7762   11.8584   24.7441 C   0  0  0  0  0  0  0  0  0  0  0  0
    7.0969   13.0268   25.0574 C   0  0  0  0  0  0  0  0  0  0  0  0
    6.0959   13.0940   25.9703 N   0  0  0  0  0  0  0  0  0  0  0  0
    8.8180   11.8244   23.8172 N   0  0  0  0  0  0  0  0  0  0  0  0
    9.4235   10.6530   23.4580 C   0  0  0  0  0  0  0  0  0  0  0  0
   10.3552   10.6127   22.6699 O   0  0  0  0  0  0  0  0  0  0  0  0
    8.8292    9.4021   24.0277 C   0  0  0  0  0  0  0  0  0  0  0  0
    7.9926    9.4963   25.1651 O   0  0  0  0  0  0  0  0  0  0  0  0
    1.8346   12.5555   28.7873 C   0  0  0  0  0  0  0  0  0  0  0  0
    0.5638   12.8587   29.5617 C   0  0  0  0  0  0  0  0  0  0  0  0
    0.5226   11.8854   28.4201 C   0  0  0  0  0  0  0  0  0  0  0  0
  1  2  3  0
  2  3  1  0
  3  4  1  1
  3  5  1  0
  5  6  1  0
  6  7  2  0
  6  8  1  0
  8  9  2  0
  9 10  1  0
 10 11  2  0
 11 12  1  0
 12 13  2  0
 11 14  1  0
 14 15  1  0
 15 16  2  0
 15 17  1  0
 17 18  1  0
  3 19  1  0
 19 20  1  0
 20 21  1  0
 13  8  1  0
 21 19  1  0
 18 10  1  0
M  END
>  <energy_score>  (2030) 
-24.292581

>  <inchikey>  (2030) 
OJRYYWZTIYUPJF-UHFFFAOYSA-N

>  <smiles>  (2030) 
C#CC(C)(NC(=O)c1cc2c(cn1)NC(=O)CO2)C1CC1

>  <ref_pdb>  (2030) 
A1068a

>  <alias>  (2030) 
OJRYYWZTIYUPJF-UHFFFAOYSA-N-P37-P37-P198-601513

>  <HIPPO Pose ID>  (2030) 
523712

>  <name>  (2030) 
OJRYYWZTIYUPJF-UHFFFAOYSA-N-P37-P37-P198-601513

>  <HIPPO Compound ID>  (2030) 
302314

>  <ref_mols>  (2030) 
A0310a,A3618a

>  <distance_score>  (2030) 
1.640015

>  <inspiration_score>  (2030) 
None

$$$$
OXNYUNDTAGZFLZ-UHFFFAOYSA-N-P198-P37-P198-601513
     RDKit          3D

 21 24  0  0  0  0  0  0  0  0999 V2000
    9.7799    9.8592   22.8037 O   0  0  0  0  0  0  0  0  0  0  0  0
    9.0291   10.5415   23.4856 C   0  0  0  0  0  0  0  0  0  0  0  0
    9.0035   12.0756   23.5277 C   0  0  0  0  0  0  0  0  0  0  0  0
    7.7390   12.7058   23.7487 O   0  0  0  0  0  0  0  0  0  0  0  0
    6.9572   12.0521   24.6735 C   0  0  0  0  0  0  0  0  0  0  0  0
    5.9251   12.7735   25.1745 N   0  0  0  0  0  0  0  0  0  0  0  0
    5.1020   12.1349   26.0459 C   0  0  0  0  0  0  0  0  0  0  0  0
    3.8484   12.8085   26.5068 C   0  0  0  0  0  0  0  0  0  0  0  0
    3.3664   12.4812   27.5165 O   0  0  0  0  0  0  0  0  0  0  0  0
    3.3555   13.8007   25.4439 N   0  0  0  0  0  0  0  0  0  0  0  0
    2.2205   14.6666   25.4385 C   0  0  2  0  0  0  0  0  0  0  0  0
    1.0239   14.2185   26.2766 C   0  0  0  0  0  0  0  0  0  0  0  0
    0.7803   12.8156   26.1197 O   0  0  0  0  0  0  0  0  0  0  0  0
    1.9223   15.4670   24.1491 C   0  0  0  0  0  0  0  0  0  0  0  0
    2.4477   16.1144   25.3428 C   0  0  0  0  0  0  0  0  0  0  0  0
    3.5606   17.0167   25.6316 C   0  0  0  0  0  0  0  0  0  0  0  0
    2.1432   17.2929   26.1470 C   0  0  0  0  0  0  0  0  0  0  0  0
    5.2603   10.8169   26.4172 C   0  0  0  0  0  0  0  0  0  0  0  0
    6.2861   10.1015   25.8328 C   0  0  0  0  0  0  0  0  0  0  0  0
    7.1580   10.7113   24.9626 C   0  0  0  0  0  0  0  0  0  0  0  0
    8.1420    9.9570   24.3382 N   0  0  0  0  0  0  0  0  0  0  0  0
  1  2  2  0
  2  3  1  0
  3  4  1  0
  4  5  1  0
  5  6  2  0
  6  7  1  0
  7  8  1  0
  8  9  2  0
  8 10  1  0
 10 11  1  0
 11 12  1  1
 12 13  1  0
 11 14  1  0
 14 15  1  0
 15 16  1  0
 16 17  1  0
  7 18  2  0
 18 19  1  0
 19 20  2  0
 20 21  1  0
 21  2  1  0
 20  5  1  0
 15 11  1  0
 17 15  1  0
M  END
>  <energy_score>  (2031) 
-24.984519

>  <inchikey>  (2031) 
OXNYUNDTAGZFLZ-UHFFFAOYSA-N

>  <smiles>  (2031) 
O=C1COc2nc(C(=O)NC3(CO)CC34CC4)ccc2N1

>  <ref_pdb>  (2031) 
A1068a

>  <alias>  (2031) 
OXNYUNDTAGZFLZ-UHFFFAOYSA-N-P198-P37-P198-601513

>  <HIPPO Pose ID>  (2031) 
523733

>  <name>  (2031) 
OXNYUNDTAGZFLZ-UHFFFAOYSA-N-P198-P37-P198-601513

>  <HIPPO Compound ID>  (2031) 
302324

>  <ref_mols>  (2031) 
A0310a,A3618a

>  <distance_score>  (2031) 
1.877295

>  <inspiration_score>  (2031) 
None

$$$$
HQAHIBWHTSVMNY-UHFFFAOYSA-N-P198-P37-P198-601513
     RDKit          3D

 21 23  0  0  0  0  0  0  0  0999 V2000
   -1.1136   15.2147   25.0926 C   0  0  0  0  0  0  0  0  0  0  0  0
   -0.0616   14.8208   25.5171 C   0  0  0  0  0  0  0  0  0  0  0  0
    1.2301   14.3350   26.0402 C   0  0  0  0  0  0  0  0  0  0  0  0
    2.4322   14.9669   25.2979 C   0  0  2  0  0  0  0  0  0  0  0  0
    3.5960   14.1067   25.3686 N   0  0  0  0  0  0  0  0  0  0  0  0
    4.0938   13.1939   26.4964 C   0  0  0  0  0  0  0  0  0  0  0  0
    3.6921   13.0436   27.5789 O   0  0  0  0  0  0  0  0  0  0  0  0
    5.2229   12.3445   26.0057 C   0  0  0  0  0  0  0  0  0  0  0  0
    5.2818   11.0398   26.4493 C   0  0  0  0  0  0  0  0  0  0  0  0
    6.2362   10.2065   25.8893 C   0  0  0  0  0  0  0  0  0  0  0  0
    7.1376   10.6996   24.9703 C   0  0  0  0  0  0  0  0  0  0  0  0
    7.0206   12.0316   24.6004 C   0  0  0  0  0  0  0  0  0  0  0  0
    6.0619   12.8580   25.0723 N   0  0  0  0  0  0  0  0  0  0  0  0
    7.8184   12.5699   23.6200 O   0  0  0  0  0  0  0  0  0  0  0  0
    9.0670   11.8927   23.4877 C   0  0  0  0  0  0  0  0  0  0  0  0
    9.0221   10.3599   23.5252 C   0  0  0  0  0  0  0  0  0  0  0  0
    9.7697    9.6190   22.9020 O   0  0  0  0  0  0  0  0  0  0  0  0
    8.0802    9.8613   24.3820 N   0  0  0  0  0  0  0  0  0  0  0  0
    2.8604   16.3441   25.7423 C   0  0  0  0  0  0  0  0  0  0  0  0
    3.2044   16.6478   27.1819 C   0  0  0  0  0  0  0  0  0  0  0  0
    2.0053   17.2959   26.5465 C   0  0  0  0  0  0  0  0  0  0  0  0
  1  2  3  0
  2  3  1  0
  4  3  1  1
  4  5  1  0
  5  6  1  0
  6  7  2  0
  6  8  1  0
  8  9  2  0
  9 10  1  0
 10 11  2  0
 11 12  1  0
 12 13  2  0
 12 14  1  0
 14 15  1  0
 15 16  1  0
 16 17  2  0
 16 18  1  0
  4 19  1  0
 19 20  1  0
 20 21  1  0
 13  8  1  0
 21 19  1  0
 18 11  1  0
M  END
>  <energy_score>  (2032) 
-2.258975

>  <inchikey>  (2032) 
HQAHIBWHTSVMNY-UHFFFAOYSA-N

>  <smiles>  (2032) 
C#CCC(NC(=O)c1ccc2c(n1)OCC(=O)N2)C1CC1

>  <ref_pdb>  (2032) 
A1068a

>  <alias>  (2032) 
HQAHIBWHTSVMNY-UHFFFAOYSA-N-P198-P37-P198-601513

>  <HIPPO Pose ID>  (2032) 
523739

>  <name>  (2032) 
HQAHIBWHTSVMNY-UHFFFAOYSA-N-P198-P37-P198-601513

>  <HIPPO Compound ID>  (2032) 
302327

>  <ref_mols>  (2032) 
A0310a,A3618a

>  <distance_score>  (2032) 
1.943292

>  <inspiration_score>  (2032) 
None

$$$$
DPXJALSUYJGHHJ-UHFFFAOYSA-N-P198-P37-P198-601513
     RDKit          3D

 21 23  0  0  0  0  0  0  0  0999 V2000
   -0.7825   13.2768   25.9181 C   0  0  0  0  0  0  0  0  0  0  0  0
    0.5270   13.4718   25.3941 O   0  0  0  0  0  0  0  0  0  0  0  0
    1.1965   14.5314   26.1077 C   0  0  0  0  0  0  0  0  0  0  0  0
    2.4313   15.0377   25.3227 C   0  0  2  0  0  0  0  0  0  0  0  0
    3.5382   14.1039   25.3465 N   0  0  0  0  0  0  0  0  0  0  0  0
    4.0879   13.2377   26.4880 C   0  0  0  0  0  0  0  0  0  0  0  0
    3.7885   13.1918   27.6128 O   0  0  0  0  0  0  0  0  0  0  0  0
    5.1785   12.3517   25.9796 C   0  0  0  0  0  0  0  0  0  0  0  0
    5.2308   11.0541   26.4406 C   0  0  0  0  0  0  0  0  0  0  0  0
    6.1911   10.2128   25.8992 C   0  0  0  0  0  0  0  0  0  0  0  0
    7.1014   10.6931   24.9800 C   0  0  0  0  0  0  0  0  0  0  0  0
    6.9887   12.0204   24.5933 C   0  0  0  0  0  0  0  0  0  0  0  0
    6.0288   12.8524   25.0490 N   0  0  0  0  0  0  0  0  0  0  0  0
    7.7946   12.5490   23.6145 O   0  0  0  0  0  0  0  0  0  0  0  0
    9.0435   11.8712   23.5001 C   0  0  0  0  0  0  0  0  0  0  0  0
    8.9984   10.3392   23.5517 C   0  0  0  0  0  0  0  0  0  0  0  0
    9.7537    9.5949   22.9414 O   0  0  0  0  0  0  0  0  0  0  0  0
    8.0495    9.8488   24.4071 N   0  0  0  0  0  0  0  0  0  0  0  0
    2.9883   16.3732   25.7587 C   0  0  0  0  0  0  0  0  0  0  0  0
    3.2180   16.7027   27.2145 C   0  0  0  0  0  0  0  0  0  0  0  0
    2.1937   17.4727   26.4257 C   0  0  0  0  0  0  0  0  0  0  0  0
  1  2  1  0
  2  3  1  0
  4  3  1  1
  4  5  1  0
  5  6  1  0
  6  7  2  0
  6  8  1  0
  8  9  2  0
  9 10  1  0
 10 11  2  0
 11 12  1  0
 12 13  2  0
 12 14  1  0
 14 15  1  0
 15 16  1  0
 16 17  2  0
 16 18  1  0
  4 19  1  0
 19 20  1  0
 20 21  1  0
 13  8  1  0
 21 19  1  0
 18 11  1  0
M  END
>  <energy_score>  (2033) 
-6.179308

>  <inchikey>  (2033) 
DPXJALSUYJGHHJ-UHFFFAOYSA-N

>  <smiles>  (2033) 
COCC(NC(=O)c1ccc2c(n1)OCC(=O)N2)C1CC1

>  <ref_pdb>  (2033) 
A1068a

>  <alias>  (2033) 
DPXJALSUYJGHHJ-UHFFFAOYSA-N-P198-P37-P198-601513

>  <HIPPO Pose ID>  (2033) 
523741

>  <name>  (2033) 
DPXJALSUYJGHHJ-UHFFFAOYSA-N-P198-P37-P198-601513

>  <HIPPO Compound ID>  (2033) 
302328

>  <ref_mols>  (2033) 
A0310a,A3618a

>  <distance_score>  (2033) 
1.995747

>  <inspiration_score>  (2033) 
None

$$$$
LXKIJFRTEUOQDX-UHFFFAOYSA-N-P37-P37-P198-601513
     RDKit          3D

 21 23  0  0  0  0  0  0  0  0999 V2000
   10.3665   10.1020   22.6239 O   0  0  0  0  0  0  0  0  0  0  0  0
    9.4890   10.3558   23.4346 C   0  0  0  0  0  0  0  0  0  0  0  0
    8.6786    9.2762   24.0837 C   0  0  0  0  0  0  0  0  0  0  0  0
    7.7723    9.5632   25.1310 O   0  0  0  0  0  0  0  0  0  0  0  0
    7.3907   10.8661   25.2630 C   0  0  0  0  0  0  0  0  0  0  0  0
    6.3296   11.0634   26.0777 N   0  0  0  0  0  0  0  0  0  0  0  0
    5.9182   12.3471   26.2576 C   0  0  0  0  0  0  0  0  0  0  0  0
    4.7607   12.5610   27.2144 C   0  0  0  0  0  0  0  0  0  0  0  0
    4.7673   11.9574   28.2132 O   0  0  0  0  0  0  0  0  0  0  0  0
    3.7920   13.6602   26.7130 N   0  0  0  0  0  0  0  0  0  0  0  0
    2.5651   14.1809   27.3025 C   0  0  2  0  0  0  0  0  0  0  0  0
    1.3125   13.6904   26.5448 C   0  0  0  0  0  0  0  0  0  0  0  0
    0.1109   14.0265   27.2407 O   0  0  0  0  0  0  0  0  0  0  0  0
    2.5725   15.7037   27.4056 C   0  0  0  0  0  0  0  0  0  0  0  0
    1.4308   16.2562   28.0954 O   0  0  0  0  0  0  0  0  0  0  0  0
    3.8523   16.4692   27.6485 C   0  0  0  0  0  0  0  0  0  0  0  0
    3.1432   16.5939   26.3281 C   0  0  0  0  0  0  0  0  0  0  0  0
    6.5547   13.4356   25.6677 C   0  0  0  0  0  0  0  0  0  0  0  0
    7.6414   13.2008   24.8255 C   0  0  0  0  0  0  0  0  0  0  0  0
    8.0626   11.8956   24.6121 C   0  0  0  0  0  0  0  0  0  0  0  0
    9.1310   11.6321   23.7553 N   0  0  0  0  0  0  0  0  0  0  0  0
  1  2  2  0
  2  3  1  0
  3  4  1  0
  4  5  1  0
  5  6  2  0
  6  7  1  0
  7  8  1  0
  8  9  2  0
  8 10  1  0
 10 11  1  0
 11 12  1  6
 12 13  1  0
 11 14  1  0
 14 15  1  0
 14 16  1  0
 16 17  1  0
  7 18  2  0
 18 19  1  0
 19 20  2  0
 20 21  1  0
 21  2  1  0
 20  5  1  0
 17 14  1  0
M  END
>  <energy_score>  (2034) 
-1.770742

>  <inchikey>  (2034) 
LXKIJFRTEUOQDX-UHFFFAOYSA-N

>  <smiles>  (2034) 
O=C1COc2nc(C(=O)NC(CO)C3(O)CC3)ccc2N1

>  <ref_pdb>  (2034) 
A1068a

>  <alias>  (2034) 
LXKIJFRTEUOQDX-UHFFFAOYSA-N-P37-P37-P198-601513

>  <HIPPO Pose ID>  (2034) 
523748

>  <name>  (2034) 
LXKIJFRTEUOQDX-UHFFFAOYSA-N-P37-P37-P198-601513

>  <HIPPO Compound ID>  (2034) 
302332

>  <ref_mols>  (2034) 
A0310a,A3618a

>  <distance_score>  (2034) 
1.705153

>  <inspiration_score>  (2034) 
None

$$$$
QBAIPWFYCTXYJN-UHFFFAOYSA-N-P198-P37-P198-601513
     RDKit          3D

 22 24  0  0  0  0  0  0  0  0999 V2000
   -0.3802   13.4417   24.8828 C   0  0  0  0  0  0  0  0  0  0  0  0
    0.9548   13.3689   25.3686 O   0  0  0  0  0  0  0  0  0  0  0  0
    1.0509   13.8234   26.7280 C   0  0  0  0  0  0  0  0  0  0  0  0
    2.4383   14.4546   27.0508 C   0  0  1  0  0  0  0  0  0  0  0  0
    2.5171   14.5876   28.5857 C   0  0  0  0  0  0  0  0  0  0  0  0
    3.5116   13.6027   26.5582 N   0  0  0  0  0  0  0  0  0  0  0  0
    5.0132   13.5764   26.9126 C   0  0  0  0  0  0  0  0  0  0  0  0
    5.6123   14.1804   27.7106 O   0  0  0  0  0  0  0  0  0  0  0  0
    5.7318   12.5498   26.1059 C   0  0  0  0  0  0  0  0  0  0  0  0
    5.4651   11.2163   26.3431 C   0  0  0  0  0  0  0  0  0  0  0  0
    6.2591   10.2752   25.6985 C   0  0  0  0  0  0  0  0  0  0  0  0
    7.2793   10.6884   24.8559 C   0  0  0  0  0  0  0  0  0  0  0  0
    7.4321   12.0473   24.6356 C   0  0  0  0  0  0  0  0  0  0  0  0
    6.6846   12.9819   25.2513 N   0  0  0  0  0  0  0  0  0  0  0  0
    8.3151   12.5474   23.7157 O   0  0  0  0  0  0  0  0  0  0  0  0
    9.3815   11.6695   23.3874 C   0  0  0  0  0  0  0  0  0  0  0  0
    9.1422   10.1529   23.4320 C   0  0  0  0  0  0  0  0  0  0  0  0
    9.8166    9.3267   22.8297 O   0  0  0  0  0  0  0  0  0  0  0  0
    8.1013    9.7599   24.2267 N   0  0  0  0  0  0  0  0  0  0  0  0
    2.6820   15.8244   26.4357 C   0  0  0  0  0  0  0  0  0  0  0  0
    2.6234   16.0363   24.9415 C   0  0  0  0  0  0  0  0  0  0  0  0
    1.6263   16.7229   25.8340 C   0  0  0  0  0  0  0  0  0  0  0  0
  1  2  1  0
  2  3  1  0
  3  4  1  0
  4  5  1  1
  4  6  1  0
  6  7  1  0
  7  8  2  0
  7  9  1  0
  9 10  2  0
 10 11  1  0
 11 12  2  0
 12 13  1  0
 13 14  2  0
 13 15  1  0
 15 16  1  0
 16 17  1  0
 17 18  2  0
 17 19  1  0
  4 20  1  0
 20 21  1  0
 21 22  1  0
 14  9  1  0
 22 20  1  0
 19 12  1  0
M  END
>  <energy_score>  (2035) 
-22.558712

>  <inchikey>  (2035) 
QBAIPWFYCTXYJN-UHFFFAOYSA-N

>  <smiles>  (2035) 
COCC(C)(NC(=O)c1ccc2c(n1)OCC(=O)N2)C1CC1

>  <ref_pdb>  (2035) 
A1068a

>  <alias>  (2035) 
QBAIPWFYCTXYJN-UHFFFAOYSA-N-P198-P37-P198-601513

>  <HIPPO Pose ID>  (2035) 
523781

>  <name>  (2035) 
QBAIPWFYCTXYJN-UHFFFAOYSA-N-P198-P37-P198-601513

>  <HIPPO Compound ID>  (2035) 
302348

>  <ref_mols>  (2035) 
A0310a,A3618a

>  <distance_score>  (2035) 
1.993644

>  <inspiration_score>  (2035) 
None

$$$$
ATQHBSSLIDOZDR-UHFFFAOYSA-N-P198-P37-P198-601513
     RDKit          3D

 22 24  0  0  0  0  0  0  0  0999 V2000
    1.5512   14.4404   24.1447 C   0  0  0  0  0  0  0  0  0  0  0  0
    1.0893   15.3954   25.0871 O   0  0  0  0  0  0  0  0  0  0  0  0
    1.3323   15.0236   26.4542 C   0  0  0  0  0  0  0  0  0  0  0  0
    2.7657   15.3977   26.9700 C   0  0  2  0  0  0  0  0  0  0  0  0
    3.1640   16.7926   26.4543 C   0  0  0  0  0  0  0  0  0  0  0  0
    3.7536   14.4242   26.5101 N   0  0  0  0  0  0  0  0  0  0  0  0
    3.6835   12.8856   26.4333 C   0  0  0  0  0  0  0  0  0  0  0  0
    2.7985   12.1572   26.6526 O   0  0  0  0  0  0  0  0  0  0  0  0
    4.9860   12.2525   25.9744 C   0  0  0  0  0  0  0  0  0  0  0  0
    5.8915   12.8296   25.0982 C   0  0  0  0  0  0  0  0  0  0  0  0
    6.9688   12.0609   24.6406 C   0  0  0  0  0  0  0  0  0  0  0  0
    7.0864   10.7346   25.0139 C   0  0  0  0  0  0  0  0  0  0  0  0
    6.1480   10.2541   25.8929 C   0  0  0  0  0  0  0  0  0  0  0  0
    5.1490   10.9885   26.4136 N   0  0  0  0  0  0  0  0  0  0  0  0
    8.0493    9.9075   24.4414 N   0  0  0  0  0  0  0  0  0  0  0  0
    8.9827   10.4038   23.5754 C   0  0  0  0  0  0  0  0  0  0  0  0
    9.7290    9.6646   22.9464 O   0  0  0  0  0  0  0  0  0  0  0  0
    9.0344   11.9356   23.5339 C   0  0  0  0  0  0  0  0  0  0  0  0
    7.8089   12.6437   23.7271 O   0  0  0  0  0  0  0  0  0  0  0  0
    2.8970   15.3940   28.4919 C   0  0  0  0  0  0  0  0  0  0  0  0
    1.8237   15.8759   29.4409 C   0  0  0  0  0  0  0  0  0  0  0  0
    2.1607   14.4103   29.3712 C   0  0  0  0  0  0  0  0  0  0  0  0
  1  2  1  0
  2  3  1  0
  3  4  1  0
  4  5  1  6
  4  6  1  0
  6  7  1  0
  7  8  2  0
  7  9  1  0
  9 10  2  0
 10 11  1  0
 11 12  2  0
 12 13  1  0
 13 14  2  0
 12 15  1  0
 15 16  1  0
 16 17  2  0
 16 18  1  0
 18 19  1  0
  4 20  1  0
 20 21  1  0
 21 22  1  0
 14  9  1  0
 22 20  1  0
 19 11  1  0
M  END
>  <energy_score>  (2036) 
-14.997997

>  <inchikey>  (2036) 
ATQHBSSLIDOZDR-UHFFFAOYSA-N

>  <smiles>  (2036) 
COCC(C)(NC(=O)c1cc2c(cn1)NC(=O)CO2)C1CC1

>  <ref_pdb>  (2036) 
A1068a

>  <alias>  (2036) 
ATQHBSSLIDOZDR-UHFFFAOYSA-N-P198-P37-P198-601513

>  <HIPPO Pose ID>  (2036) 
523819

>  <name>  (2036) 
ATQHBSSLIDOZDR-UHFFFAOYSA-N-P198-P37-P198-601513

>  <HIPPO Compound ID>  (2036) 
302367

>  <ref_mols>  (2036) 
A0310a,A3618a

>  <distance_score>  (2036) 
1.887083

>  <inspiration_score>  (2036) 
None

$$$$
OMLOCEFKJSBTOK-UHFFFAOYSA-N-P198-P37-P198-601513
     RDKit          3D

 22 24  0  0  0  0  0  0  0  0999 V2000
    9.6394    9.3261   22.9951 O   0  0  0  0  0  0  0  0  0  0  0  0
    8.9713   10.1280   23.6392 C   0  0  0  0  0  0  0  0  0  0  0  0
    9.1863   11.6455   23.5921 C   0  0  0  0  0  0  0  0  0  0  0  0
    8.5250   12.4944   24.5191 O   0  0  0  0  0  0  0  0  0  0  0  0
    7.3620   11.9872   25.0201 C   0  0  0  0  0  0  0  0  0  0  0  0
    6.4885   12.9036   25.5958 C   0  0  0  0  0  0  0  0  0  0  0  0
    5.3296   12.4305   26.1743 C   0  0  0  0  0  0  0  0  0  0  0  0
    4.3181   13.3690   26.7793 C   0  0  0  0  0  0  0  0  0  0  0  0
    4.4967   14.5185   26.7752 O   0  0  0  0  0  0  0  0  0  0  0  0
    3.1350   12.5475   27.3106 N   0  0  0  0  0  0  0  0  0  0  0  0
    1.8640   12.9757   27.8704 C   0  0  2  0  0  0  0  0  0  0  0  0
    1.3045   11.8159   28.6606 C   0  0  0  0  0  0  0  0  0  0  0  0
    1.8759   11.4736   30.0152 C   0  0  0  0  0  0  0  0  0  0  0  0
    0.4897   12.0461   29.9090 C   0  0  0  0  0  0  0  0  0  0  0  0
    0.8579   13.4851   26.8110 C   0  0  0  0  0  0  0  0  0  0  0  0
   -0.2991   13.8903   27.3893 F   0  0  0  0  0  0  0  0  0  0  0  0
    0.5302   12.5048   25.9264 F   0  0  0  0  0  0  0  0  0  0  0  0
    1.3364   14.5264   26.0986 F   0  0  0  0  0  0  0  0  0  0  0  0
    5.0223   11.1128   26.2360 N   0  0  0  0  0  0  0  0  0  0  0  0
    5.8981   10.2548   25.6626 C   0  0  0  0  0  0  0  0  0  0  0  0
    7.0662   10.6372   25.0291 C   0  0  0  0  0  0  0  0  0  0  0  0
    7.9100    9.7214   24.4028 N   0  0  0  0  0  0  0  0  0  0  0  0
  1  2  2  0
  2  3  1  0
  3  4  1  0
  4  5  1  0
  5  6  2  0
  6  7  1  0
  7  8  1  0
  8  9  2  0
  8 10  1  0
 11 10  1  6
 11 12  1  0
 12 13  1  0
 13 14  1  0
 11 15  1  0
 15 16  1  0
 15 17  1  0
 15 18  1  0
  7 19  2  0
 19 20  1  0
 20 21  2  0
 21 22  1  0
 22  2  1  0
 21  5  1  0
 14 12  1  0
M  END
>  <energy_score>  (2037) 
-22.074134

>  <inchikey>  (2037) 
OMLOCEFKJSBTOK-UHFFFAOYSA-N

>  <smiles>  (2037) 
O=C1COc2cc(C(=O)NC(C3CC3)C(F)(F)F)ncc2N1

>  <ref_pdb>  (2037) 
A1068a

>  <alias>  (2037) 
OMLOCEFKJSBTOK-UHFFFAOYSA-N-P198-P37-P198-601513

>  <HIPPO Pose ID>  (2037) 
523823

>  <name>  (2037) 
OMLOCEFKJSBTOK-UHFFFAOYSA-N-P198-P37-P198-601513

>  <HIPPO Compound ID>  (2037) 
302369

>  <ref_mols>  (2037) 
A0310a,A3618a

>  <distance_score>  (2037) 
1.928009

>  <inspiration_score>  (2037) 
None

$$$$
KMLQQHWXDGKTCT-UHFFFAOYSA-N-P37-P37-P198-601513
     RDKit          3D

 22 25  0  0  0  0  0  0  0  0999 V2000
   10.3879   10.6585   22.7247 O   0  0  0  0  0  0  0  0  0  0  0  0
    9.4404   10.6757   23.4952 C   0  0  0  0  0  0  0  0  0  0  0  0
    8.8447    9.4096   24.0313 C   0  0  0  0  0  0  0  0  0  0  0  0
    8.0247    9.4803   25.1833 O   0  0  0  0  0  0  0  0  0  0  0  0
    7.4028   10.6658   25.4194 C   0  0  0  0  0  0  0  0  0  0  0  0
    6.3866   10.6644   26.3659 C   0  0  0  0  0  0  0  0  0  0  0  0
    5.7518   11.8653   26.6347 C   0  0  0  0  0  0  0  0  0  0  0  0
    4.6031   11.8901   27.6094 C   0  0  0  0  0  0  0  0  0  0  0  0
    4.4655   11.0180   28.3689 O   0  0  0  0  0  0  0  0  0  0  0  0
    3.7410   13.1375   27.3576 N   0  0  0  0  0  0  0  0  0  0  0  0
    2.5733   13.6278   28.0534 C   0  0  1  0  0  0  0  0  0  0  0  0
    2.1952   15.0074   27.5234 C   0  0  0  0  0  0  0  0  0  0  0  0
    2.1186   15.3135   25.9990 C   0  0  0  0  0  0  0  0  0  0  0  0
    2.6444   16.7260   26.3319 C   0  0  0  0  0  0  0  0  0  0  0  0
    3.2597   16.1360   27.6140 C   0  0  0  0  0  0  0  0  0  0  0  0
    1.4340   12.6687   27.8589 C   0  0  0  0  0  0  0  0  0  0  0  0
    1.2540   11.4895   28.7853 C   0  0  0  0  0  0  0  0  0  0  0  0
    0.2916   12.6404   28.8456 C   0  0  0  0  0  0  0  0  0  0  0  0
    6.0737   13.0444   26.0314 N   0  0  0  0  0  0  0  0  0  0  0  0
    7.0867   13.0028   25.1284 C   0  0  0  0  0  0  0  0  0  0  0  0
    7.7749   11.8450   24.7922 C   0  0  0  0  0  0  0  0  0  0  0  0
    8.8231   11.8364   23.8714 N   0  0  0  0  0  0  0  0  0  0  0  0
  1  2  2  0
  2  3  1  0
  3  4  1  0
  4  5  1  0
  5  6  2  0
  6  7  1  0
  7  8  1  0
  8  9  2  0
  8 10  1  0
 11 10  1  6
 11 12  1  0
 12 13  1  0
 13 14  1  0
 14 15  1  0
 11 16  1  0
 16 17  1  0
 17 18  1  0
  7 19  2  0
 19 20  1  0
 20 21  2  0
 21 22  1  0
 22  2  1  0
 21  5  1  0
 15 12  1  0
 18 16  1  0
M  END
>  <energy_score>  (2038) 
-18.734751

>  <inchikey>  (2038) 
KMLQQHWXDGKTCT-UHFFFAOYSA-N

>  <smiles>  (2038) 
O=C1COc2cc(C(=O)NC(C3CCC3)C3CC3)ncc2N1

>  <ref_pdb>  (2038) 
A1068a

>  <alias>  (2038) 
KMLQQHWXDGKTCT-UHFFFAOYSA-N-P37-P37-P198-601513

>  <HIPPO Pose ID>  (2038) 
523824

>  <name>  (2038) 
KMLQQHWXDGKTCT-UHFFFAOYSA-N-P37-P37-P198-601513

>  <HIPPO Compound ID>  (2038) 
302370

>  <ref_mols>  (2038) 
A0310a,A3618a

>  <distance_score>  (2038) 
1.903621

>  <inspiration_score>  (2038) 
None

$$$$
HNSNCWQDIVQWSL-UHFFFAOYSA-N-P37-P37-P198-601513
     RDKit          3D

 22 24  0  0  0  0  0  0  0  0999 V2000
    1.5037   14.5637   25.5530 C   0  0  0  0  0  0  0  0  0  0  0  0
    1.3303   14.0105   26.9750 C   0  0  0  0  0  0  0  0  0  0  0  0
    0.1875   14.7761   27.6639 C   0  0  0  0  0  0  0  0  0  0  0  0
    0.9315   12.6332   26.8539 O   0  0  0  0  0  0  0  0  0  0  0  0
    2.6691   14.1741   27.7873 C   0  0  2  0  0  0  0  0  0  0  0  0
    3.8313   13.5699   27.1522 N   0  0  0  0  0  0  0  0  0  0  0  0
    4.4538   12.1709   27.3270 C   0  0  0  0  0  0  0  0  0  0  0  0
    4.0901   11.2542   27.9494 O   0  0  0  0  0  0  0  0  0  0  0  0
    5.7049   12.0643   26.4855 C   0  0  0  0  0  0  0  0  0  0  0  0
    6.2843   10.8233   26.2630 C   0  0  0  0  0  0  0  0  0  0  0  0
    7.3554   10.7574   25.3782 C   0  0  0  0  0  0  0  0  0  0  0  0
    7.8357   11.9072   24.7703 C   0  0  0  0  0  0  0  0  0  0  0  0
    7.2174   13.1097   25.0808 C   0  0  0  0  0  0  0  0  0  0  0  0
    6.1620   13.2216   25.9255 N   0  0  0  0  0  0  0  0  0  0  0  0
    8.9043   11.8282   23.8764 N   0  0  0  0  0  0  0  0  0  0  0  0
    9.4371   10.6297   23.4939 C   0  0  0  0  0  0  0  0  0  0  0  0
   10.3596   10.5477   22.6969 O   0  0  0  0  0  0  0  0  0  0  0  0
    8.7796    9.4069   24.0565 C   0  0  0  0  0  0  0  0  0  0  0  0
    7.8979    9.5316   25.1570 O   0  0  0  0  0  0  0  0  0  0  0  0
    2.5656   13.6819   29.2099 C   0  0  0  0  0  0  0  0  0  0  0  0
    2.2500   14.6250   30.3477 C   0  0  0  0  0  0  0  0  0  0  0  0
    3.6283   14.0439   30.2226 C   0  0  0  0  0  0  0  0  0  0  0  0
  1  2  1  0
  2  3  1  0
  2  4  1  0
  2  5  1  0
  5  6  1  6
  6  7  1  0
  7  8  2  0
  7  9  1  0
  9 10  2  0
 10 11  1  0
 11 12  2  0
 12 13  1  0
 13 14  2  0
 12 15  1  0
 15 16  1  0
 16 17  2  0
 16 18  1  0
 18 19  1  0
  5 20  1  0
 20 21  1  0
 21 22  1  0
 14  9  1  0
 22 20  1  0
 19 11  1  0
M  END
>  <energy_score>  (2039) 
-24.738308

>  <inchikey>  (2039) 
HNSNCWQDIVQWSL-UHFFFAOYSA-N

>  <smiles>  (2039) 
CC(C)(O)C(NC(=O)c1cc2c(cn1)NC(=O)CO2)C1CC1

>  <ref_pdb>  (2039) 
A1068a

>  <alias>  (2039) 
HNSNCWQDIVQWSL-UHFFFAOYSA-N-P37-P37-P198-601513

>  <HIPPO Pose ID>  (2039) 
523826

>  <name>  (2039) 
HNSNCWQDIVQWSL-UHFFFAOYSA-N-P37-P37-P198-601513

>  <HIPPO Compound ID>  (2039) 
302371

>  <ref_mols>  (2039) 
A0310a,A3618a

>  <distance_score>  (2039) 
1.912235

>  <inspiration_score>  (2039) 
None

$$$$
NYEJLTXBVDKXGA-UHFFFAOYSA-N-P37-P37-P198-601513
     RDKit          3D

 22 24  0  0  0  0  0  0  0  0999 V2000
    0.5365   15.1305   29.3142 C   0  0  0  0  0  0  0  0  0  0  0  0
    0.2998   14.1084   28.2987 N   0  0  0  0  0  0  0  0  0  0  0  0
   -0.2572   12.9001   28.9031 C   0  0  0  0  0  0  0  0  0  0  0  0
    1.4521   13.8178   27.4234 C   0  0  2  0  0  0  0  0  0  0  0  0
    2.7889   13.5684   28.1660 C   0  0  0  0  0  0  0  0  0  0  0  0
    3.8741   13.1084   27.3269 N   0  0  0  0  0  0  0  0  0  0  0  0
    5.0648   12.1798   27.6475 C   0  0  0  0  0  0  0  0  0  0  0  0
    5.3153   11.5791   28.6150 O   0  0  0  0  0  0  0  0  0  0  0  0
    6.0327   12.0903   26.4973 C   0  0  0  0  0  0  0  0  0  0  0  0
    6.4720   13.2374   25.8438 C   0  0  0  0  0  0  0  0  0  0  0  0
    7.4769   13.1097   24.8831 C   0  0  0  0  0  0  0  0  0  0  0  0
    8.0008   11.8505   24.6181 C   0  0  0  0  0  0  0  0  0  0  0  0
    7.4871   10.7595   25.3086 C   0  0  0  0  0  0  0  0  0  0  0  0
    6.5161   10.8525   26.2349 N   0  0  0  0  0  0  0  0  0  0  0  0
    7.9825    9.5036   25.1469 O   0  0  0  0  0  0  0  0  0  0  0  0
    8.7966    9.2903   24.0138 C   0  0  0  0  0  0  0  0  0  0  0  0
    9.5037   10.4433   23.3726 C   0  0  0  0  0  0  0  0  0  0  0  0
   10.3975   10.2696   22.5599 O   0  0  0  0  0  0  0  0  0  0  0  0
    9.0344   11.6839   23.6973 N   0  0  0  0  0  0  0  0  0  0  0  0
    1.5943   14.9666   26.4415 C   0  0  0  0  0  0  0  0  0  0  0  0
    0.4046   15.4278   25.6352 C   0  0  0  0  0  0  0  0  0  0  0  0
    1.5379   14.7193   24.9525 C   0  0  0  0  0  0  0  0  0  0  0  0
  1  2  1  0
  2  3  1  0
  2  4  1  0
  4  5  1  1
  5  6  1  0
  6  7  1  0
  7  8  2  0
  7  9  1  0
  9 10  2  0
 10 11  1  0
 11 12  2  0
 12 13  1  0
 13 14  2  0
 13 15  1  0
 15 16  1  0
 16 17  1  0
 17 18  2  0
 17 19  1  0
  4 20  1  0
 20 21  1  0
 21 22  1  0
 14  9  1  0
 22 20  1  0
 19 12  1  0
M  END
>  <energy_score>  (2040) 
-44.792368

>  <inchikey>  (2040) 
NYEJLTXBVDKXGA-UHFFFAOYSA-N

>  <smiles>  (2040) 
CN(C)C(CNC(=O)c1ccc2c(n1)OCC(=O)N2)C1CC1

>  <ref_pdb>  (2040) 
A1068a

>  <alias>  (2040) 
NYEJLTXBVDKXGA-UHFFFAOYSA-N-P37-P37-P198-601513

>  <HIPPO Pose ID>  (2040) 
523832

>  <name>  (2040) 
NYEJLTXBVDKXGA-UHFFFAOYSA-N-P37-P37-P198-601513

>  <HIPPO Compound ID>  (2040) 
302375

>  <ref_mols>  (2040) 
A0310a,A3618a

>  <distance_score>  (2040) 
1.641579

>  <inspiration_score>  (2040) 
None

$$$$
WQSNSLLJHVBKEF-UHFFFAOYSA-N-P37-P37-P198-601513
     RDKit          3D

 22 24  0  0  0  0  0  0  0  0999 V2000
   10.3685   10.6277   22.7465 O   0  0  0  0  0  0  0  0  0  0  0  0
    9.4158   10.6894   23.5089 C   0  0  0  0  0  0  0  0  0  0  0  0
    8.7912    9.4539   24.0823 C   0  0  0  0  0  0  0  0  0  0  0  0
    7.9402    9.5710   25.2086 O   0  0  0  0  0  0  0  0  0  0  0  0
    7.3474   10.7777   25.4073 C   0  0  0  0  0  0  0  0  0  0  0  0
    6.3136   10.8274   26.3360 C   0  0  0  0  0  0  0  0  0  0  0  0
    5.6893   12.0490   26.5399 C   0  0  0  0  0  0  0  0  0  0  0  0
    4.5202   12.1443   27.4850 C   0  0  0  0  0  0  0  0  0  0  0  0
    4.4413   11.4030   28.3812 O   0  0  0  0  0  0  0  0  0  0  0  0
    3.5742   13.2772   27.0389 N   0  0  0  0  0  0  0  0  0  0  0  0
    2.3702   13.8023   27.6620 C   0  0  1  0  0  0  0  0  0  0  0  0
    1.8657   15.1183   27.0757 C   0  0  0  0  0  0  0  0  0  0  0  0
    1.4276   14.9598   25.6562 N   0  0  0  0  0  0  0  0  0  0  0  0
    2.2918   14.6547   24.8246 O   0  0  0  0  0  0  0  0  0  0  0  0
    0.2386   15.1853   25.4003 O   0  0  0  0  0  0  0  0  0  0  0  0
    1.2902   12.7547   27.6800 C   0  0  0  0  0  0  0  0  0  0  0  0
    1.2458   11.6871   28.7465 C   0  0  0  0  0  0  0  0  0  0  0  0
    0.2231   12.7867   28.7479 C   0  0  0  0  0  0  0  0  0  0  0  0
    6.0447   13.1980   25.9029 N   0  0  0  0  0  0  0  0  0  0  0  0
    7.0788   13.1081   25.0281 C   0  0  0  0  0  0  0  0  0  0  0  0
    7.7546   11.9283   24.7479 C   0  0  0  0  0  0  0  0  0  0  0  0
    8.8171   11.8718   23.8441 N   0  0  0  0  0  0  0  0  0  0  0  0
  1  2  2  0
  2  3  1  0
  3  4  1  0
  4  5  1  0
  5  6  2  0
  6  7  1  0
  7  8  1  0
  8  9  2  0
  8 10  1  0
 10 11  1  0
 11 12  1  6
 12 13  1  0
 13 14  2  0
 13 15  1  0
 11 16  1  0
 16 17  1  0
 17 18  1  0
  7 19  2  0
 19 20  1  0
 20 21  2  0
 21 22  1  0
 22  2  1  0
 21  5  1  0
 18 16  1  0
M  CHG  2  13   1  15  -1
M  END
>  <energy_score>  (2041) 
-18.021864

>  <inchikey>  (2041) 
WQSNSLLJHVBKEF-UHFFFAOYSA-N

>  <smiles>  (2041) 
O=C1COc2cc(C(=O)NC(C[N+](=O)[O-])C3CC3)ncc2N1

>  <ref_pdb>  (2041) 
A1068a

>  <alias>  (2041) 
WQSNSLLJHVBKEF-UHFFFAOYSA-N-P37-P37-P198-601513

>  <HIPPO Pose ID>  (2041) 
523846

>  <name>  (2041) 
WQSNSLLJHVBKEF-UHFFFAOYSA-N-P37-P37-P198-601513

>  <HIPPO Compound ID>  (2041) 
302383

>  <ref_mols>  (2041) 
A0310a,A3618a

>  <distance_score>  (2041) 
1.573397

>  <inspiration_score>  (2041) 
None

$$$$
NUPZSZZBCDLIDT-UHFFFAOYSA-N-P37-P37-P198-601513
     RDKit          3D

 22 24  0  0  0  0  0  0  0  0999 V2000
    1.2084   12.7062   27.9970 C   0  0  0  0  0  0  0  0  0  0  0  0
    1.4984   13.8176   27.0106 C   0  0  0  0  0  0  0  0  0  0  0  0
    1.4413   13.3101   25.7488 F   0  0  0  0  0  0  0  0  0  0  0  0
    0.4765   14.7178   27.1007 F   0  0  0  0  0  0  0  0  0  0  0  0
    2.8507   14.5562   27.2337 C   0  0  1  0  0  0  0  0  0  0  0  0
    4.0516   13.8676   26.7761 N   0  0  0  0  0  0  0  0  0  0  0  0
    4.6327   12.5005   27.1743 C   0  0  0  0  0  0  0  0  0  0  0  0
    4.2868   11.7409   27.9863 O   0  0  0  0  0  0  0  0  0  0  0  0
    5.8611   12.2267   26.3347 C   0  0  0  0  0  0  0  0  0  0  0  0
    6.3604   10.9391   26.1955 C   0  0  0  0  0  0  0  0  0  0  0  0
    7.4273   10.7557   25.3183 C   0  0  0  0  0  0  0  0  0  0  0  0
    7.9825   11.8413   24.6515 C   0  0  0  0  0  0  0  0  0  0  0  0
    7.4389   13.0943   24.8824 C   0  0  0  0  0  0  0  0  0  0  0  0
    6.3874   13.3151   25.7039 N   0  0  0  0  0  0  0  0  0  0  0  0
    9.0470   11.6559   23.7701 N   0  0  0  0  0  0  0  0  0  0  0  0
    9.4873   10.4102   23.4298 C   0  0  0  0  0  0  0  0  0  0  0  0
   10.3809   10.2297   22.6173 O   0  0  0  0  0  0  0  0  0  0  0  0
    8.7491    9.2654   24.0502 C   0  0  0  0  0  0  0  0  0  0  0  0
    7.8944    9.4858   25.1597 O   0  0  0  0  0  0  0  0  0  0  0  0
    2.8364   15.8936   26.5189 C   0  0  0  0  0  0  0  0  0  0  0  0
    3.8520   16.9590   26.8548 C   0  0  0  0  0  0  0  0  0  0  0  0
    2.4118   17.1519   27.2364 C   0  0  0  0  0  0  0  0  0  0  0  0
  1  2  1  0
  2  3  1  0
  2  4  1  0
  2  5  1  0
  5  6  1  6
  6  7  1  0
  7  8  2  0
  7  9  1  0
  9 10  2  0
 10 11  1  0
 11 12  2  0
 12 13  1  0
 13 14  2  0
 12 15  1  0
 15 16  1  0
 16 17  2  0
 16 18  1  0
 18 19  1  0
  5 20  1  0
 20 21  1  0
 21 22  1  0
 14  9  1  0
 22 20  1  0
 19 11  1  0
M  END
>  <energy_score>  (2042) 
-15.93833

>  <inchikey>  (2042) 
NUPZSZZBCDLIDT-UHFFFAOYSA-N

>  <smiles>  (2042) 
CC(F)(F)C(NC(=O)c1cc2c(cn1)NC(=O)CO2)C1CC1

>  <ref_pdb>  (2042) 
A1068a

>  <alias>  (2042) 
NUPZSZZBCDLIDT-UHFFFAOYSA-N-P37-P37-P198-601513

>  <HIPPO Pose ID>  (2042) 
523850

>  <name>  (2042) 
NUPZSZZBCDLIDT-UHFFFAOYSA-N-P37-P37-P198-601513

>  <HIPPO Compound ID>  (2042) 
302385

>  <ref_mols>  (2042) 
A0310a,A3618a

>  <distance_score>  (2042) 
1.811895

>  <inspiration_score>  (2042) 
None

$$$$
VECZJVHWMMAGEN-UHFFFAOYSA-N-P198-P37-P198-601513
     RDKit          3D

 22 24  0  0  0  0  0  0  0  0999 V2000
    2.4686   16.4830   25.8452 C   0  0  0  0  0  0  0  0  0  0  0  0
    1.6620   15.2686   25.7315 N   0  0  0  0  0  0  0  0  0  0  0  0
    2.1767   14.4134   24.6681 C   0  0  0  0  0  0  0  0  0  0  0  0
    1.4642   14.6150   27.0453 C   0  0  2  0  0  0  0  0  0  0  0  0
    2.7104   14.3118   27.9319 C   0  0  0  0  0  0  0  0  0  0  0  0
    3.7811   13.5852   27.2976 N   0  0  0  0  0  0  0  0  0  0  0  0
    3.9752   12.0762   27.0867 C   0  0  0  0  0  0  0  0  0  0  0  0
    3.3403   11.1750   27.4585 O   0  0  0  0  0  0  0  0  0  0  0  0
    5.2254   11.8544   26.2642 C   0  0  0  0  0  0  0  0  0  0  0  0
    5.6742   10.5712   25.9942 C   0  0  0  0  0  0  0  0  0  0  0  0
    6.8120   10.4400   25.2047 C   0  0  0  0  0  0  0  0  0  0  0  0
    7.4566   11.5682   24.7104 C   0  0  0  0  0  0  0  0  0  0  0  0
    6.9472   12.8114   25.0471 C   0  0  0  0  0  0  0  0  0  0  0  0
    5.8551   12.9873   25.8242 N   0  0  0  0  0  0  0  0  0  0  0  0
    8.5732   11.4398   23.8878 N   0  0  0  0  0  0  0  0  0  0  0  0
    9.0002   10.2201   23.4535 C   0  0  0  0  0  0  0  0  0  0  0  0
    9.8947   10.1038   22.6296 O   0  0  0  0  0  0  0  0  0  0  0  0
    8.2397    9.0336   23.9578 C   0  0  0  0  0  0  0  0  0  0  0  0
    7.2465    9.1717   24.9612 O   0  0  0  0  0  0  0  0  0  0  0  0
    0.5490   13.4154   26.9460 C   0  0  0  0  0  0  0  0  0  0  0  0
   -0.5496   13.2449   27.9706 C   0  0  0  0  0  0  0  0  0  0  0  0
   -0.8997   13.5652   26.5450 C   0  0  0  0  0  0  0  0  0  0  0  0
  1  2  1  0
  2  3  1  0
  2  4  1  0
  4  5  1  6
  5  6  1  0
  6  7  1  0
  7  8  2  0
  7  9  1  0
  9 10  2  0
 10 11  1  0
 11 12  2  0
 12 13  1  0
 13 14  2  0
 12 15  1  0
 15 16  1  0
 16 17  2  0
 16 18  1  0
 18 19  1  0
  4 20  1  0
 20 21  1  0
 21 22  1  0
 14  9  1  0
 22 20  1  0
 19 11  1  0
M  END
>  <energy_score>  (2043) 
-27.040276

>  <inchikey>  (2043) 
VECZJVHWMMAGEN-UHFFFAOYSA-N

>  <smiles>  (2043) 
CN(C)C(CNC(=O)c1cc2c(cn1)NC(=O)CO2)C1CC1

>  <ref_pdb>  (2043) 
A1068a

>  <alias>  (2043) 
VECZJVHWMMAGEN-UHFFFAOYSA-N-P198-P37-P198-601513

>  <HIPPO Pose ID>  (2043) 
523859

>  <name>  (2043) 
VECZJVHWMMAGEN-UHFFFAOYSA-N-P198-P37-P198-601513

>  <HIPPO Compound ID>  (2043) 
302389

>  <ref_mols>  (2043) 
A0310a,A3618a

>  <distance_score>  (2043) 
1.620266

>  <inspiration_score>  (2043) 
None

$$$$
BCZVAKRIIVFKQO-UHFFFAOYSA-N-P198-P37-P198-601513
     RDKit          3D

 22 24  0  0  0  0  0  0  0  0999 V2000
   -1.1035   14.7704   24.8773 C   0  0  0  0  0  0  0  0  0  0  0  0
    0.1278   15.2499   25.0963 C   0  0  0  0  0  0  0  0  0  0  0  0
    1.1795   14.7124   26.0337 C   0  0  0  0  0  0  0  0  0  0  0  0
    0.7908   13.4692   26.8403 C   0  0  0  0  0  0  0  0  0  0  0  0
    1.8731   13.0257   27.8382 C   0  0  2  0  0  0  0  0  0  0  0  0
    3.0723   12.5935   27.1681 N   0  0  0  0  0  0  0  0  0  0  0  0
    4.3249   13.3833   26.7530 C   0  0  0  0  0  0  0  0  0  0  0  0
    4.5544   14.5233   26.8178 O   0  0  0  0  0  0  0  0  0  0  0  0
    5.3331   12.4305   26.1691 C   0  0  0  0  0  0  0  0  0  0  0  0
    6.5086   12.8921   25.6153 C   0  0  0  0  0  0  0  0  0  0  0  0
    7.3760   11.9688   25.0438 C   0  0  0  0  0  0  0  0  0  0  0  0
    7.0620   10.6225   25.0359 C   0  0  0  0  0  0  0  0  0  0  0  0
    5.8831   10.2500   25.6548 C   0  0  0  0  0  0  0  0  0  0  0  0
    5.0104   11.1162   26.2203 N   0  0  0  0  0  0  0  0  0  0  0  0
    7.9026    9.7036   24.4080 N   0  0  0  0  0  0  0  0  0  0  0  0
    8.9665   10.1097   23.6463 C   0  0  0  0  0  0  0  0  0  0  0  0
    9.6396    9.3106   23.0042 O   0  0  0  0  0  0  0  0  0  0  0  0
    9.1731   11.6278   23.5939 C   0  0  0  0  0  0  0  0  0  0  0  0
    8.5574   12.4592   24.5673 O   0  0  0  0  0  0  0  0  0  0  0  0
    1.3721   11.8780   28.6755 C   0  0  0  0  0  0  0  0  0  0  0  0
    1.9974   11.5896   30.0173 C   0  0  0  0  0  0  0  0  0  0  0  0
    0.5961   12.1303   29.9435 C   0  0  0  0  0  0  0  0  0  0  0  0
  1  2  2  0
  2  3  1  0
  3  4  1  0
  5  4  1  6
  5  6  1  0
  6  7  1  0
  7  8  2  0
  7  9  1  0
  9 10  2  0
 10 11  1  0
 11 12  2  0
 12 13  1  0
 13 14  2  0
 12 15  1  0
 15 16  1  0
 16 17  2  0
 16 18  1  0
 18 19  1  0
  5 20  1  0
 20 21  1  0
 21 22  1  0
 14  9  1  0
 22 20  1  0
 19 11  1  0
M  END
>  <energy_score>  (2044) 
-28.746994

>  <inchikey>  (2044) 
BCZVAKRIIVFKQO-UHFFFAOYSA-N

>  <smiles>  (2044) 
C=CCCC(NC(=O)c1cc2c(cn1)NC(=O)CO2)C1CC1

>  <ref_pdb>  (2044) 
A1068a

>  <alias>  (2044) 
BCZVAKRIIVFKQO-UHFFFAOYSA-N-P198-P37-P198-601513

>  <HIPPO Pose ID>  (2044) 
523863

>  <name>  (2044) 
BCZVAKRIIVFKQO-UHFFFAOYSA-N-P198-P37-P198-601513

>  <HIPPO Compound ID>  (2044) 
302391

>  <ref_mols>  (2044) 
A0310a,A3618a

>  <distance_score>  (2044) 
1.92685

>  <inspiration_score>  (2044) 
None

$$$$
WLZMSESRZLSCPO-UHFFFAOYSA-N-P37-P37-P198-601513
     RDKit          3D

 22 25  0  0  0  0  0  0  0  0999 V2000
    1.6472   13.6269   27.1117 C   0  0  0  0  0  0  0  0  0  0  0  0
    2.8810   14.1924   27.8531 C   0  0  0  0  0  0  0  0  0  0  0  0
    4.0861   13.5853   27.3088 N   0  0  0  0  0  0  0  0  0  0  0  0
    4.5838   12.1302   27.3612 C   0  0  0  0  0  0  0  0  0  0  0  0
    4.1469   11.2017   27.9139 O   0  0  0  0  0  0  0  0  0  0  0  0
    5.8233   11.9909   26.5076 C   0  0  0  0  0  0  0  0  0  0  0  0
    6.3492   10.7336   26.2471 C   0  0  0  0  0  0  0  0  0  0  0  0
    7.4124   10.6470   25.3540 C   0  0  0  0  0  0  0  0  0  0  0  0
    7.9285   11.7947   24.7700 C   0  0  0  0  0  0  0  0  0  0  0  0
    7.3585   13.0120   25.1124 C   0  0  0  0  0  0  0  0  0  0  0  0
    6.3203   13.1427   25.9730 N   0  0  0  0  0  0  0  0  0  0  0  0
    8.9881   11.7025   23.8692 N   0  0  0  0  0  0  0  0  0  0  0  0
    9.4796   10.4976   23.4579 C   0  0  0  0  0  0  0  0  0  0  0  0
   10.3913   10.4065   22.6508 O   0  0  0  0  0  0  0  0  0  0  0  0
    8.7906    9.2832   23.9989 C   0  0  0  0  0  0  0  0  0  0  0  0
    7.9101    9.4052   25.1012 O   0  0  0  0  0  0  0  0  0  0  0  0
    3.0533   15.6969   27.6591 C   0  0  0  0  0  0  0  0  0  0  0  0
    3.0064   16.3369   26.2906 C   0  0  0  0  0  0  0  0  0  0  0  0
    1.9318   16.6454   27.2956 C   0  0  0  0  0  0  0  0  0  0  0  0
    2.7767   13.7846   29.3200 C   0  0  0  0  0  0  0  0  0  0  0  0
    3.7113   14.2947   30.3950 C   0  0  0  0  0  0  0  0  0  0  0  0
    2.2635   14.7067   30.4029 C   0  0  0  0  0  0  0  0  0  0  0  0
  1  2  1  0
  2  3  1  0
  3  4  1  0
  4  5  2  0
  4  6  1  0
  6  7  2  0
  7  8  1  0
  8  9  2  0
  9 10  1  0
 10 11  2  0
  9 12  1  0
 12 13  1  0
 13 14  2  0
 13 15  1  0
 15 16  1  0
  2 17  1  0
 17 18  1  0
 18 19  1  0
  2 20  1  0
 20 21  1  0
 21 22  1  0
 11  6  1  0
 19 17  1  0
 22 20  1  0
 16  8  1  0
M  END
>  <energy_score>  (2045) 
-30.627767

>  <inchikey>  (2045) 
WLZMSESRZLSCPO-UHFFFAOYSA-N

>  <smiles>  (2045) 
CC(NC(=O)c1cc2c(cn1)NC(=O)CO2)(C1CC1)C1CC1

>  <ref_pdb>  (2045) 
A1068a

>  <alias>  (2045) 
WLZMSESRZLSCPO-UHFFFAOYSA-N-P37-P37-P198-601513

>  <HIPPO Pose ID>  (2045) 
523872

>  <name>  (2045) 
WLZMSESRZLSCPO-UHFFFAOYSA-N-P37-P37-P198-601513

>  <HIPPO Compound ID>  (2045) 
302396

>  <ref_mols>  (2045) 
A0310a,A3618a

>  <distance_score>  (2045) 
1.611887

>  <inspiration_score>  (2045) 
None

$$$$
QVYZFRJZNAYCOR-UHFFFAOYSA-N-P198-P37-P198-601513
     RDKit          3D

 22 24  0  0  0  0  0  0  0  0999 V2000
    9.7226   10.0792   22.8622 O   0  0  0  0  0  0  0  0  0  0  0  0
    8.9230   10.6851   23.5630 C   0  0  0  0  0  0  0  0  0  0  0  0
    8.8574   12.2123   23.7034 C   0  0  0  0  0  0  0  0  0  0  0  0
    7.6962   12.8471   24.2362 O   0  0  0  0  0  0  0  0  0  0  0  0
    6.8804   12.0528   24.9974 C   0  0  0  0  0  0  0  0  0  0  0  0
    5.9002   12.7105   25.6735 N   0  0  0  0  0  0  0  0  0  0  0  0
    5.0434   11.9487   26.4086 C   0  0  0  0  0  0  0  0  0  0  0  0
    3.9539   12.6174   27.2026 C   0  0  0  0  0  0  0  0  0  0  0  0
    3.4136   12.0173   28.0384 O   0  0  0  0  0  0  0  0  0  0  0  0
    3.7420   14.0500   26.7172 N   0  0  0  0  0  0  0  0  0  0  0  0
    2.7535   15.0282   27.0909 C   0  0  2  0  0  0  0  0  0  0  0  0
    1.2933   14.6080   26.9094 C   0  0  0  0  0  0  0  0  0  0  0  0
    1.0114   13.9985   25.5758 N   0  0  0  0  0  0  0  0  0  0  0  0
    0.6258   12.8185   25.5638 O   0  0  0  0  0  0  0  0  0  0  0  0
    1.0917   14.7171   24.5743 O   0  0  0  0  0  0  0  0  0  0  0  0
    3.1972   16.3922   26.6471 C   0  0  0  0  0  0  0  0  0  0  0  0
    2.3664   17.3722   25.8580 C   0  0  0  0  0  0  0  0  0  0  0  0
    3.5354   16.6820   25.2081 C   0  0  0  0  0  0  0  0  0  0  0  0
    5.1167   10.5766   26.4646 C   0  0  0  0  0  0  0  0  0  0  0  0
    6.1178    9.9536   25.7463 C   0  0  0  0  0  0  0  0  0  0  0  0
    7.0300   10.6800   25.0228 C   0  0  0  0  0  0  0  0  0  0  0  0
    8.0174   10.0099   24.3162 N   0  0  0  0  0  0  0  0  0  0  0  0
  1  2  2  0
  2  3  1  0
  3  4  1  0
  4  5  1  0
  5  6  2  0
  6  7  1  0
  7  8  1  0
  8  9  2  0
  8 10  1  0
 10 11  1  0
 11 12  1  6
 12 13  1  0
 13 14  2  0
 13 15  1  0
 11 16  1  0
 16 17  1  0
 17 18  1  0
  7 19  2  0
 19 20  1  0
 20 21  2  0
 21 22  1  0
 22  2  1  0
 21  5  1  0
 18 16  1  0
M  CHG  2  13   1  15  -1
M  END
>  <energy_score>  (2046) 
-26.422344

>  <inchikey>  (2046) 
QVYZFRJZNAYCOR-UHFFFAOYSA-N

>  <smiles>  (2046) 
O=C1COc2nc(C(=O)NC(C[N+](=O)[O-])C3CC3)ccc2N1

>  <ref_pdb>  (2046) 
A1068a

>  <alias>  (2046) 
QVYZFRJZNAYCOR-UHFFFAOYSA-N-P198-P37-P198-601513

>  <HIPPO Pose ID>  (2046) 
523887

>  <name>  (2046) 
QVYZFRJZNAYCOR-UHFFFAOYSA-N-P198-P37-P198-601513

>  <HIPPO Compound ID>  (2046) 
302404

>  <ref_mols>  (2046) 
A0310a,A3618a

>  <distance_score>  (2046) 
1.878848

>  <inspiration_score>  (2046) 
None

$$$$
PQUPONIEIYLOQS-UHFFFAOYSA-N-P198-P37-P198-601513
     RDKit          3D

 22 24  0  0  0  0  0  0  0  0999 V2000
    9.7786    9.7643   22.8524 O   0  0  0  0  0  0  0  0  0  0  0  0
    9.0206   10.4653   23.5077 C   0  0  0  0  0  0  0  0  0  0  0  0
    9.0261   11.9995   23.5273 C   0  0  0  0  0  0  0  0  0  0  0  0
    7.7767   12.6569   23.7380 O   0  0  0  0  0  0  0  0  0  0  0  0
    6.9856   12.0410   24.6765 C   0  0  0  0  0  0  0  0  0  0  0  0
    5.9979   12.8117   25.1903 N   0  0  0  0  0  0  0  0  0  0  0  0
    5.1565   12.2137   26.0715 C   0  0  0  0  0  0  0  0  0  0  0  0
    3.9802   12.9839   26.5924 C   0  0  0  0  0  0  0  0  0  0  0  0
    3.4502   12.6139   27.5604 O   0  0  0  0  0  0  0  0  0  0  0  0
    3.6212   14.1261   25.6395 N   0  0  0  0  0  0  0  0  0  0  0  0
    2.5784   15.1287   25.7218 C   0  0  1  0  0  0  0  0  0  0  0  0
    1.2147   14.4865   26.1178 C   0  0  1  0  0  0  0  0  0  0  0  0
    1.1368   14.0850   27.4979 O   0  0  0  0  0  0  0  0  0  0  0  0
    0.0393   15.4335   25.8641 C   0  0  0  0  0  0  0  0  0  0  0  0
   -1.1756   14.7494   26.1873 O   0  0  0  0  0  0  0  0  0  0  0  0
    3.0289   16.1975   26.6803 C   0  0  0  0  0  0  0  0  0  0  0  0
    2.7051   17.6511   26.4368 C   0  0  0  0  0  0  0  0  0  0  0  0
    4.1179   17.1645   26.2804 C   0  0  0  0  0  0  0  0  0  0  0  0
    5.2528   10.8864   26.4333 C   0  0  0  0  0  0  0  0  0  0  0  0
    6.2435   10.1235   25.8437 C   0  0  0  0  0  0  0  0  0  0  0  0
    7.1376   10.6947   24.9687 C   0  0  0  0  0  0  0  0  0  0  0  0
    8.1017    9.9092   24.3486 N   0  0  0  0  0  0  0  0  0  0  0  0
  1  2  2  0
  2  3  1  0
  3  4  1  0
  4  5  1  0
  5  6  2  0
  6  7  1  0
  7  8  1  0
  8  9  2  0
  8 10  1  0
 11 10  1  1
 11 12  1  0
 12 13  1  1
 12 14  1  0
 14 15  1  0
 11 16  1  0
 16 17  1  0
 17 18  1  0
  7 19  2  0
 19 20  1  0
 20 21  2  0
 21 22  1  0
 22  2  1  0
 21  5  1  0
 18 16  1  0
M  END
>  <energy_score>  (2047) 
-28.470482

>  <inchikey>  (2047) 
PQUPONIEIYLOQS-UHFFFAOYSA-N

>  <smiles>  (2047) 
O=C1COc2nc(C(=O)NC(C(O)CO)C3CC3)ccc2N1

>  <ref_pdb>  (2047) 
A1068a

>  <alias>  (2047) 
PQUPONIEIYLOQS-UHFFFAOYSA-N-P198-P37-P198-601513

>  <HIPPO Pose ID>  (2047) 
523907

>  <name>  (2047) 
PQUPONIEIYLOQS-UHFFFAOYSA-N-P198-P37-P198-601513

>  <HIPPO Compound ID>  (2047) 
302415

>  <ref_mols>  (2047) 
A0310a,A3618a

>  <distance_score>  (2047) 
1.90555

>  <inspiration_score>  (2047) 
None

$$$$
WCVFKOBJWHBGSV-UHFFFAOYSA-N-P37-P37-P198-601513
     RDKit          3D

 23 26  0  0  0  0  0  0  0  0999 V2000
    0.9526   12.8886   26.8977 N   0  0  0  0  0  0  0  0  0  0  0  0
    1.8334   13.4478   27.4101 C   0  0  0  0  0  0  0  0  0  0  0  0
    3.0422   14.0747   27.9932 C   0  0  0  0  0  0  0  0  0  0  0  0
    4.2209   13.4845   27.4060 N   0  0  0  0  0  0  0  0  0  0  0  0
    4.7267   12.0324   27.4271 C   0  0  0  0  0  0  0  0  0  0  0  0
    4.2976   11.0988   27.9551 O   0  0  0  0  0  0  0  0  0  0  0  0
    5.9343   11.9187   26.5356 C   0  0  0  0  0  0  0  0  0  0  0  0
    6.4473   10.6661   26.2455 C   0  0  0  0  0  0  0  0  0  0  0  0
    7.4832   10.5904   25.3248 C   0  0  0  0  0  0  0  0  0  0  0  0
    7.9829   11.7450   24.7403 C   0  0  0  0  0  0  0  0  0  0  0  0
    7.4180   12.9588   25.1045 C   0  0  0  0  0  0  0  0  0  0  0  0
    6.4033   13.0795   25.9943 N   0  0  0  0  0  0  0  0  0  0  0  0
    9.0251   11.6607   23.8204 N   0  0  0  0  0  0  0  0  0  0  0  0
    9.5128   10.4583   23.3976 C   0  0  0  0  0  0  0  0  0  0  0  0
   10.4113   10.3736   22.5762 O   0  0  0  0  0  0  0  0  0  0  0  0
    8.8372    9.2375   23.9389 C   0  0  0  0  0  0  0  0  0  0  0  0
    7.9728    9.3507   25.0528 O   0  0  0  0  0  0  0  0  0  0  0  0
    3.0676   13.8603   29.4953 C   0  0  0  0  0  0  0  0  0  0  0  0
    2.5729   12.6178   30.2049 C   0  0  0  0  0  0  0  0  0  0  0  0
    1.8305   13.9177   30.3690 C   0  0  0  0  0  0  0  0  0  0  0  0
    3.0475   15.5588   27.6834 C   0  0  0  0  0  0  0  0  0  0  0  0
    1.8055   16.4092   27.5098 C   0  0  0  0  0  0  0  0  0  0  0  0
    2.6956   16.1274   26.3274 C   0  0  0  0  0  0  0  0  0  0  0  0
  1  2  3  0
  2  3  1  0
  3  4  1  0
  4  5  1  0
  5  6  2  0
  5  7  1  0
  7  8  2  0
  8  9  1  0
  9 10  2  0
 10 11  1  0
 11 12  2  0
 10 13  1  0
 13 14  1  0
 14 15  2  0
 14 16  1  0
 16 17  1  0
  3 18  1  0
 18 19  1  0
 19 20  1  0
  3 21  1  0
 21 22  1  0
 22 23  1  0
 12  7  1  0
 20 18  1  0
 23 21  1  0
 17  9  1  0
M  END
>  <energy_score>  (2048) 
-22.685404

>  <inchikey>  (2048) 
WCVFKOBJWHBGSV-UHFFFAOYSA-N

>  <smiles>  (2048) 
N#CC(NC(=O)c1cc2c(cn1)NC(=O)CO2)(C1CC1)C1CC1

>  <ref_pdb>  (2048) 
A1068a

>  <alias>  (2048) 
WCVFKOBJWHBGSV-UHFFFAOYSA-N-P37-P37-P198-601513

>  <HIPPO Pose ID>  (2048) 
524002

>  <name>  (2048) 
WCVFKOBJWHBGSV-UHFFFAOYSA-N-P37-P37-P198-601513

>  <HIPPO Compound ID>  (2048) 
302466

>  <ref_mols>  (2048) 
A0310a,A3618a

>  <distance_score>  (2048) 
1.79548

>  <inspiration_score>  (2048) 
None

$$$$
CAKCTTJLQIWSFR-UHFFFAOYSA-N-P37-P37-P198-601513
     RDKit          3D

 23 27  0  0  0  0  0  0  0  0999 V2000
   10.3635   10.4892   22.6835 O   0  0  0  0  0  0  0  0  0  0  0  0
    9.4274   10.5541   23.4659 C   0  0  0  0  0  0  0  0  0  0  0  0
    8.7813    9.3205   24.0184 C   0  0  0  0  0  0  0  0  0  0  0  0
    7.9085    9.4202   25.1291 O   0  0  0  0  0  0  0  0  0  0  0  0
    7.3918   10.6505   25.4017 C   0  0  0  0  0  0  0  0  0  0  0  0
    6.4065   10.7218   26.3848 C   0  0  0  0  0  0  0  0  0  0  0  0
    5.8960   11.9710   26.7179 C   0  0  0  0  0  0  0  0  0  0  0  0
    4.8953   12.0930   27.8497 C   0  0  0  0  0  0  0  0  0  0  0  0
    4.7289   11.1635   28.5581 O   0  0  0  0  0  0  0  0  0  0  0  0
    4.2963   13.4845   27.9012 N   0  0  0  0  0  0  0  0  0  0  0  0
    3.3866   14.1326   28.9282 C   0  0  0  0  0  0  0  0  0  0  0  0
    2.1259   13.6040   28.3138 C   0  0  2  0  0  0  0  0  0  0  0  0
    1.4819   12.3419   28.8631 C   0  0  0  0  0  0  0  0  0  0  0  0
    0.0532   11.9555   28.5899 C   0  0  0  0  0  0  0  0  0  0  0  0
    0.4627   12.3816   29.9716 C   0  0  0  0  0  0  0  0  0  0  0  0
    2.9640   13.5668   27.0750 C   0  0  1  0  0  0  0  0  0  0  0  0
    3.0314   14.6607   26.0439 C   0  0  0  0  0  0  0  0  0  0  0  0
    2.4799   16.0517   26.1686 C   0  0  0  0  0  0  0  0  0  0  0  0
    1.8098   15.0595   25.2585 C   0  0  0  0  0  0  0  0  0  0  0  0
    6.2975   13.1137   26.1029 N   0  0  0  0  0  0  0  0  0  0  0  0
    7.2525   13.0057   25.1487 C   0  0  0  0  0  0  0  0  0  0  0  0
    7.8395   11.8059   24.7804 C   0  0  0  0  0  0  0  0  0  0  0  0
    8.8706   11.7422   23.8435 N   0  0  0  0  0  0  0  0  0  0  0  0
  1  2  2  0
  2  3  1  0
  3  4  1  0
  4  5  1  0
  5  6  2  0
  6  7  1  0
  7  8  1  0
  8  9  2  0
  8 10  1  0
 10 11  1  0
 11 12  1  0
 12 13  1  1
 13 14  1  0
 14 15  1  0
 12 16  1  0
 16 17  1  1
 17 18  1  0
 18 19  1  0
  7 20  2  0
 20 21  1  0
 21 22  2  0
 22 23  1  0
 23  2  1  0
 22  5  1  0
 16 10  1  0
 19 17  1  0
 15 13  1  0
M  END
>  <energy_score>  (2049) 
-24.609113

>  <inchikey>  (2049) 
CAKCTTJLQIWSFR-UHFFFAOYSA-N

>  <smiles>  (2049) 
O=C1COc2cc(C(=O)N3CC(C4CC4)C3C3CC3)ncc2N1

>  <ref_pdb>  (2049) 
A1068a

>  <alias>  (2049) 
CAKCTTJLQIWSFR-UHFFFAOYSA-N-P37-P37-P198-601513

>  <HIPPO Pose ID>  (2049) 
524012

>  <name>  (2049) 
CAKCTTJLQIWSFR-UHFFFAOYSA-N-P37-P37-P198-601513

>  <HIPPO Compound ID>  (2049) 
302471

>  <ref_mols>  (2049) 
A0310a,A3618a

>  <distance_score>  (2049) 
1.807268

>  <inspiration_score>  (2049) 
None

$$$$
SPLLZAJJOZMJDA-UHFFFAOYSA-N-P37-P37-P198-601513
     RDKit          3D

 23 26  0  0  0  0  0  0  0  0999 V2000
    1.6229   15.0295   25.6743 C   0  0  0  0  0  0  0  0  0  0  0  0
    1.6144   14.9725   27.1973 C   0  0  0  0  0  0  0  0  0  0  0  0
    2.9709   15.3664   27.8762 C   0  0  0  0  0  0  0  0  0  0  0  0
    4.0287   14.4714   27.4300 N   0  0  0  0  0  0  0  0  0  0  0  0
    4.0082   12.9599   27.1566 C   0  0  0  0  0  0  0  0  0  0  0  0
    3.1617   12.1741   27.3179 O   0  0  0  0  0  0  0  0  0  0  0  0
    5.3171   12.4147   26.6163 C   0  0  0  0  0  0  0  0  0  0  0  0
    6.1325   13.0194   25.6700 C   0  0  0  0  0  0  0  0  0  0  0  0
    7.1882   12.2722   25.1105 C   0  0  0  0  0  0  0  0  0  0  0  0
    7.3608   10.9464   25.4667 C   0  0  0  0  0  0  0  0  0  0  0  0
    6.5268   10.4547   26.4407 C   0  0  0  0  0  0  0  0  0  0  0  0
    5.5510   11.1560   27.0389 N   0  0  0  0  0  0  0  0  0  0  0  0
    8.2754   10.1239   24.8112 N   0  0  0  0  0  0  0  0  0  0  0  0
    9.1112   10.6168   23.8484 C   0  0  0  0  0  0  0  0  0  0  0  0
    9.8130    9.8776   23.1687 O   0  0  0  0  0  0  0  0  0  0  0  0
    9.1288   12.1453   23.7680 C   0  0  0  0  0  0  0  0  0  0  0  0
    7.9509   12.8715   24.1390 O   0  0  0  0  0  0  0  0  0  0  0  0
    2.7802   15.2636   29.3949 C   0  0  0  0  0  0  0  0  0  0  0  0
    3.9340   15.0223   30.3448 C   0  0  0  0  0  0  0  0  0  0  0  0
    2.8612   13.9798   30.1902 C   0  0  0  0  0  0  0  0  0  0  0  0
    3.3071   16.8239   27.5809 C   0  0  0  0  0  0  0  0  0  0  0  0
    4.6788   17.4032   27.8629 C   0  0  0  0  0  0  0  0  0  0  0  0
    4.1841   17.2937   26.4481 C   0  0  0  0  0  0  0  0  0  0  0  0
  1  2  1  0
  2  3  1  0
  3  4  1  0
  4  5  1  0
  5  6  2  0
  5  7  1  0
  7  8  2  0
  8  9  1  0
  9 10  2  0
 10 11  1  0
 11 12  2  0
 10 13  1  0
 13 14  1  0
 14 15  2  0
 14 16  1  0
 16 17  1  0
  3 18  1  0
 18 19  1  0
 19 20  1  0
  3 21  1  0
 21 22  1  0
 22 23  1  0
 12  7  1  0
 20 18  1  0
 23 21  1  0
 17  9  1  0
M  END
>  <energy_score>  (2050) 
-12.294202

>  <inchikey>  (2050) 
SPLLZAJJOZMJDA-UHFFFAOYSA-N

>  <smiles>  (2050) 
CCC(NC(=O)c1cc2c(cn1)NC(=O)CO2)(C1CC1)C1CC1

>  <ref_pdb>  (2050) 
A1068a

>  <alias>  (2050) 
SPLLZAJJOZMJDA-UHFFFAOYSA-N-P37-P37-P198-601513

>  <HIPPO Pose ID>  (2050) 
524014

>  <name>  (2050) 
SPLLZAJJOZMJDA-UHFFFAOYSA-N-P37-P37-P198-601513

>  <HIPPO Compound ID>  (2050) 
302472

>  <ref_mols>  (2050) 
A0310a,A3618a

>  <distance_score>  (2050) 
1.980842

>  <inspiration_score>  (2050) 
None

$$$$
JGTWXNYWKYGJEY-UHFFFAOYSA-N-P198-P37-P198-601513
     RDKit          3D

 23 25  0  0  0  0  0  0  0  0999 V2000
    0.9903   14.4106   23.5152 C   0  0  0  0  0  0  0  0  0  0  0  0
    0.2443   13.9745   24.7613 C   0  0  0  0  0  0  0  0  0  0  0  0
    1.1964   13.4354   25.6852 O   0  0  0  0  0  0  0  0  0  0  0  0
    0.6929   13.0985   26.9077 C   0  0  0  0  0  0  0  0  0  0  0  0
   -0.5019   13.1445   27.1854 O   0  0  0  0  0  0  0  0  0  0  0  0
    1.8046   12.7036   27.9065 C   0  0  2  0  0  0  0  0  0  0  0  0
    3.0433   12.3546   27.2493 N   0  0  0  0  0  0  0  0  0  0  0  0
    4.2291   13.2333   26.8232 C   0  0  0  0  0  0  0  0  0  0  0  0
    4.3652   14.3884   26.8640 O   0  0  0  0  0  0  0  0  0  0  0  0
    5.2827   12.3479   26.2093 C   0  0  0  0  0  0  0  0  0  0  0  0
    6.4288   12.8659   25.6430 C   0  0  0  0  0  0  0  0  0  0  0  0
    7.3272   11.9850   25.0466 C   0  0  0  0  0  0  0  0  0  0  0  0
    7.0687   10.6271   25.0296 C   0  0  0  0  0  0  0  0  0  0  0  0
    5.9135   10.2006   25.6542 C   0  0  0  0  0  0  0  0  0  0  0  0
    5.0154   11.0209   26.2414 N   0  0  0  0  0  0  0  0  0  0  0  0
    7.9332    9.7433   24.3873 N   0  0  0  0  0  0  0  0  0  0  0  0
    8.9805   10.1893   23.6292 C   0  0  0  0  0  0  0  0  0  0  0  0
    9.6698    9.4144   22.9750 O   0  0  0  0  0  0  0  0  0  0  0  0
    9.1546   11.7132   23.6046 C   0  0  0  0  0  0  0  0  0  0  0  0
    8.4763   12.5293   24.5501 O   0  0  0  0  0  0  0  0  0  0  0  0
    1.3957   11.5424   28.7741 C   0  0  0  0  0  0  0  0  0  0  0  0
    2.0896   11.2945   30.0918 C   0  0  0  0  0  0  0  0  0  0  0  0
    0.6614   11.7638   30.0732 C   0  0  0  0  0  0  0  0  0  0  0  0
  1  2  1  0
  2  3  1  0
  3  4  1  0
  4  5  2  0
  4  6  1  0
  6  7  1  6
  7  8  1  0
  8  9  2  0
  8 10  1  0
 10 11  2  0
 11 12  1  0
 12 13  2  0
 13 14  1  0
 14 15  2  0
 13 16  1  0
 16 17  1  0
 17 18  2  0
 17 19  1  0
 19 20  1  0
  6 21  1  0
 21 22  1  0
 22 23  1  0
 15 10  1  0
 23 21  1  0
 20 12  1  0
M  END
>  <energy_score>  (2051) 
-82.274269

>  <inchikey>  (2051) 
JGTWXNYWKYGJEY-UHFFFAOYSA-N

>  <smiles>  (2051) 
CCOC(=O)C(NC(=O)c1cc2c(cn1)NC(=O)CO2)C1CC1

>  <ref_pdb>  (2051) 
A1068a

>  <alias>  (2051) 
JGTWXNYWKYGJEY-UHFFFAOYSA-N-P198-P37-P198-601513

>  <HIPPO Pose ID>  (2051) 
524017

>  <name>  (2051) 
JGTWXNYWKYGJEY-UHFFFAOYSA-N-P198-P37-P198-601513

>  <HIPPO Compound ID>  (2051) 
302474

>  <ref_mols>  (2051) 
A0310a,A3618a

>  <distance_score>  (2051) 
1.917056

>  <inspiration_score>  (2051) 
None

$$$$
ZCCYXVHPLAUXSH-UHFFFAOYSA-N-P198-P37-P198-601513
     RDKit          3D

 23 25  0  0  0  0  0  0  0  0999 V2000
    1.6241   15.2879   24.7222 C   0  0  0  0  0  0  0  0  0  0  0  0
    1.2558   15.0173   26.2055 C   0  0  0  0  0  0  0  0  0  0  0  0
    0.2493   16.1244   26.6121 C   0  0  0  0  0  0  0  0  0  0  0  0
    0.5123   13.6670   26.2454 C   0  0  0  0  0  0  0  0  0  0  0  0
    0.3540   13.1411   27.5498 O   0  0  0  0  0  0  0  0  0  0  0  0
    2.5677   15.1490   27.0671 C   0  0  2  0  0  0  0  0  0  0  0  0
    3.6254   14.2341   26.6776 N   0  0  0  0  0  0  0  0  0  0  0  0
    3.6333   12.6972   26.5794 C   0  0  0  0  0  0  0  0  0  0  0  0
    2.8156   11.9168   26.8694 O   0  0  0  0  0  0  0  0  0  0  0  0
    4.9476   12.1373   26.0609 C   0  0  0  0  0  0  0  0  0  0  0  0
    5.8259   12.7777   25.2003 C   0  0  0  0  0  0  0  0  0  0  0  0
    6.9234   12.0599   24.7019 C   0  0  0  0  0  0  0  0  0  0  0  0
    7.0825   10.7244   25.0203 C   0  0  0  0  0  0  0  0  0  0  0  0
    6.1670   10.1829   25.8829 C   0  0  0  0  0  0  0  0  0  0  0  0
    5.1557   10.8636   26.4436 N   0  0  0  0  0  0  0  0  0  0  0  0
    8.0628    9.9429   24.4177 N   0  0  0  0  0  0  0  0  0  0  0  0
    8.9731   10.4907   23.5621 C   0  0  0  0  0  0  0  0  0  0  0  0
    9.7329    9.7885   22.9079 O   0  0  0  0  0  0  0  0  0  0  0  0
    8.9812   12.0243   23.5653 C   0  0  0  0  0  0  0  0  0  0  0  0
    7.7456   12.7005   23.8114 O   0  0  0  0  0  0  0  0  0  0  0  0
    2.3679   15.1540   28.5736 C   0  0  0  0  0  0  0  0  0  0  0  0
    3.5565   15.3573   29.4910 C   0  0  0  0  0  0  0  0  0  0  0  0
    2.8008   14.0613   29.5284 C   0  0  0  0  0  0  0  0  0  0  0  0
  1  2  1  0
  2  3  1  0
  2  4  1  0
  4  5  1  0
  2  6  1  0
  6  7  1  1
  7  8  1  0
  8  9  2  0
  8 10  1  0
 10 11  2  0
 11 12  1  0
 12 13  2  0
 13 14  1  0
 14 15  2  0
 13 16  1  0
 16 17  1  0
 17 18  2  0
 17 19  1  0
 19 20  1  0
  6 21  1  0
 21 22  1  0
 22 23  1  0
 15 10  1  0
 23 21  1  0
 20 12  1  0
M  END
>  <energy_score>  (2052) 
-7.764846

>  <inchikey>  (2052) 
ZCCYXVHPLAUXSH-UHFFFAOYSA-N

>  <smiles>  (2052) 
CC(C)(CO)C(NC(=O)c1cc2c(cn1)NC(=O)CO2)C1CC1

>  <ref_pdb>  (2052) 
A1068a

>  <alias>  (2052) 
ZCCYXVHPLAUXSH-UHFFFAOYSA-N-P198-P37-P198-601513

>  <HIPPO Pose ID>  (2052) 
524019

>  <name>  (2052) 
ZCCYXVHPLAUXSH-UHFFFAOYSA-N-P198-P37-P198-601513

>  <HIPPO Compound ID>  (2052) 
302475

>  <ref_mols>  (2052) 
A0310a,A3618a

>  <distance_score>  (2052) 
1.850399

>  <inspiration_score>  (2052) 
None

$$$$
MQTDRGQGAIPBRE-UHFFFAOYSA-N-P37-P37-P198-601513
     RDKit          3D

 23 25  0  0  0  0  0  0  0  0999 V2000
   13.1946   15.1892   21.7963 C   0  0  0  0  0  0  0  0  0  0  0  0
   12.5723   14.0097   21.8501 C   0  0  0  0  0  0  0  0  0  0  0  0
   11.6514   13.8039   22.9835 C   0  0  0  0  0  0  0  0  0  0  0  0
   11.5296   14.6079   23.8183 O   0  0  0  0  0  0  0  0  0  0  0  0
   10.9004   12.4779   22.7571 N   0  0  0  0  0  0  0  0  0  0  0  0
    9.8293   11.9345   23.4236 C   0  0  0  0  0  0  0  0  0  0  0  0
    8.9856   12.8650   24.0238 C   0  0  0  0  0  0  0  0  0  0  0  0
    7.9681   12.4385   24.8266 C   0  0  0  0  0  0  0  0  0  0  0  0
    7.8868   11.0763   25.0625 C   0  0  0  0  0  0  0  0  0  0  0  0
    6.8381   10.6670   26.0188 C   0  0  0  0  0  0  0  0  0  0  0  0
    6.0967    9.8269   25.7098 O   0  0  0  0  0  0  0  0  0  0  0  0
    6.8738   11.5547   27.2808 N   0  0  0  0  0  0  0  0  0  0  0  0
    5.9430   11.6565   28.3850 C   0  0  1  0  0  0  0  0  0  0  0  0
    6.1478   13.0192   29.0632 C   0  0  0  0  0  0  0  0  0  0  0  0
    6.1826   14.0454   28.0499 O   0  0  0  0  0  0  0  0  0  0  0  0
    4.9326   14.1999   27.3533 C   0  0  0  0  0  0  0  0  0  0  0  0
    4.2991   12.8954   26.9589 C   0  0  1  0  0  0  0  0  0  0  0  0
    4.6335   11.6025   27.6926 C   0  0  2  0  0  0  0  0  0  0  0  0
    3.3721   12.3125   27.9513 C   0  0  0  0  0  0  0  0  0  0  0  0
    2.2023   11.7042   27.5689 F   0  0  0  0  0  0  0  0  0  0  0  0
    3.1134   12.9808   29.1106 F   0  0  0  0  0  0  0  0  0  0  0  0
    8.6330   10.1272   24.4400 N   0  0  0  0  0  0  0  0  0  0  0  0
    9.5838   10.5811   23.5903 C   0  0  0  0  0  0  0  0  0  0  0  0
  1  2  2  0
  2  3  1  0
  3  4  2  0
  3  5  1  0
  5  6  1  0
  6  7  2  0
  7  8  1  0
  8  9  2  0
  9 10  1  0
 10 11  2  0
 10 12  1  0
 13 12  1  6
 13 14  1  0
 14 15  1  0
 15 16  1  0
 17 16  1  1
 17 18  1  0
 18 19  1  1
 19 20  1  0
 19 21  1  0
  9 22  1  0
 22 23  2  0
 23  6  1  0
 18 13  1  0
 19 17  1  0
M  END
>  <energy_score>  (2053) 
-25.259742

>  <inchikey>  (2053) 
MQTDRGQGAIPBRE-UHFFFAOYSA-N

>  <smiles>  (2053) 
C=CC(=O)Nc1ccc(C(=O)NC2COCC3C2C3(F)F)nc1

>  <ref_pdb>  (2053) 
A1068a

>  <alias>  (2053) 
MQTDRGQGAIPBRE-UHFFFAOYSA-N-P37-P37-P198-601513

>  <HIPPO Pose ID>  (2053) 
524024

>  <name>  (2053) 
MQTDRGQGAIPBRE-UHFFFAOYSA-N-P37-P37-P198-601513

>  <HIPPO Compound ID>  (2053) 
302478

>  <ref_mols>  (2053) 
A0310a,A3618a

>  <distance_score>  (2053) 
1.57881

>  <inspiration_score>  (2053) 
None

$$$$
YXKPYDAIJQJLKZ-UHFFFAOYSA-N-P198-P37-P198-601513
     RDKit          3D

 23 25  0  0  0  0  0  0  0  0999 V2000
   -1.6485   15.2446   24.4879 C   0  0  0  0  0  0  0  0  0  0  0  0
   -0.4185   15.4544   23.6252 C   0  0  0  0  0  0  0  0  0  0  0  0
    0.7135   15.7740   24.4470 O   0  0  0  0  0  0  0  0  0  0  0  0
    1.4174   14.7146   24.9442 C   0  0  0  0  0  0  0  0  0  0  0  0
    1.1058   13.5399   24.7637 O   0  0  0  0  0  0  0  0  0  0  0  0
    2.5969   15.1940   25.8195 C   0  0  1  0  0  0  0  0  0  0  0  0
    3.6802   14.2411   25.7695 N   0  0  0  0  0  0  0  0  0  0  0  0
    3.9862   13.0378   26.6603 C   0  0  0  0  0  0  0  0  0  0  0  0
    3.4596   12.6613   27.6263 O   0  0  0  0  0  0  0  0  0  0  0  0
    5.1231   12.2415   26.0877 C   0  0  0  0  0  0  0  0  0  0  0  0
    5.2084   10.9078   26.4275 C   0  0  0  0  0  0  0  0  0  0  0  0
    6.2026   10.1480   25.8367 C   0  0  0  0  0  0  0  0  0  0  0  0
    7.1052   10.7286   24.9738 C   0  0  0  0  0  0  0  0  0  0  0  0
    6.9608   12.0797   24.6963 C   0  0  0  0  0  0  0  0  0  0  0  0
    5.9769   12.8480   25.2208 N   0  0  0  0  0  0  0  0  0  0  0  0
    7.7624   12.7102   23.7740 O   0  0  0  0  0  0  0  0  0  0  0  0
    9.0036   12.0429   23.5480 C   0  0  0  0  0  0  0  0  0  0  0  0
    8.9975   10.5080   23.5229 C   0  0  0  0  0  0  0  0  0  0  0  0
    9.7616    9.8103   22.8705 O   0  0  0  0  0  0  0  0  0  0  0  0
    8.0738    9.9471   24.3548 N   0  0  0  0  0  0  0  0  0  0  0  0
    3.1441   16.5480   25.4682 C   0  0  0  0  0  0  0  0  0  0  0  0
    4.0822   17.2633   26.4127 C   0  0  0  0  0  0  0  0  0  0  0  0
    2.6842   17.7768   26.2176 C   0  0  0  0  0  0  0  0  0  0  0  0
  1  2  1  0
  2  3  1  0
  3  4  1  0
  4  5  2  0
  4  6  1  0
  6  7  1  6
  7  8  1  0
  8  9  2  0
  8 10  1  0
 10 11  2  0
 11 12  1  0
 12 13  2  0
 13 14  1  0
 14 15  2  0
 14 16  1  0
 16 17  1  0
 17 18  1  0
 18 19  2  0
 18 20  1  0
  6 21  1  0
 21 22  1  0
 22 23  1  0
 15 10  1  0
 23 21  1  0
 20 13  1  0
M  END
>  <energy_score>  (2054) 
-22.244329

>  <inchikey>  (2054) 
YXKPYDAIJQJLKZ-UHFFFAOYSA-N

>  <smiles>  (2054) 
CCOC(=O)C(NC(=O)c1ccc2c(n1)OCC(=O)N2)C1CC1

>  <ref_pdb>  (2054) 
A1068a

>  <alias>  (2054) 
YXKPYDAIJQJLKZ-UHFFFAOYSA-N-P198-P37-P198-601513

>  <HIPPO Pose ID>  (2054) 
524041

>  <name>  (2054) 
YXKPYDAIJQJLKZ-UHFFFAOYSA-N-P198-P37-P198-601513

>  <HIPPO Compound ID>  (2054) 
302486

>  <ref_mols>  (2054) 
A0310a,A3618a

>  <distance_score>  (2054) 
1.977299

>  <inspiration_score>  (2054) 
None

$$$$
DGMLZWBGVLVFKP-UHFFFAOYSA-N-P37-P37-P198-601513
     RDKit          3D

 23 26  0  0  0  0  0  0  0  0999 V2000
    1.6337   14.6351   25.3498 C   0  0  0  0  0  0  0  0  0  0  0  0
    1.5157   13.9000   26.6842 C   0  0  0  0  0  0  0  0  0  0  0  0
    2.7830   13.9050   27.6031 C   0  0  0  0  0  0  0  0  0  0  0  0
    3.9163   13.2996   26.9073 N   0  0  0  0  0  0  0  0  0  0  0  0
    5.2418   12.7234   27.4583 C   0  0  0  0  0  0  0  0  0  0  0  0
    5.6016   12.5724   28.5585 O   0  0  0  0  0  0  0  0  0  0  0  0
    6.1908   12.4193   26.3443 C   0  0  0  0  0  0  0  0  0  0  0  0
    6.6903   13.4794   25.5964 C   0  0  0  0  0  0  0  0  0  0  0  0
    7.6796   13.2118   24.6542 C   0  0  0  0  0  0  0  0  0  0  0  0
    8.1206   11.9044   24.4962 C   0  0  0  0  0  0  0  0  0  0  0  0
    7.5380   10.9034   25.2715 C   0  0  0  0  0  0  0  0  0  0  0  0
    6.5808   11.1300   26.1947 N   0  0  0  0  0  0  0  0  0  0  0  0
    7.9496    9.6077   25.1962 O   0  0  0  0  0  0  0  0  0  0  0  0
    8.7421    9.2722   24.0753 C   0  0  0  0  0  0  0  0  0  0  0  0
    9.5130   10.3211   23.3363 C   0  0  0  0  0  0  0  0  0  0  0  0
   10.3644   10.0288   22.5111 O   0  0  0  0  0  0  0  0  0  0  0  0
    9.1367   11.6084   23.5871 N   0  0  0  0  0  0  0  0  0  0  0  0
    3.1847   15.3563   27.8792 C   0  0  0  0  0  0  0  0  0  0  0  0
    4.0389   15.8084   29.0444 C   0  0  0  0  0  0  0  0  0  0  0  0
    2.5744   16.1546   29.0073 C   0  0  0  0  0  0  0  0  0  0  0  0
    2.5469   13.0885   28.8804 C   0  0  0  0  0  0  0  0  0  0  0  0
    1.1885   12.6753   29.4106 C   0  0  0  0  0  0  0  0  0  0  0  0
    2.1179   11.6375   28.8494 C   0  0  0  0  0  0  0  0  0  0  0  0
  1  2  1  0
  2  3  1  0
  3  4  1  0
  4  5  1  0
  5  6  2  0
  5  7  1  0
  7  8  2  0
  8  9  1  0
  9 10  2  0
 10 11  1  0
 11 12  2  0
 11 13  1  0
 13 14  1  0
 14 15  1  0
 15 16  2  0
 15 17  1  0
  3 18  1  0
 18 19  1  0
 19 20  1  0
  3 21  1  0
 21 22  1  0
 22 23  1  0
 12  7  1  0
 20 18  1  0
 23 21  1  0
 17 10  1  0
M  END
>  <energy_score>  (2055) 
-17.992723

>  <inchikey>  (2055) 
DGMLZWBGVLVFKP-UHFFFAOYSA-N

>  <smiles>  (2055) 
CCC(NC(=O)c1ccc2c(n1)OCC(=O)N2)(C1CC1)C1CC1

>  <ref_pdb>  (2055) 
A1068a

>  <alias>  (2055) 
DGMLZWBGVLVFKP-UHFFFAOYSA-N-P37-P37-P198-601513

>  <HIPPO Pose ID>  (2055) 
524046

>  <name>  (2055) 
DGMLZWBGVLVFKP-UHFFFAOYSA-N-P37-P37-P198-601513

>  <HIPPO Compound ID>  (2055) 
302489

>  <ref_mols>  (2055) 
A0310a,A3618a

>  <distance_score>  (2055) 
1.737494

>  <inspiration_score>  (2055) 
None

$$$$
FAWFVBUYLJLGEK-UHFFFAOYSA-N-P37-P37-P198-601514
     RDKit          3D

 24 27  0  0  0  0  0  0  0  0999 V2000
   10.4007   10.1976   22.5623 O   0  0  0  0  0  0  0  0  0  0  0  0
    9.5241   10.3724   23.3939 C   0  0  0  0  0  0  0  0  0  0  0  0
    8.7784    9.2220   23.9928 C   0  0  0  0  0  0  0  0  0  0  0  0
    7.9114    9.4276   25.0933 O   0  0  0  0  0  0  0  0  0  0  0  0
    7.4775   10.7023   25.2923 C   0  0  0  0  0  0  0  0  0  0  0  0
    6.4079   10.8778   26.1638 C   0  0  0  0  0  0  0  0  0  0  0  0
    5.9404   12.1704   26.3517 C   0  0  0  0  0  0  0  0  0  0  0  0
    4.6808   12.4190   27.1460 C   0  0  0  0  0  0  0  0  0  0  0  0
    4.1634   11.5452   27.7181 O   0  0  0  0  0  0  0  0  0  0  0  0
    4.2418   13.8819   26.9500 N   0  0  0  0  0  0  0  0  0  0  0  0
    3.1180   14.6057   27.4970 C   0  0  1  0  0  0  0  0  0  0  0  0
    1.8380   13.9614   27.0230 C   0  0  0  0  0  0  0  0  0  0  0  0
    0.5937   14.7885   26.8128 C   0  0  0  0  0  0  0  0  0  0  0  0
    1.3323   14.2356   25.6269 C   0  0  0  0  0  0  0  0  0  0  0  0
    3.1554   14.8358   29.0216 C   0  0  2  0  0  0  0  0  0  0  0  0
    4.3241   15.7591   29.4226 C   0  0  0  0  0  0  0  0  0  0  0  0
    4.7022   15.6041   30.8959 C   0  0  0  0  0  0  0  0  0  0  0  0
    3.5128   15.1343   31.7176 C   0  0  0  0  0  0  0  0  0  0  0  0
    2.9982   13.8764   31.2823 O   0  0  0  0  0  0  0  0  0  0  0  0
    3.1892   13.5789   29.8915 C   0  0  0  0  0  0  0  0  0  0  0  0
    6.5046   13.2722   25.7785 N   0  0  0  0  0  0  0  0  0  0  0  0
    7.5510   13.0552   24.9493 C   0  0  0  0  0  0  0  0  0  0  0  0
    8.0597   11.7976   24.6675 C   0  0  0  0  0  0  0  0  0  0  0  0
    9.1151   11.6162   23.7756 N   0  0  0  0  0  0  0  0  0  0  0  0
  1  2  2  0
  2  3  1  0
  3  4  1  0
  4  5  1  0
  5  6  2  0
  6  7  1  0
  7  8  1  0
  8  9  2  0
  8 10  1  0
 11 10  1  1
 11 12  1  0
 12 13  1  0
 13 14  1  0
 11 15  1  0
 15 16  1  6
 16 17  1  0
 17 18  1  0
 18 19  1  0
 19 20  1  0
  7 21  2  0
 21 22  1  0
 22 23  2  0
 23 24  1  0
 24  2  1  0
 23  5  1  0
 14 12  1  0
 20 15  1  0
M  END
>  <energy_score>  (2056) 
-17.831514

>  <inchikey>  (2056) 
FAWFVBUYLJLGEK-UHFFFAOYSA-N

>  <smiles>  (2056) 
O=C1COc2cc(C(=O)NC(C3CC3)C3CCCOC3)ncc2N1

>  <ref_pdb>  (2056) 
A0310a

>  <alias>  (2056) 
FAWFVBUYLJLGEK-UHFFFAOYSA-N-P37-P37-P198-601514

>  <HIPPO Pose ID>  (2056) 
524384

>  <name>  (2056) 
FAWFVBUYLJLGEK-UHFFFAOYSA-N-P37-P37-P198-601514

>  <HIPPO Compound ID>  (2056) 
302665

>  <ref_mols>  (2056) 
A0310a,A3618a

>  <distance_score>  (2056) 
1.831689

>  <inspiration_score>  (2056) 
None

$$$$
NLAOJTILPJEWHD-UHFFFAOYSA-N-P198-P37-P198-601514
     RDKit          3D

 24 26  0  0  0  0  0  0  0  0999 V2000
   -2.6878   13.8642   24.4986 C   0  0  0  0  0  0  0  0  0  0  0  0
   -1.4139   14.4128   24.8410 O   0  0  0  0  0  0  0  0  0  0  0  0
   -0.4150   13.4937   24.9201 C   0  0  0  0  0  0  0  0  0  0  0  0
   -0.5467   12.2876   24.7459 O   0  0  0  0  0  0  0  0  0  0  0  0
    0.8849   14.1544   25.2911 C   0  0  0  0  0  0  0  0  0  0  0  0
    1.1235   14.0372   26.7925 C   0  0  0  0  0  0  0  0  0  0  0  0
    2.4839   14.6163   27.2034 C   0  0  2  0  0  0  0  0  0  0  0  0
    3.5803   13.8579   26.6553 N   0  0  0  0  0  0  0  0  0  0  0  0
    3.9149   12.3601   26.7681 C   0  0  0  0  0  0  0  0  0  0  0  0
    3.3176   11.4882   27.2568 O   0  0  0  0  0  0  0  0  0  0  0  0
    5.2318   12.0922   26.0793 C   0  0  0  0  0  0  0  0  0  0  0  0
    5.6842   10.7920   25.9160 C   0  0  0  0  0  0  0  0  0  0  0  0
    6.8416   10.6063   25.1694 C   0  0  0  0  0  0  0  0  0  0  0  0
    7.5135   11.6952   24.6284 C   0  0  0  0  0  0  0  0  0  0  0  0
    7.0139   12.9610   24.8855 C   0  0  0  0  0  0  0  0  0  0  0  0
    5.8934   13.1923   25.6064 N   0  0  0  0  0  0  0  0  0  0  0  0
    8.6395   11.5010   23.8298 N   0  0  0  0  0  0  0  0  0  0  0  0
    9.0305   10.2512   23.4458 C   0  0  0  0  0  0  0  0  0  0  0  0
    9.9248   10.0728   22.6327 O   0  0  0  0  0  0  0  0  0  0  0  0
    8.2298    9.1103   23.9901 C   0  0  0  0  0  0  0  0  0  0  0  0
    7.2663    9.3252   25.0064 O   0  0  0  0  0  0  0  0  0  0  0  0
    2.6286   14.6483   28.6992 C   0  0  0  0  0  0  0  0  0  0  0  0
    2.1463   15.8367   29.4935 C   0  0  0  0  0  0  0  0  0  0  0  0
    3.6209   15.5788   29.3525 C   0  0  0  0  0  0  0  0  0  0  0  0
  1  2  1  0
  2  3  1  0
  3  4  2  0
  3  5  1  0
  5  6  1  0
  7  6  1  1
  7  8  1  0
  8  9  1  0
  9 10  2  0
  9 11  1  0
 11 12  2  0
 12 13  1  0
 13 14  2  0
 14 15  1  0
 15 16  2  0
 14 17  1  0
 17 18  1  0
 18 19  2  0
 18 20  1  0
 20 21  1  0
  7 22  1  0
 22 23  1  0
 23 24  1  0
 16 11  1  0
 24 22  1  0
 21 13  1  0
M  END
>  <energy_score>  (2057) 
-17.902064

>  <inchikey>  (2057) 
NLAOJTILPJEWHD-UHFFFAOYSA-N

>  <smiles>  (2057) 
COC(=O)CCC(NC(=O)c1cc2c(cn1)NC(=O)CO2)C1CC1

>  <ref_pdb>  (2057) 
A0310a

>  <alias>  (2057) 
NLAOJTILPJEWHD-UHFFFAOYSA-N-P198-P37-P198-601514

>  <HIPPO Pose ID>  (2057) 
524395

>  <name>  (2057) 
NLAOJTILPJEWHD-UHFFFAOYSA-N-P198-P37-P198-601514

>  <HIPPO Compound ID>  (2057) 
302672

>  <ref_mols>  (2057) 
A0310a,A3618a

>  <distance_score>  (2057) 
1.573456

>  <inspiration_score>  (2057) 
None

$$$$
JZQAZXMCOBUPNU-UHFFFAOYSA-N-P37-P37-P198-601514
     RDKit          3D

 24 27  0  0  0  0  0  0  0  0999 V2000
   10.3862   10.7722   22.7612 O   0  0  0  0  0  0  0  0  0  0  0  0
    9.4291   10.7491   23.5201 C   0  0  0  0  0  0  0  0  0  0  0  0
    8.8628    9.4546   24.0219 C   0  0  0  0  0  0  0  0  0  0  0  0
    8.0286    9.4783   25.1645 O   0  0  0  0  0  0  0  0  0  0  0  0
    7.3850   10.6457   25.4291 C   0  0  0  0  0  0  0  0  0  0  0  0
    6.3650   10.5974   26.3677 C   0  0  0  0  0  0  0  0  0  0  0  0
    5.7085   11.7755   26.6843 C   0  0  0  0  0  0  0  0  0  0  0  0
    4.5610   11.7205   27.6603 C   0  0  0  0  0  0  0  0  0  0  0  0
    4.3598   10.7318   28.2416 O   0  0  0  0  0  0  0  0  0  0  0  0
    3.8002   13.0536   27.6712 N   0  0  0  0  0  0  0  0  0  0  0  0
    2.6779   13.4899   28.4757 C   0  0  1  0  0  0  0  0  0  0  0  0
    3.1379   14.1932   29.7420 C   0  0  0  0  0  0  0  0  0  0  0  0
    4.4842   14.8700   29.8848 C   0  0  0  0  0  0  0  0  0  0  0  0
    4.2026   13.5981   30.6354 C   0  0  0  0  0  0  0  0  0  0  0  0
    1.6529   14.3495   27.6723 C   0  0  2  0  0  0  0  0  0  0  0  0
    0.9544   13.5213   26.5903 C   0  0  0  0  0  0  0  0  0  0  0  0
    0.2933   12.3888   27.1527 O   0  0  0  0  0  0  0  0  0  0  0  0
    2.2876   15.6437   27.1803 C   0  0  0  0  0  0  0  0  0  0  0  0
    1.5825   16.5694   26.2235 C   0  0  0  0  0  0  0  0  0  0  0  0
    2.8175   15.8291   25.7806 C   0  0  0  0  0  0  0  0  0  0  0  0
    6.0177   12.9826   26.1341 N   0  0  0  0  0  0  0  0  0  0  0  0
    7.0264   12.9850   25.2210 C   0  0  0  0  0  0  0  0  0  0  0  0
    7.7339   11.8500   24.8410 C   0  0  0  0  0  0  0  0  0  0  0  0
    8.7813   11.8863   23.9193 N   0  0  0  0  0  0  0  0  0  0  0  0
  1  2  2  0
  2  3  1  0
  3  4  1  0
  4  5  1  0
  5  6  2  0
  6  7  1  0
  7  8  1  0
  8  9  2  0
  8 10  1  0
 11 10  1  6
 11 12  1  0
 12 13  1  0
 13 14  1  0
 11 15  1  0
 15 16  1  6
 16 17  1  0
 15 18  1  0
 18 19  1  0
 19 20  1  0
  7 21  2  0
 21 22  1  0
 22 23  2  0
 23 24  1  0
 24  2  1  0
 23  5  1  0
 14 12  1  0
 20 18  1  0
M  END
>  <energy_score>  (2058) 
-36.602912

>  <inchikey>  (2058) 
JZQAZXMCOBUPNU-UHFFFAOYSA-N

>  <smiles>  (2058) 
O=C1COc2cc(C(=O)NC(C3CC3)C(CO)C3CC3)ncc2N1

>  <ref_pdb>  (2058) 
A0310a

>  <alias>  (2058) 
JZQAZXMCOBUPNU-UHFFFAOYSA-N-P37-P37-P198-601514

>  <HIPPO Pose ID>  (2058) 
524406

>  <name>  (2058) 
JZQAZXMCOBUPNU-UHFFFAOYSA-N-P37-P37-P198-601514

>  <HIPPO Compound ID>  (2058) 
302678

>  <ref_mols>  (2058) 
A0310a,A3618a

>  <distance_score>  (2058) 
1.57502

>  <inspiration_score>  (2058) 
None

$$$$
OILAYTCVSGPZKX-UHFFFAOYSA-N-P37-P37-P198-601514
     RDKit          3D

 24 27  0  0  0  0  0  0  0  0999 V2000
   10.3725   10.1759   22.6398 O   0  0  0  0  0  0  0  0  0  0  0  0
    9.4800   10.4168   23.4380 C   0  0  0  0  0  0  0  0  0  0  0  0
    8.7117    9.3250   24.1189 C   0  0  0  0  0  0  0  0  0  0  0  0
    7.8809    9.6118   25.2278 O   0  0  0  0  0  0  0  0  0  0  0  0
    7.4267   10.8956   25.3165 C   0  0  0  0  0  0  0  0  0  0  0  0
    6.4048   11.0777   26.1797 N   0  0  0  0  0  0  0  0  0  0  0  0
    5.8862   12.3334   26.3183 C   0  0  0  0  0  0  0  0  0  0  0  0
    4.6790   12.4186   27.2721 C   0  0  0  0  0  0  0  0  0  0  0  0
    4.2193   11.3953   27.5988 O   0  0  0  0  0  0  0  0  0  0  0  0
    4.2707   13.8660   27.6438 N   0  0  0  0  0  0  0  0  0  0  0  0
    3.1458   14.3600   28.4242 C   0  0  2  0  0  0  0  0  0  0  0  0
    3.1135   13.6298   29.7471 C   0  0  0  0  0  0  0  0  0  0  0  0
    2.9494   14.3826   31.0475 C   0  0  0  0  0  0  0  0  0  0  0  0
    4.2691   13.7502   30.7150 C   0  0  0  0  0  0  0  0  0  0  0  0
    1.7752   14.3852   27.6690 C   0  0  1  0  0  0  0  0  0  0  0  0
    1.4391   13.1413   26.8386 C   0  0  0  0  0  0  0  0  0  0  0  0
    1.4668   11.8901   27.5143 O   0  0  0  0  0  0  0  0  0  0  0  0
    0.6717   14.8938   28.5871 C   0  0  0  0  0  0  0  0  0  0  0  0
   -0.7777   14.9550   28.1695 C   0  0  0  0  0  0  0  0  0  0  0  0
   -0.3432   13.9874   29.2372 C   0  0  0  0  0  0  0  0  0  0  0  0
    6.4032   13.4120   25.6058 C   0  0  0  0  0  0  0  0  0  0  0  0
    7.4892   13.2048   24.7465 C   0  0  0  0  0  0  0  0  0  0  0  0
    8.0037   11.9269   24.5912 C   0  0  0  0  0  0  0  0  0  0  0  0
    9.0617   11.6866   23.7144 N   0  0  0  0  0  0  0  0  0  0  0  0
  1  2  2  0
  2  3  1  0
  3  4  1  0
  4  5  1  0
  5  6  2  0
  6  7  1  0
  7  8  1  0
  8  9  2  0
  8 10  1  0
 11 10  1  6
 11 12  1  0
 12 13  1  0
 13 14  1  0
 11 15  1  0
 15 16  1  1
 16 17  1  0
 15 18  1  0
 18 19  1  0
 19 20  1  0
  7 21  2  0
 21 22  1  0
 22 23  2  0
 23 24  1  0
 24  2  1  0
 23  5  1  0
 14 12  1  0
 20 18  1  0
M  END
>  <energy_score>  (2059) 
-22.890694

>  <inchikey>  (2059) 
OILAYTCVSGPZKX-UHFFFAOYSA-N

>  <smiles>  (2059) 
O=C1COc2nc(C(=O)NC(C3CC3)C(CO)C3CC3)ccc2N1

>  <ref_pdb>  (2059) 
A0310a

>  <alias>  (2059) 
OILAYTCVSGPZKX-UHFFFAOYSA-N-P37-P37-P198-601514

>  <HIPPO Pose ID>  (2059) 
524416

>  <name>  (2059) 
OILAYTCVSGPZKX-UHFFFAOYSA-N-P37-P37-P198-601514

>  <HIPPO Compound ID>  (2059) 
302685

>  <ref_mols>  (2059) 
A0310a,A3618a

>  <distance_score>  (2059) 
1.867991

>  <inspiration_score>  (2059) 
None

$$$$
GMINESFOVTZJJV-UHFFFAOYSA-N-P198-P37-P198-601514
     RDKit          3D

 25 27  0  0  0  0  0  0  0  0999 V2000
   12.2392   15.6243   21.6655 C   0  0  0  0  0  0  0  0  0  0  0  0
   11.6474   14.4271   21.7280 C   0  0  0  0  0  0  0  0  0  0  0  0
   10.5280   14.2472   22.6804 C   0  0  0  0  0  0  0  0  0  0  0  0
   10.0307   15.1593   23.2144 O   0  0  0  0  0  0  0  0  0  0  0  0
   10.2302   12.7285   22.7975 N   0  0  0  0  0  0  0  0  0  0  0  0
    9.2363   12.0565   23.4960 C   0  0  0  0  0  0  0  0  0  0  0  0
    8.3077   12.8348   24.1661 C   0  0  0  0  0  0  0  0  0  0  0  0
    7.3056   12.2349   24.8895 C   0  0  0  0  0  0  0  0  0  0  0  0
    7.2824   10.8474   24.9922 C   0  0  0  0  0  0  0  0  0  0  0  0
    6.0953   10.2465   25.6946 C   0  0  0  0  0  0  0  0  0  0  0  0
    5.5431    9.3376   25.2171 O   0  0  0  0  0  0  0  0  0  0  0  0
    5.7572   11.0750   26.9605 N   0  0  0  0  0  0  0  0  0  0  0  0
    4.6308   11.0150   27.8327 C   0  0  0  0  0  0  0  0  0  0  0  0
    3.6225   12.2100   27.4745 C   0  0  0  0  0  0  0  0  0  0  0  0
    2.2329   12.1510   28.0401 C   0  0  0  0  0  0  0  0  0  0  0  0
    1.4258   11.2852   27.7362 O   0  0  0  0  0  0  0  0  0  0  0  0
    1.9707   13.2214   28.8400 O   0  0  0  0  0  0  0  0  0  0  0  0
    0.5781   13.5377   28.9368 C   0  0  0  0  0  0  0  0  0  0  0  0
    0.1055   14.1540   27.6241 C   0  0  0  0  0  0  0  0  0  0  0  0
    3.6611   12.8207   26.0609 C   0  0  0  0  0  0  0  0  0  0  0  0
    4.2386   13.6007   27.1932 C   0  0  0  0  0  0  0  0  0  0  0  0
    4.1717    9.6891   28.3838 C   0  0  0  0  0  0  0  0  0  0  0  0
    4.8742   10.6536   29.2874 C   0  0  0  0  0  0  0  0  0  0  0  0
    8.1530   10.0521   24.3296 N   0  0  0  0  0  0  0  0  0  0  0  0
    9.1071   10.6712   23.5797 C   0  0  0  0  0  0  0  0  0  0  0  0
  1  2  2  0
  2  3  1  0
  3  4  2  0
  3  5  1  0
  5  6  1  0
  6  7  2  0
  7  8  1  0
  8  9  2  0
  9 10  1  0
 10 11  2  0
 10 12  1  0
 12 13  1  0
 13 14  1  0
 14 15  1  0
 15 16  2  0
 15 17  1  0
 17 18  1  0
 18 19  1  0
 14 20  1  0
 20 21  1  0
 13 22  1  0
 22 23  1  0
  9 24  1  0
 24 25  2  0
 25  6  1  0
 23 13  1  0
 21 14  1  0
M  END
>  <energy_score>  (2060) 
-27.749994

>  <inchikey>  (2060) 
GMINESFOVTZJJV-UHFFFAOYSA-N

>  <smiles>  (2060) 
C=CC(=O)Nc1ccc(C(=O)NC2(C3(C(=O)OCC)CC3)CC2)nc1

>  <ref_pdb>  (2060) 
A0310a

>  <alias>  (2060) 
GMINESFOVTZJJV-UHFFFAOYSA-N-P198-P37-P198-601514

>  <HIPPO Pose ID>  (2060) 
524521

>  <name>  (2060) 
GMINESFOVTZJJV-UHFFFAOYSA-N-P198-P37-P198-601514

>  <HIPPO Compound ID>  (2060) 
302750

>  <ref_mols>  (2060) 
A0310a,A3618a

>  <distance_score>  (2060) 
1.706569

>  <inspiration_score>  (2060) 
None

$$$$
NJEWFJRJIPGVJF-UHFFFAOYSA-N-P198-P37-P198-601514
     RDKit          3D

 26 28  0  0  0  0  0  0  0  0999 V2000
    0.6702   13.1091   26.2677 O   0  0  0  0  0  0  0  0  0  0  0  0
    1.5471   12.8962   27.0859 C   0  0  0  0  0  0  0  0  0  0  0  0
    1.3588   12.6249   28.3950 N   0  0  0  0  0  0  0  0  0  0  0  0
    2.5416   12.3325   28.9981 C   0  0  0  0  0  0  0  0  0  0  0  0
    2.6602   12.0484   30.1808 O   0  0  0  0  0  0  0  0  0  0  0  0
    3.6597   12.4678   27.9692 C   0  0  1  0  0  0  0  0  0  0  0  0
    4.4952   11.2433   27.6602 C   0  0  0  0  0  0  0  0  0  0  0  0
    5.4804   11.4624   26.6587 N   0  0  0  0  0  0  0  0  0  0  0  0
    6.0324   10.5141   25.5681 C   0  0  0  0  0  0  0  0  0  0  0  0
    5.7105    9.4335   25.2736 O   0  0  0  0  0  0  0  0  0  0  0  0
    7.0761   11.1951   24.7584 C   0  0  0  0  0  0  0  0  0  0  0  0
    6.9263   12.5333   24.4194 C   0  0  0  0  0  0  0  0  0  0  0  0
    7.9388   13.1360   23.7063 C   0  0  0  0  0  0  0  0  0  0  0  0
    9.0402   12.3849   23.3275 C   0  0  0  0  0  0  0  0  0  0  0  0
   10.1089   13.0108   22.7229 N   0  0  0  0  0  0  0  0  0  0  0  0
   10.3509   14.5303   22.3988 C   0  0  0  0  0  0  0  0  0  0  0  0
    9.6428   15.4570   22.5293 O   0  0  0  0  0  0  0  0  0  0  0  0
   11.8103   14.5900   21.9477 C   0  0  0  0  0  0  0  0  0  0  0  0
   12.4165   15.7638   22.2308 F   0  0  0  0  0  0  0  0  0  0  0  0
   12.5058   13.6316   22.6328 F   0  0  0  0  0  0  0  0  0  0  0  0
   11.9702   14.3234   20.6325 F   0  0  0  0  0  0  0  0  0  0  0  0
    9.0668   11.0277   23.6249 C   0  0  0  0  0  0  0  0  0  0  0  0
    8.1185   10.4278   24.3642 N   0  0  0  0  0  0  0  0  0  0  0  0
    4.8956   10.3238   28.7807 C   0  0  0  0  0  0  0  0  0  0  0  0
    3.8667    9.8744   27.7841 C   0  0  0  0  0  0  0  0  0  0  0  0
    2.8909   12.8669   26.8142 N   0  0  0  0  0  0  0  0  0  0  0  0
  1  2  2  0
  2  3  1  0
  3  4  1  0
  4  5  2  0
  4  6  1  0
  6  7  1  6
  7  8  1  0
  8  9  1  0
  9 10  2  0
  9 11  1  0
 11 12  2  0
 12 13  1  0
 13 14  2  0
 14 15  1  0
 15 16  1  0
 16 17  2  0
 16 18  1  0
 18 19  1  0
 18 20  1  0
 18 21  1  0
 14 22  1  0
 22 23  2  0
  7 24  1  0
 24 25  1  0
  6 26  1  0
 26  2  1  0
 25  7  1  0
 23 11  1  0
M  END
>  <energy_score>  (2061) 
-15.055591

>  <inchikey>  (2061) 
NJEWFJRJIPGVJF-UHFFFAOYSA-N

>  <smiles>  (2061) 
O=C1NC(=O)C(C2(NC(=O)c3ccc(NC(=O)C(F)(F)F)cn3)CC2)N1

>  <ref_pdb>  (2061) 
A0310a

>  <alias>  (2061) 
NJEWFJRJIPGVJF-UHFFFAOYSA-N-P198-P37-P198-601514

>  <HIPPO Pose ID>  (2061) 
524811

>  <name>  (2061) 
NJEWFJRJIPGVJF-UHFFFAOYSA-N-P198-P37-P198-601514

>  <HIPPO Compound ID>  (2061) 
302905

>  <ref_mols>  (2061) 
A0310a,A3618a

>  <distance_score>  (2061) 
1.748837

>  <inspiration_score>  (2061) 
None

$$$$
DXBGHVASUGUZDJ-UHFFFAOYSA-N-P141-P77-P141-601514
     RDKit          3D

 23 25  0  0  0  0  0  0  0  0999 V2000
   11.1413   15.3480   18.7401 C   0  0  0  0  0  0  0  0  0  0  0  0
   11.0369   15.2698   20.1586 O   0  0  0  0  0  0  0  0  0  0  0  0
   11.8853   14.3710   20.7305 C   0  0  0  0  0  0  0  0  0  0  0  0
   12.6995   13.6916   20.1260 O   0  0  0  0  0  0  0  0  0  0  0  0
   11.6393   14.3072   22.2080 C   0  0  2  0  0  0  0  0  0  0  0  0
   10.4822   13.6151   22.6036 N   0  0  0  0  0  0  0  0  0  0  0  0
    9.0999   14.1356   23.0053 C   0  0  0  0  0  0  0  0  0  0  0  0
    8.6707   15.2154   23.0001 O   0  0  0  0  0  0  0  0  0  0  0  0
    8.3434   13.0073   23.5415 C   0  0  0  0  0  0  0  0  0  0  0  0
    8.5517   11.6527   23.4322 C   0  0  0  0  0  0  0  0  0  0  0  0
    7.8370   10.8860   24.3926 C   0  0  0  0  0  0  0  0  0  0  0  0
    7.9433    9.5459   24.5562 O   0  0  0  0  0  0  0  0  0  0  0  0
    8.9341    8.9264   23.7260 C   0  0  0  0  0  0  0  0  0  0  0  0
    7.0038   11.6758   25.1600 C   0  0  0  0  0  0  0  0  0  0  0  0
    5.8643   11.4500   26.4813 S   0  0  0  0  0  0  0  0  0  0  0  0
    6.4249   12.3825   27.7711 N   0  0  0  0  0  0  0  0  0  0  0  0
    4.6168   12.1056   26.1720 O   0  0  0  0  0  0  0  0  0  0  0  0
    5.9314   10.0837   26.9250 O   0  0  0  0  0  0  0  0  0  0  0  0
    7.1749   13.3267   24.7251 S   0  0  0  0  0  0  0  0  0  0  0  0
   12.2850   15.5663   22.8556 C   0  0  0  0  0  0  0  0  0  0  0  0
   12.5174   14.2791   23.4356 C   0  0  0  0  0  0  0  0  0  0  0  0
   13.1934   13.4730   24.4529 C   0  0  0  0  0  0  0  0  0  0  0  0
   11.9045   14.0627   24.8575 C   0  0  0  0  0  0  0  0  0  0  0  0
  1  2  1  0
  2  3  1  0
  3  4  2  0
  3  5  1  0
  5  6  1  6
  6  7  1  0
  7  8  2  0
  7  9  1  0
  9 10  2  0
 10 11  1  0
 11 12  1  0
 12 13  1  0
 11 14  2  0
 14 15  1  0
 15 16  1  0
 15 17  2  0
 15 18  2  0
 14 19  1  0
  5 20  1  0
 20 21  1  0
 21 22  1  0
 22 23  1  0
 21  5  1  0
 19  9  1  0
 23 21  1  0
M  END
>  <energy_score>  (2062) 
-6.903086

>  <inchikey>  (2062) 
DXBGHVASUGUZDJ-UHFFFAOYSA-N

>  <smiles>  (2062) 
COC(=O)C1(NC(=O)c2cc(OC)c(S(N)(=O)=O)s2)CC12CC2

>  <ref_pdb>  (2062) 
A0310a

>  <alias>  (2062) 
DXBGHVASUGUZDJ-UHFFFAOYSA-N-P141-P77-P141-601514

>  <HIPPO Pose ID>  (2062) 
525099

>  <name>  (2062) 
DXBGHVASUGUZDJ-UHFFFAOYSA-N-P141-P77-P141-601514

>  <HIPPO Compound ID>  (2062) 
306919

>  <ref_mols>  (2062) 
A0719a,A3176a

>  <distance_score>  (2062) 
1.956319

>  <inspiration_score>  (2062) 
None

$$$$
CONJOSKQYFQQRH-UHFFFAOYSA-N-P141-P77-P141-601514
     RDKit          3D

 24 26  0  0  0  0  0  0  0  0999 V2000
   10.3021   16.7149   18.4616 C   0  0  0  0  0  0  0  0  0  0  0  0
   11.0962   15.4708   18.8130 C   0  0  0  0  0  0  0  0  0  0  0  0
   10.9263   15.2265   20.2098 O   0  0  0  0  0  0  0  0  0  0  0  0
   11.8315   14.3745   20.7619 C   0  0  0  0  0  0  0  0  0  0  0  0
   12.6935   13.7634   20.1508 O   0  0  0  0  0  0  0  0  0  0  0  0
   11.6120   14.3056   22.2423 C   0  0  2  0  0  0  0  0  0  0  0  0
   10.4374   13.6516   22.6484 N   0  0  0  0  0  0  0  0  0  0  0  0
    9.0188   14.1892   22.8525 C   0  0  0  0  0  0  0  0  0  0  0  0
    8.5751   15.2425   22.6440 O   0  0  0  0  0  0  0  0  0  0  0  0
    8.2651   13.1191   23.4934 C   0  0  0  0  0  0  0  0  0  0  0  0
    8.4549   11.7575   23.4453 C   0  0  0  0  0  0  0  0  0  0  0  0
    7.7602   11.0526   24.4606 C   0  0  0  0  0  0  0  0  0  0  0  0
    7.8316    9.7157   24.6768 O   0  0  0  0  0  0  0  0  0  0  0  0
    8.7813    9.0369   23.8403 C   0  0  0  0  0  0  0  0  0  0  0  0
    6.9869   11.9027   25.2278 C   0  0  0  0  0  0  0  0  0  0  0  0
    5.9280   11.7504   26.6228 S   0  0  0  0  0  0  0  0  0  0  0  0
    5.8263   10.1395   27.0119 N   0  0  0  0  0  0  0  0  0  0  0  0
    4.5913   12.1470   26.2570 O   0  0  0  0  0  0  0  0  0  0  0  0
    6.6105   12.3954   27.7227 O   0  0  0  0  0  0  0  0  0  0  0  0
    7.1467   13.5234   24.6963 S   0  0  0  0  0  0  0  0  0  0  0  0
   12.2961   15.5537   22.8778 C   0  0  0  0  0  0  0  0  0  0  0  0
   12.5031   14.2622   23.4573 C   0  0  0  0  0  0  0  0  0  0  0  0
   13.1796   13.4478   24.4670 C   0  0  0  0  0  0  0  0  0  0  0  0
   11.9009   14.0555   24.8825 C   0  0  0  0  0  0  0  0  0  0  0  0
  1  2  1  0
  2  3  1  0
  3  4  1  0
  4  5  2  0
  4  6  1  0
  6  7  1  6
  7  8  1  0
  8  9  2  0
  8 10  1  0
 10 11  2  0
 11 12  1  0
 12 13  1  0
 13 14  1  0
 12 15  2  0
 15 16  1  0
 16 17  1  0
 16 18  2  0
 16 19  2  0
 15 20  1  0
  6 21  1  0
 21 22  1  0
 22 23  1  0
 23 24  1  0
 22  6  1  0
 20 10  1  0
 24 22  1  0
M  END
>  <energy_score>  (2063) 
-21.183179

>  <inchikey>  (2063) 
CONJOSKQYFQQRH-UHFFFAOYSA-N

>  <smiles>  (2063) 
CCOC(=O)C1(NC(=O)c2cc(OC)c(S(N)(=O)=O)s2)CC12CC2

>  <ref_pdb>  (2063) 
A0310a

>  <alias>  (2063) 
CONJOSKQYFQQRH-UHFFFAOYSA-N-P141-P77-P141-601514

>  <HIPPO Pose ID>  (2063) 
525109

>  <name>  (2063) 
CONJOSKQYFQQRH-UHFFFAOYSA-N-P141-P77-P141-601514

>  <HIPPO Compound ID>  (2063) 
306924

>  <ref_mols>  (2063) 
A0719a,A3176a

>  <distance_score>  (2063) 
1.946757

>  <inspiration_score>  (2063) 
None

$$$$
XPUYKSIAVXSTRP-UHFFFAOYSA-N-P248-P124-P248-601515
     RDKit          3D

 19 19  0  0  0  0  0  0  0  0999 V2000
    6.7856    9.0658   25.0830 O   0  0  0  0  0  0  0  0  0  0  0  0
    7.0309   10.2220   25.3493 C   0  0  0  0  0  0  0  0  0  0  0  0
    6.1614   11.1320   26.1342 C   0  0  0  0  0  0  0  0  0  0  0  0
    6.5775   12.4799   25.5870 C   0  0  1  0  0  0  0  0  0  0  0  0
    6.5014   13.5179   26.6348 C   0  0  0  0  0  0  0  0  0  0  0  0
    5.2244   13.8863   26.8322 F   0  0  0  0  0  0  0  0  0  0  0  0
    7.2112   14.5873   26.2212 F   0  0  0  0  0  0  0  0  0  0  0  0
    6.9848   13.1354   27.8276 F   0  0  0  0  0  0  0  0  0  0  0  0
    7.9752   12.3317   25.0286 C   0  0  2  0  0  0  0  0  0  0  0  0
    8.1052   12.8232   23.5703 C   0  0  0  0  0  0  0  0  0  0  0  0
    8.4867   12.0826   22.7561 O   0  0  0  0  0  0  0  0  0  0  0  0
    7.5809   14.2700   23.4403 N   0  0  0  0  0  0  0  0  0  0  0  0
    7.5056   15.1449   22.2846 C   0  0  0  0  0  0  0  0  0  0  0  0
    8.5516   14.8881   21.1997 C   0  0  0  0  0  0  0  0  0  0  0  0
    9.9149   15.1005   21.6396 C   0  0  0  0  0  0  0  0  0  0  0  0
   10.9760   15.3264   22.1357 C   0  0  0  0  0  0  0  0  0  0  0  0
   12.1207   15.6217   22.9477 C   0  0  0  0  0  0  0  0  0  0  0  0
   12.0397   14.8658   24.1523 O   0  0  0  0  0  0  0  0  0  0  0  0
    8.1706   10.8981   25.0014 N   0  0  0  0  0  0  0  0  0  0  0  0
  1  2  2  0
  2  3  1  0
  3  4  1  0
  4  5  1  1
  5  6  1  0
  5  7  1  0
  5  8  1  0
  4  9  1  0
  9 10  1  6
 10 11  2  0
 10 12  1  0
 12 13  1  0
 13 14  1  0
 14 15  1  0
 15 16  3  0
 16 17  1  0
 17 18  1  0
  9 19  1  0
 19  2  1  0
M  END
>  <energy_score>  (2064) 
-0.022312

>  <inchikey>  (2064) 
XPUYKSIAVXSTRP-UHFFFAOYSA-N

>  <smiles>  (2064) 
O=C1CC(C(F)(F)F)C(C(=O)NCCC#CCO)N1

>  <ref_pdb>  (2064) 
A1778a

>  <alias>  (2064) 
XPUYKSIAVXSTRP-UHFFFAOYSA-N-P248-P124-P248-601515

>  <HIPPO Pose ID>  (2064) 
527082

>  <name>  (2064) 
XPUYKSIAVXSTRP-UHFFFAOYSA-N-P248-P124-P248-601515

>  <HIPPO Compound ID>  (2064) 
299634

>  <ref_mols>  (2064) 
A3956a,A1778a

>  <distance_score>  (2064) 
1.581194

>  <inspiration_score>  (2064) 
None

$$$$
VRDFFLXYQCQXHS-UHFFFAOYSA-N-P248-P124-P248-601515
     RDKit          3D

 23 26  0  0  0  0  0  0  0  0999 V2000
    5.3164   13.8394   26.9640 C   0  0  0  0  0  0  0  0  0  0  0  0
    5.7456   12.5121   26.3147 C   0  0  2  0  0  0  0  0  0  0  0  0
    5.8398   11.5138   27.4201 C   0  0  0  0  0  0  0  0  0  0  0  0
    5.4150   10.0875   27.2474 C   0  0  0  0  0  0  0  0  0  0  0  0
    4.5300   11.0285   28.0060 C   0  0  0  0  0  0  0  0  0  0  0  0
    6.9575   12.6706   25.5152 N   0  0  0  0  0  0  0  0  0  0  0  0
    7.0679   13.8727   24.7248 C   0  0  0  0  0  0  0  0  0  0  0  0
    7.8509   13.5087   23.4906 C   0  0  1  0  0  0  0  0  0  0  0  0
    8.8786   14.5646   23.2078 C   0  0  0  0  0  0  0  0  0  0  0  0
    9.2191   15.3436   24.0051 O   0  0  0  0  0  0  0  0  0  0  0  0
    9.3958   14.3075   21.7721 N   0  0  0  0  0  0  0  0  0  0  0  0
   10.4866   14.8847   21.0671 C   0  0  2  0  0  0  0  0  0  0  0  0
   10.2474   15.8158   19.8938 C   0  0  0  0  0  0  0  0  0  0  0  0
    9.4541   15.2567   18.9684 F   0  0  0  0  0  0  0  0  0  0  0  0
    9.6725   16.9709   20.2965 F   0  0  0  0  0  0  0  0  0  0  0  0
   11.3834   16.1201   19.2405 F   0  0  0  0  0  0  0  0  0  0  0  0
   11.7519   14.0040   20.9720 C   0  0  0  0  0  0  0  0  0  0  0  0
   11.6776   15.1226   21.8688 C   0  0  0  0  0  0  0  0  0  0  0  0
   12.5295   16.2463   22.0762 C   0  0  0  0  0  0  0  0  0  0  0  0
   12.1044   15.3505   23.2409 C   0  0  0  0  0  0  0  0  0  0  0  0
    8.5736   12.2242   23.8720 C   0  0  0  0  0  0  0  0  0  0  0  0
    7.7160   11.6437   24.9593 C   0  0  0  0  0  0  0  0  0  0  0  0
    7.7547   10.4656   25.2713 O   0  0  0  0  0  0  0  0  0  0  0  0
  2  1  1  1
  2  3  1  0
  3  4  1  0
  4  5  1  0
  2  6  1  0
  6  7  1  0
  7  8  1  0
  8  9  1  1
  9 10  2  0
  9 11  1  0
 12 11  1  1
 12 13  1  0
 13 14  1  0
 13 15  1  0
 13 16  1  0
 12 17  1  0
 17 18  1  0
 18 19  1  0
 19 20  1  0
  8 21  1  0
 21 22  1  0
 22 23  2  0
  5  3  1  0
 22  6  1  0
 18 12  1  0
 20 18  1  0
M  END
>  <energy_score>  (2065) 
-0.377488

>  <inchikey>  (2065) 
VRDFFLXYQCQXHS-UHFFFAOYSA-N

>  <smiles>  (2065) 
CC(C1CC1)N1CC(C(=O)NC2(C(F)(F)F)CC23CC3)CC1=O

>  <ref_pdb>  (2065) 
A1778a

>  <alias>  (2065) 
VRDFFLXYQCQXHS-UHFFFAOYSA-N-P248-P124-P248-601515

>  <HIPPO Pose ID>  (2065) 
527304

>  <name>  (2065) 
VRDFFLXYQCQXHS-UHFFFAOYSA-N-P248-P124-P248-601515

>  <HIPPO Compound ID>  (2065) 
298955

>  <ref_mols>  (2065) 
A3956a,A1778a

>  <distance_score>  (2065) 
1.639631

>  <inspiration_score>  (2065) 
None

$$$$
FTKBPLXFCAUMGN-UHFFFAOYSA-N-P124-P124-P248-601515
     RDKit          3D

 24 25  0  0  0  0  0  0  0  0999 V2000
   12.8871   12.1203   21.6909 C   0  0  0  0  0  0  0  0  0  0  0  0
   11.7612   12.0002   22.5569 O   0  0  0  0  0  0  0  0  0  0  0  0
   11.1353   10.8036   22.5144 C   0  0  0  0  0  0  0  0  0  0  0  0
   11.5837    9.7706   22.0311 O   0  0  0  0  0  0  0  0  0  0  0  0
    9.7595   10.8683   23.1450 C   0  0  1  0  0  0  0  0  0  0  0  0
    9.8020   10.3788   24.5455 C   0  0  0  0  0  0  0  0  0  0  0  0
    9.9375   11.6639   25.3062 C   0  0  0  0  0  0  0  0  0  0  0  0
    9.0612   12.7066   24.6533 C   0  0  1  0  0  0  0  0  0  0  0  0
    7.7579   12.7817   25.3478 N   0  0  0  0  0  0  0  0  0  0  0  0
    7.4107   13.2394   26.7853 C   0  0  0  0  0  0  0  0  0  0  0  0
    8.1059   13.5536   27.6657 O   0  0  0  0  0  0  0  0  0  0  0  0
    5.8950   13.1891   27.0300 C   0  0  2  0  0  0  0  0  0  0  0  0
    5.6240   14.0928   28.2485 C   0  0  0  0  0  0  0  0  0  0  0  0
    5.8860   13.1542   29.4208 C   0  0  0  0  0  0  0  0  0  0  0  0
    5.9324   13.4531   30.6001 O   0  0  0  0  0  0  0  0  0  0  0  0
    5.9529   11.8520   28.9262 N   0  0  0  0  0  0  0  0  0  0  0  0
    5.4317   11.8277   27.5801 C   0  0  0  0  0  0  0  0  0  0  0  0
    3.8949   11.7947   27.7207 C   0  0  0  0  0  0  0  0  0  0  0  0
    5.9437   10.6549   26.7553 C   0  0  0  0  0  0  0  0  0  0  0  0
    9.7308   14.0669   24.7332 C   0  0  0  0  0  0  0  0  0  0  0  0
    8.8956   15.0158   24.2786 F   0  0  0  0  0  0  0  0  0  0  0  0
   10.1432   14.3705   25.9710 F   0  0  0  0  0  0  0  0  0  0  0  0
   10.8109   14.0464   23.9340 F   0  0  0  0  0  0  0  0  0  0  0  0
    9.0517   12.2414   23.2047 C   0  0  0  0  0  0  0  0  0  0  0  0
  1  2  1  0
  2  3  1  0
  3  4  2  0
  5  3  1  1
  5  6  1  0
  6  7  1  0
  7  8  1  0
  8  9  1  1
  9 10  1  0
 10 11  2  0
 12 10  1  1
 12 13  1  0
 13 14  1  0
 14 15  2  0
 14 16  1  0
 16 17  1  0
 17 18  1  0
 17 19  1  0
  8 20  1  0
 20 21  1  0
 20 22  1  0
 20 23  1  0
  8 24  1  0
 24  5  1  0
 17 12  1  0
M  END
>  <energy_score>  (2066) 
-16.347115

>  <inchikey>  (2066) 
FTKBPLXFCAUMGN-UHFFFAOYSA-N

>  <smiles>  (2066) 
COC(=O)C1CCC(NC(=O)C2CC(=O)NC2(C)C)(C(F)(F)F)C1

>  <ref_pdb>  (2066) 
A1778a

>  <alias>  (2066) 
FTKBPLXFCAUMGN-UHFFFAOYSA-N-P124-P124-P248-601515

>  <HIPPO Pose ID>  (2066) 
527441

>  <name>  (2066) 
FTKBPLXFCAUMGN-UHFFFAOYSA-N-P124-P124-P248-601515

>  <HIPPO Compound ID>  (2066) 
299080

>  <ref_mols>  (2066) 
A3956a,A1778a

>  <distance_score>  (2066) 
1.993633

>  <inspiration_score>  (2066) 
None

$$$$
KDULNANLJRXQLY-UHFFFAOYSA-N-P183-P183-P303-601515
     RDKit          3D

 17 18  0  0  0  0  0  0  0  0999 V2000
    9.9889   11.7131   22.9401 C   0  0  0  0  0  0  0  0  0  0  0  0
    8.7369   11.6386   23.6858 N   0  0  0  0  0  0  0  0  0  0  0  0
    8.6140   10.2452   24.1538 C   0  0  0  0  0  0  0  0  0  0  0  0
    7.6240   10.0247   25.2879 C   0  0  0  0  0  0  0  0  0  0  0  0
    6.8341   11.1774   25.8573 C   0  0  0  0  0  0  0  0  0  0  0  0
    7.2970   12.5463   25.4271 C   0  0  0  0  0  0  0  0  0  0  0  0
    8.6993   12.5803   24.8193 C   0  0  2  0  0  0  0  0  0  0  0  0
    9.0452   14.0857   24.6729 C   0  0  0  0  0  0  0  0  0  0  0  0
    9.4429   14.5245   23.3808 N   0  0  0  0  0  0  0  0  0  0  0  0
   10.8388   14.8159   22.8126 C   0  0  0  0  0  0  0  0  0  0  0  0
   11.8785   14.8175   23.3322 O   0  0  0  0  0  0  0  0  0  0  0  0
   10.6806   15.0951   21.3691 C   0  0  0  0  0  0  0  0  0  0  0  0
   11.6408   14.6609   20.5548 C   0  0  0  0  0  0  0  0  0  0  0  0
   11.1643   14.9582   19.2122 C   0  0  0  0  0  0  0  0  0  0  0  0
   11.7210   14.5136   18.2239 O   0  0  0  0  0  0  0  0  0  0  0  0
    9.9562   15.8404   19.2400 C   0  0  0  0  0  0  0  0  0  0  0  0
    9.5329   15.7753   20.6974 C   0  0  0  0  0  0  0  0  0  0  0  0
  1  2  1  0
  2  3  1  0
  3  4  1  0
  4  5  1  0
  5  6  1  0
  6  7  1  0
  7  8  1  6
  8  9  1  0
  9 10  1  0
 10 11  2  0
 10 12  1  0
 12 13  2  0
 13 14  1  0
 14 15  2  0
 14 16  1  0
 16 17  1  0
  7  2  1  0
 17 12  1  0
M  END
>  <energy_score>  (2067) 
-6.212005

>  <inchikey>  (2067) 
KDULNANLJRXQLY-UHFFFAOYSA-N

>  <smiles>  (2067) 
CN1CCCCC1CNC(=O)C1=CC(=O)CC1

>  <ref_pdb>  (2067) 
A1778a

>  <alias>  (2067) 
KDULNANLJRXQLY-UHFFFAOYSA-N-P183-P183-P303-601515

>  <HIPPO Pose ID>  (2067) 
527481

>  <name>  (2067) 
KDULNANLJRXQLY-UHFFFAOYSA-N-P183-P183-P303-601515

>  <HIPPO Compound ID>  (2067) 
293190

>  <ref_mols>  (2067) 
A4320a,A3436a

>  <distance_score>  (2067) 
1.60536

>  <inspiration_score>  (2067) 
None

$$$$
OSPVCXNPSZGZLR-UHFFFAOYSA-N-P183-P183-P303-601515
     RDKit          3D

 17 18  0  0  0  0  0  0  0  0999 V2000
    9.7496   10.3798   23.1528 C   0  0  0  0  0  0  0  0  0  0  0  0
    8.6312   10.9283   23.9030 N   0  0  0  0  0  0  0  0  0  0  0  0
    8.1015    9.8546   24.7451 C   0  0  0  0  0  0  0  0  0  0  0  0
    6.9406   10.2879   25.6462 C   0  0  0  0  0  0  0  0  0  0  0  0
    6.7836   11.7844   25.9482 C   0  0  0  0  0  0  0  0  0  0  0  0
    7.6299   12.7255   25.0901 C   0  0  0  0  0  0  0  0  0  0  0  0
    8.9527   12.0317   24.8190 C   0  0  2  0  0  0  0  0  0  0  0  0
   10.1367   12.9565   24.6081 C   0  0  0  0  0  0  0  0  0  0  0  0
   10.1736   13.5759   23.3551 N   0  0  0  0  0  0  0  0  0  0  0  0
   11.2529   14.4308   22.7056 C   0  0  0  0  0  0  0  0  0  0  0  0
   12.2551   14.8256   23.1304 O   0  0  0  0  0  0  0  0  0  0  0  0
   10.7161   14.7719   21.3828 C   0  0  0  0  0  0  0  0  0  0  0  0
   11.5261   14.7225   20.3201 C   0  0  0  0  0  0  0  0  0  0  0  0
   11.0027   15.1159   18.9868 C   0  0  0  0  0  0  0  0  0  0  0  0
    9.8937   16.1694   19.0764 C   0  0  0  0  0  0  0  0  0  0  0  0
    9.3027   16.4885   20.4383 C   0  0  0  0  0  0  0  0  0  0  0  0
    9.2991   15.2442   21.2732 C   0  0  0  0  0  0  0  0  0  0  0  0
  1  2  1  0
  2  3  1  0
  3  4  1  0
  4  5  1  0
  5  6  1  0
  6  7  1  0
  7  8  1  6
  8  9  1  0
  9 10  1  0
 10 11  2  0
 10 12  1  0
 12 13  2  0
 13 14  1  0
 14 15  1  0
 15 16  1  0
 16 17  1  0
  7  2  1  0
 17 12  1  0
M  END
>  <energy_score>  (2068) 
-7.270349

>  <inchikey>  (2068) 
OSPVCXNPSZGZLR-UHFFFAOYSA-N

>  <smiles>  (2068) 
CN1CCCCC1CNC(=O)C1=CCCCC1

>  <ref_pdb>  (2068) 
A1778a

>  <alias>  (2068) 
OSPVCXNPSZGZLR-UHFFFAOYSA-N-P183-P183-P303-601515

>  <HIPPO Pose ID>  (2068) 
527495

>  <name>  (2068) 
OSPVCXNPSZGZLR-UHFFFAOYSA-N-P183-P183-P303-601515

>  <HIPPO Compound ID>  (2068) 
293200

>  <ref_mols>  (2068) 
A4320a,A3436a

>  <distance_score>  (2068) 
1.779239

>  <inspiration_score>  (2068) 
None

$$$$
MXFAZUNXOBXRMG-UHFFFAOYSA-N-P183-P183-P303-601515
     RDKit          3D

 17 18  0  0  0  0  0  0  0  0999 V2000
    9.5775   11.4878   23.2670 C   0  0  0  0  0  0  0  0  0  0  0  0
    8.2935   11.5509   23.9672 N   0  0  0  0  0  0  0  0  0  0  0  0
    8.2604   10.5240   24.9873 C   0  0  0  0  0  0  0  0  0  0  0  0
    6.9612   10.3878   25.7449 C   0  0  0  0  0  0  0  0  0  0  0  0
    6.3533   11.6984   26.1846 C   0  0  1  0  0  0  0  0  0  0  0  0
    6.2367   11.6985   27.6196 O   0  0  0  0  0  0  0  0  0  0  0  0
    7.1409   12.9246   25.7901 C   0  0  0  0  0  0  0  0  0  0  0  0
    7.8883   12.8894   24.4460 C   0  0  1  0  0  0  0  0  0  0  0  0
    8.9832   13.9826   24.5658 C   0  0  0  0  0  0  0  0  0  0  0  0
    9.4017   14.4745   23.2914 N   0  0  0  0  0  0  0  0  0  0  0  0
   10.8123   14.6246   22.6907 C   0  0  0  0  0  0  0  0  0  0  0  0
   11.8588   14.4433   23.1679 O   0  0  0  0  0  0  0  0  0  0  0  0
   10.6348   15.0066   21.2597 C   0  0  0  0  0  0  0  0  0  0  0  0
   11.5784   14.7515   20.3450 C   0  0  0  0  0  0  0  0  0  0  0  0
   11.0935   15.0242   18.9648 C   0  0  0  0  0  0  0  0  0  0  0  0
    9.8657   15.8831   19.2113 C   0  0  0  0  0  0  0  0  0  0  0  0
    9.4068   15.5748   20.6251 C   0  0  0  0  0  0  0  0  0  0  0  0
  1  2  1  0
  2  3  1  0
  3  4  1  0
  4  5  1  0
  5  6  1  1
  5  7  1  0
  7  8  1  0
  8  9  1  1
  9 10  1  0
 10 11  1  0
 11 12  2  0
 11 13  1  0
 13 14  2  0
 14 15  1  0
 15 16  1  0
 16 17  1  0
  8  2  1  0
 17 13  1  0
M  END
>  <energy_score>  (2069) 
-19.584371

>  <inchikey>  (2069) 
MXFAZUNXOBXRMG-UHFFFAOYSA-N

>  <smiles>  (2069) 
CN1CCC(O)CC1CNC(=O)C1=CCCC1

>  <ref_pdb>  (2069) 
A1778a

>  <alias>  (2069) 
MXFAZUNXOBXRMG-UHFFFAOYSA-N-P183-P183-P303-601515

>  <HIPPO Pose ID>  (2069) 
527521

>  <name>  (2069) 
MXFAZUNXOBXRMG-UHFFFAOYSA-N-P183-P183-P303-601515

>  <HIPPO Compound ID>  (2069) 
293224

>  <ref_mols>  (2069) 
A4320a,A3436a

>  <distance_score>  (2069) 
1.828532

>  <inspiration_score>  (2069) 
None

$$$$
MGPDVVPYOMMEBD-UHFFFAOYSA-N-P303-P183-P303-601515
     RDKit          3D

 18 19  0  0  0  0  0  0  0  0999 V2000
   11.7959   12.7486   24.4696 C   0  0  0  0  0  0  0  0  0  0  0  0
   10.5116   12.1338   23.9103 C   0  0  0  0  0  0  0  0  0  0  0  0
    9.3915   12.1994   24.8475 N   0  0  0  0  0  0  0  0  0  0  0  0
    8.4774   11.0869   24.6005 C   0  0  0  0  0  0  0  0  0  0  0  0
    7.4134   11.0205   25.6727 C   0  0  0  0  0  0  0  0  0  0  0  0
    6.6817   12.3291   25.8682 C   0  0  0  0  0  0  0  0  0  0  0  0
    7.6252   13.5051   25.9886 C   0  0  0  0  0  0  0  0  0  0  0  0
    8.7188   13.5189   24.9051 C   0  0  2  0  0  0  0  0  0  0  0  0
    8.1047   14.0981   23.5995 C   0  0  0  0  0  0  0  0  0  0  0  0
    9.0718   14.5147   22.6201 N   0  0  0  0  0  0  0  0  0  0  0  0
   10.5016   15.0706   22.7959 C   0  0  0  0  0  0  0  0  0  0  0  0
   11.0898   15.3497   23.7623 O   0  0  0  0  0  0  0  0  0  0  0  0
   11.1302   15.1196   21.4771 C   0  0  0  0  0  0  0  0  0  0  0  0
   12.3631   14.3646   21.3453 C   0  0  0  0  0  0  0  0  0  0  0  0
   10.5442   15.6877   20.4434 C   0  0  0  0  0  0  0  0  0  0  0  0
   10.7276   15.3443   18.9677 C   0  0  0  0  0  0  0  0  0  0  0  0
    9.2419   15.6351   19.0005 C   0  0  0  0  0  0  0  0  0  0  0  0
    9.3817   16.6071   20.1739 C   0  0  0  0  0  0  0  0  0  0  0  0
  1  2  1  0
  2  3  1  0
  3  4  1  0
  4  5  1  0
  5  6  1  0
  6  7  1  0
  7  8  1  0
  8  9  1  6
  9 10  1  0
 10 11  1  0
 11 12  2  0
 11 13  1  0
 13 14  1  0
 13 15  2  3
 15 16  1  0
 16 17  1  0
 17 18  1  0
  8  3  1  0
 18 15  1  0
M  END
>  <energy_score>  (2070) 
-1.593451

>  <inchikey>  (2070) 
MGPDVVPYOMMEBD-UHFFFAOYSA-N

>  <smiles>  (2070) 
CCN1CCCCC1CNC(=O)C(C)=C1CCC1

>  <ref_pdb>  (2070) 
A1778a

>  <alias>  (2070) 
MGPDVVPYOMMEBD-UHFFFAOYSA-N-P303-P183-P303-601515

>  <HIPPO Pose ID>  (2070) 
527560

>  <name>  (2070) 
MGPDVVPYOMMEBD-UHFFFAOYSA-N-P303-P183-P303-601515

>  <HIPPO Compound ID>  (2070) 
293252

>  <ref_mols>  (2070) 
A4320a,A3436a

>  <distance_score>  (2070) 
1.936807

>  <inspiration_score>  (2070) 
None

$$$$
BRXJJHOFUMHIEB-UHFFFAOYSA-N-P303-P183-P303-601516
     RDKit          3D

 18 19  0  0  0  0  0  0  0  0999 V2000
    5.5560   12.1842   26.7961 C   0  0  0  0  0  0  0  0  0  0  0  0
    6.9963   11.9882   26.3318 C   0  0  1  0  0  0  0  0  0  0  0  0
    7.2472   10.6315   25.6836 C   0  0  0  0  0  0  0  0  0  0  0  0
    8.4171   10.4900   24.6955 C   0  0  0  0  0  0  0  0  0  0  0  0
    8.7203   11.7228   23.9552 N   0  0  0  0  0  0  0  0  0  0  0  0
    9.9412   11.5291   23.1826 C   0  0  0  0  0  0  0  0  0  0  0  0
    8.8614   12.7821   24.9624 C   0  0  1  0  0  0  0  0  0  0  0  0
    9.6769   14.0309   24.7273 C   0  0  0  0  0  0  0  0  0  0  0  0
    9.6283   14.5131   23.4045 N   0  0  0  0  0  0  0  0  0  0  0  0
   10.7017   15.1730   22.5533 C   0  0  0  0  0  0  0  0  0  0  0  0
   11.8230   15.3601   22.7714 O   0  0  0  0  0  0  0  0  0  0  0  0
   10.0713   15.4773   21.2714 C   0  0  0  0  0  0  0  0  0  0  0  0
   10.6515   15.1200   20.1333 C   0  0  0  0  0  0  0  0  0  0  0  0
   12.1131   14.3348   19.9416 Cl  0  0  0  0  0  0  0  0  0  0  0  0
   10.0299   15.7549   18.9674 C   0  0  0  0  0  0  0  0  0  0  0  0
    9.2565   16.8788   19.6413 C   0  0  0  0  0  0  0  0  0  0  0  0
    8.9045   16.3641   21.0249 C   0  0  0  0  0  0  0  0  0  0  0  0
    7.4579   13.1266   25.4443 C   0  0  0  0  0  0  0  0  0  0  0  0
  2  1  1  6
  2  3  1  0
  3  4  1  0
  4  5  1  0
  5  6  1  0
  5  7  1  0
  7  8  1  6
  8  9  1  0
  9 10  1  0
 10 11  2  0
 10 12  1  0
 12 13  2  0
 13 14  1  0
 13 15  1  0
 15 16  1  0
 16 17  1  0
  7 18  1  0
 18  2  1  0
 17 12  1  0
M  END
>  <energy_score>  (2071) 
-7.713296

>  <inchikey>  (2071) 
BRXJJHOFUMHIEB-UHFFFAOYSA-N

>  <smiles>  (2071) 
CC1CCN(C)C(CNC(=O)C2=C(Cl)CCC2)C1

>  <ref_pdb>  (2071) 
A3436a

>  <alias>  (2071) 
BRXJJHOFUMHIEB-UHFFFAOYSA-N-P303-P183-P303-601516

>  <HIPPO Pose ID>  (2071) 
527598

>  <name>  (2071) 
BRXJJHOFUMHIEB-UHFFFAOYSA-N-P303-P183-P303-601516

>  <HIPPO Compound ID>  (2071) 
293277

>  <ref_mols>  (2071) 
A4320a,A3436a

>  <distance_score>  (2071) 
1.894415

>  <inspiration_score>  (2071) 
None

$$$$
YWIWCCMNRZHOHK-UHFFFAOYSA-N-P183-P183-P303-601516
     RDKit          3D

 18 19  0  0  0  0  0  0  0  0999 V2000
    9.5826    9.4498   23.0290 C   0  0  0  0  0  0  0  0  0  0  0  0
    9.4298   10.9308   23.3914 C   0  0  0  0  0  0  0  0  0  0  0  0
    8.2022   11.2656   24.1371 N   0  0  0  0  0  0  0  0  0  0  0  0
    8.0072   10.3776   25.2610 C   0  0  0  0  0  0  0  0  0  0  0  0
    6.7331   10.6062   26.0356 C   0  0  0  0  0  0  0  0  0  0  0  0
    6.5968   12.0336   26.5024 C   0  0  0  0  0  0  0  0  0  0  0  0
    6.8975   13.0469   25.4220 C   0  0  0  0  0  0  0  0  0  0  0  0
    8.0710   12.7003   24.4918 C   0  0  1  0  0  0  0  0  0  0  0  0
    9.3414   13.4374   24.9890 C   0  0  0  0  0  0  0  0  0  0  0  0
    9.9759   13.9872   23.8434 N   0  0  0  0  0  0  0  0  0  0  0  0
   11.4245   13.8927   23.3695 C   0  0  0  0  0  0  0  0  0  0  0  0
   12.3536   13.4147   23.8772 O   0  0  0  0  0  0  0  0  0  0  0  0
   11.3470   14.4854   22.0241 C   0  0  0  0  0  0  0  0  0  0  0  0
   10.3943   14.2616   21.1051 C   0  0  0  0  0  0  0  0  0  0  0  0
   10.9149   15.2823   20.1269 C   0  0  0  0  0  0  0  0  0  0  0  0
    9.8131   16.2976   19.8259 C   0  0  0  0  0  0  0  0  0  0  0  0
   11.4831   14.6993   18.8381 C   0  0  0  0  0  0  0  0  0  0  0  0
   12.0071   15.5548   21.2483 C   0  0  0  0  0  0  0  0  0  0  0  0
  1  2  1  0
  2  3  1  0
  3  4  1  0
  4  5  1  0
  5  6  1  0
  6  7  1  0
  7  8  1  0
  8  9  1  1
  9 10  1  0
 10 11  1  0
 11 12  2  0
 11 13  1  0
 13 14  2  0
 14 15  1  0
 15 16  1  0
 15 17  1  0
 15 18  1  0
  8  3  1  0
 18 13  1  0
M  END
>  <energy_score>  (2072) 
-15.251553

>  <inchikey>  (2072) 
YWIWCCMNRZHOHK-UHFFFAOYSA-N

>  <smiles>  (2072) 
CCN1CCCCC1CNC(=O)C1=CC(C)(C)C1

>  <ref_pdb>  (2072) 
A3436a

>  <alias>  (2072) 
YWIWCCMNRZHOHK-UHFFFAOYSA-N-P183-P183-P303-601516

>  <HIPPO Pose ID>  (2072) 
527607

>  <name>  (2072) 
YWIWCCMNRZHOHK-UHFFFAOYSA-N-P183-P183-P303-601516

>  <HIPPO Compound ID>  (2072) 
293284

>  <ref_mols>  (2072) 
A4320a,A3436a

>  <distance_score>  (2072) 
1.951177

>  <inspiration_score>  (2072) 
None

$$$$
WWJHQCHORMQQGD-UHFFFAOYSA-N-P183-P183-P303-601516
     RDKit          3D

 18 19  0  0  0  0  0  0  0  0999 V2000
    9.2386   15.7663   19.0941 C   0  0  0  0  0  0  0  0  0  0  0  0
   10.6897   15.6981   19.3969 C   0  0  1  0  0  0  0  0  0  0  0  0
   10.8632   15.8870   20.8890 C   0  0  0  0  0  0  0  0  0  0  0  0
   11.2298   14.6099   21.0629 C   0  0  0  0  0  0  0  0  0  0  0  0
   11.5525   13.9666   22.3489 C   0  0  0  0  0  0  0  0  0  0  0  0
   12.5316   13.3790   22.5460 O   0  0  0  0  0  0  0  0  0  0  0  0
   10.3690   14.2578   23.2716 N   0  0  0  0  0  0  0  0  0  0  0  0
   10.0978   13.8123   24.5919 C   0  0  0  0  0  0  0  0  0  0  0  0
    8.9982   12.7445   24.7933 C   0  0  2  0  0  0  0  0  0  0  0  0
    8.7551   11.6521   23.8198 N   0  0  0  0  0  0  0  0  0  0  0  0
    9.9244   11.3110   23.0383 C   0  0  0  0  0  0  0  0  0  0  0  0
    8.3488   10.4468   24.5417 C   0  0  0  0  0  0  0  0  0  0  0  0
    7.2084   10.6763   25.5195 C   0  0  0  0  0  0  0  0  0  0  0  0
    6.8517   12.1163   25.9125 C   0  0  0  0  0  0  0  0  0  0  0  0
    7.6167   13.2897   25.2343 C   0  0  0  0  0  0  0  0  0  0  0  0
    6.8652   13.8980   24.0323 C   0  0  0  0  0  0  0  0  0  0  0  0
    7.6737   14.4431   26.2725 C   0  0  0  0  0  0  0  0  0  0  0  0
   11.4720   14.4043   19.5889 C   0  0  0  0  0  0  0  0  0  0  0  0
  2  1  1  1
  2  3  1  0
  3  4  2  0
  4  5  1  0
  5  6  2  0
  5  7  1  0
  7  8  1  0
  9  8  1  6
  9 10  1  0
 10 11  1  0
 10 12  1  0
 12 13  1  0
 13 14  1  0
 14 15  1  0
 15 16  1  0
 15 17  1  0
  4 18  1  0
 18  2  1  0
 15  9  1  0
M  END
>  <energy_score>  (2073) 
-7.93809

>  <inchikey>  (2073) 
WWJHQCHORMQQGD-UHFFFAOYSA-N

>  <smiles>  (2073) 
CC1C=C(C(=O)NCC2N(C)CCCC2(C)C)C1

>  <ref_pdb>  (2073) 
A3436a

>  <alias>  (2073) 
WWJHQCHORMQQGD-UHFFFAOYSA-N-P183-P183-P303-601516

>  <HIPPO Pose ID>  (2073) 
527661

>  <name>  (2073) 
WWJHQCHORMQQGD-UHFFFAOYSA-N-P183-P183-P303-601516

>  <HIPPO Compound ID>  (2073) 
293339

>  <ref_mols>  (2073) 
A4320a,A3436a

>  <distance_score>  (2073) 
1.848301

>  <inspiration_score>  (2073) 
None

$$$$
PQVZWKNCMRZUIS-UHFFFAOYSA-N-P183-P183-P303-601516
     RDKit          3D

 18 19  0  0  0  0  0  0  0  0999 V2000
    6.0842   15.2938   21.9309 C   0  0  0  0  0  0  0  0  0  0  0  0
    6.6473   14.5094   23.0810 C   0  0  0  0  0  0  0  0  0  0  0  0
    7.7839   13.5567   22.6404 C   0  0  0  0  0  0  0  0  0  0  0  0
    7.9528   12.4173   23.5670 N   0  0  0  0  0  0  0  0  0  0  0  0
    8.8863   11.2824   23.3737 C   0  0  0  0  0  0  0  0  0  0  0  0
    8.5681   10.1093   24.2929 C   0  0  0  0  0  0  0  0  0  0  0  0
    7.5762   10.3965   25.4139 C   0  0  0  0  0  0  0  0  0  0  0  0
    7.3389   11.8457   25.8047 C   0  0  0  0  0  0  0  0  0  0  0  0
    8.0434   12.8877   24.9528 C   0  0  1  0  0  0  0  0  0  0  0  0
    9.4736   13.2743   25.3342 C   0  0  0  0  0  0  0  0  0  0  0  0
   10.2340   13.6902   24.2080 N   0  0  0  0  0  0  0  0  0  0  0  0
   11.2398   14.7741   24.0666 C   0  0  0  0  0  0  0  0  0  0  0  0
   11.6915   15.4778   24.8521 O   0  0  0  0  0  0  0  0  0  0  0  0
   11.4682   14.8075   22.5795 C   0  0  0  0  0  0  0  0  0  0  0  0
   11.7575   15.8229   21.7566 C   0  0  0  0  0  0  0  0  0  0  0  0
   11.3959   15.0674   20.4914 C   0  0  2  0  0  0  0  0  0  0  0  0
   10.1121   15.5232   19.7946 C   0  0  0  0  0  0  0  0  0  0  0  0
   11.3078   13.8559   21.4293 C   0  0  0  0  0  0  0  0  0  0  0  0
  1  2  1  0
  2  3  1  0
  3  4  1  0
  4  5  1  0
  5  6  1  0
  6  7  1  0
  7  8  1  0
  8  9  1  0
  9 10  1  1
 10 11  1  0
 11 12  1  0
 12 13  2  0
 12 14  1  0
 14 15  2  0
 15 16  1  0
 16 17  1  1
 16 18  1  0
  9  4  1  0
 18 14  1  0
M  END
>  <energy_score>  (2074) 
-0.021969

>  <inchikey>  (2074) 
PQVZWKNCMRZUIS-UHFFFAOYSA-N

>  <smiles>  (2074) 
CCCN1CCCCC1CNC(=O)C1=CC(C)C1

>  <ref_pdb>  (2074) 
A3436a

>  <alias>  (2074) 
PQVZWKNCMRZUIS-UHFFFAOYSA-N-P183-P183-P303-601516

>  <HIPPO Pose ID>  (2074) 
527669

>  <name>  (2074) 
PQVZWKNCMRZUIS-UHFFFAOYSA-N-P183-P183-P303-601516

>  <HIPPO Compound ID>  (2074) 
293343

>  <ref_mols>  (2074) 
A4320a,A3436a

>  <distance_score>  (2074) 
1.968392

>  <inspiration_score>  (2074) 
None

$$$$
CRHWWOKWNWURGP-UHFFFAOYSA-N-P183-P183-P303-601516
     RDKit          3D

 18 19  0  0  0  0  0  0  0  0999 V2000
    9.4959   16.2330   19.8088 C   0  0  0  0  0  0  0  0  0  0  0  0
   10.8599   15.6198   20.0136 C   0  0  1  0  0  0  0  0  0  0  0  0
   11.5193   15.8401   21.3732 C   0  0  0  0  0  0  0  0  0  0  0  0
   11.4355   14.5519   21.7077 C   0  0  0  0  0  0  0  0  0  0  0  0
   11.5968   13.9306   23.0337 C   0  0  0  0  0  0  0  0  0  0  0  0
   12.5055   13.3055   23.3985 O   0  0  0  0  0  0  0  0  0  0  0  0
   10.2618   14.2331   23.7180 N   0  0  0  0  0  0  0  0  0  0  0  0
    9.7203   13.7550   24.9557 C   0  0  0  0  0  0  0  0  0  0  0  0
    8.3624   13.0653   24.7022 C   0  0  2  0  0  0  0  0  0  0  0  0
    7.2058   13.9585   25.1725 C   0  0  0  0  0  0  0  0  0  0  0  0
    6.9622   13.8531   26.6602 C   0  0  0  0  0  0  0  0  0  0  0  0
    6.6789   12.4122   27.0451 C   0  0  0  0  0  0  0  0  0  0  0  0
    7.1411   11.3800   26.0037 C   0  0  0  0  0  0  0  0  0  0  0  0
    8.3838   11.6766   25.2565 N   0  0  0  0  0  0  0  0  0  0  0  0
    8.5506   10.7296   24.1190 C   0  0  0  0  0  0  0  0  0  0  0  0
    9.7464   10.9545   23.2123 C   0  0  0  0  0  0  0  0  0  0  0  0
    8.5140    9.2415   24.3694 C   0  0  0  0  0  0  0  0  0  0  0  0
   10.9247   14.1625   20.3658 C   0  0  0  0  0  0  0  0  0  0  0  0
  2  1  1  1
  2  3  1  0
  3  4  2  0
  4  5  1  0
  5  6  2  0
  5  7  1  0
  7  8  1  0
  9  8  1  1
  9 10  1  0
 10 11  1  0
 11 12  1  0
 12 13  1  0
 13 14  1  0
 14 15  1  0
 15 16  1  0
 15 17  1  0
  4 18  1  0
 18  2  1  0
 14  9  1  0
M  END
>  <energy_score>  (2075) 
-6.237601

>  <inchikey>  (2075) 
CRHWWOKWNWURGP-UHFFFAOYSA-N

>  <smiles>  (2075) 
CC1C=C(C(=O)NCC2CCCCN2C(C)C)C1

>  <ref_pdb>  (2075) 
A3436a

>  <alias>  (2075) 
CRHWWOKWNWURGP-UHFFFAOYSA-N-P183-P183-P303-601516

>  <HIPPO Pose ID>  (2075) 
527675

>  <name>  (2075) 
CRHWWOKWNWURGP-UHFFFAOYSA-N-P183-P183-P303-601516

>  <HIPPO Compound ID>  (2075) 
293347

>  <ref_mols>  (2075) 
A4320a,A3436a

>  <distance_score>  (2075) 
1.913551

>  <inspiration_score>  (2075) 
None

$$$$
JSFQZWAUQWSKHT-UHFFFAOYSA-N-P115-P8-P115-601518
     RDKit          3D

 24 26  0  0  0  0  0  0  0  0999 V2000
    0.6248   14.3769   21.7652 C   0  0  0  0  0  0  0  0  0  0  0  0
    0.5709   14.2363   20.3096 C   0  0  0  0  0  0  0  0  0  0  0  0
   -0.5111   14.7415   19.6213 N   0  0  0  0  0  0  0  0  0  0  0  0
   -0.3256   14.3023   18.4090 C   0  0  0  0  0  0  0  0  0  0  0  0
   -1.2953   14.2930   16.9636 S   0  0  0  0  0  0  0  0  0  0  0  0
   -0.1084   13.2116   16.2342 C   0  0  0  0  0  0  0  0  0  0  0  0
    0.9247   12.9264   17.0501 C   0  0  0  0  0  0  0  0  0  0  0  0
    0.8018   13.5405   18.2765 N   0  0  0  0  0  0  0  0  0  0  0  0
    1.4593   13.5431   19.4950 C   0  0  0  0  0  0  0  0  0  0  0  0
    2.6570   12.7302   19.8716 C   0  0  0  0  0  0  0  0  0  0  0  0
    3.7849   13.4512   20.4610 N   0  0  0  0  0  0  0  0  0  0  0  0
    4.0486   13.8948   21.9494 C   0  0  0  0  0  0  0  0  0  0  0  0
    3.3635   13.8132   22.8987 O   0  0  0  0  0  0  0  0  0  0  0  0
    5.5264   14.4490   22.0344 C   0  0  0  0  0  0  0  0  0  0  0  0
    6.4821   14.1788   23.2696 C   0  0  1  0  0  0  0  0  0  0  0  0
    5.8532   14.3792   24.6600 C   0  0  0  0  0  0  0  0  0  0  0  0
    6.1596   13.2844   25.6793 C   0  0  0  0  0  0  0  0  0  0  0  0
    7.6017   12.8544   25.5953 C   0  0  0  0  0  0  0  0  0  0  0  0
    8.0798   12.4898   24.1879 C   0  0  1  0  0  0  0  0  0  0  0  0
    8.3810   10.9603   24.1287 C   0  0  0  0  0  0  0  0  0  0  0  0
    8.8746   10.6032   22.9276 F   0  0  0  0  0  0  0  0  0  0  0  0
    7.3136   10.1917   24.4351 F   0  0  0  0  0  0  0  0  0  0  0  0
    9.3313   10.6149   25.0120 F   0  0  0  0  0  0  0  0  0  0  0  0
    7.2194   12.9399   23.1040 O   0  0  0  0  0  0  0  0  0  0  0  0
  1  2  1  0
  2  3  1  0
  3  4  2  0
  4  5  1  0
  5  6  1  0
  6  7  2  0
  7  8  1  0
  8  9  1  0
  9 10  1  0
 10 11  1  0
 11 12  1  0
 12 13  2  0
 12 14  1  0
 15 14  1  6
 15 16  1  0
 16 17  1  0
 17 18  1  0
 18 19  1  0
 19 20  1  1
 20 21  1  0
 20 22  1  0
 20 23  1  0
 19 24  1  0
  9  2  2  0
 24 15  1  0
  8  4  1  0
M  END
>  <energy_score>  (2076) 
-4.477968

>  <inchikey>  (2076) 
JSFQZWAUQWSKHT-UHFFFAOYSA-N

>  <smiles>  (2076) 
Cc1nc2sccn2c1CNC(=O)CC1CCCC(C(F)(F)F)O1

>  <ref_pdb>  (2076) 
A0309a

>  <alias>  (2076) 
JSFQZWAUQWSKHT-UHFFFAOYSA-N-P115-P8-P115-601518

>  <HIPPO Pose ID>  (2076) 
533056

>  <name>  (2076) 
JSFQZWAUQWSKHT-UHFFFAOYSA-N-P115-P8-P115-601518

>  <HIPPO Compound ID>  (2076) 
307659

>  <ref_mols>  (2076) 
A0473a,A1209a

>  <distance_score>  (2076) 
1.917967

>  <inspiration_score>  (2076) 
None

$$$$
XTFWGFBMMJSIAC-UHFFFAOYSA-N-P8-P8-P115-601518
     RDKit          3D

 24 26  0  0  0  0  0  0  0  0999 V2000
    3.4861   15.2861   23.8033 O   0  0  0  0  0  0  0  0  0  0  0  0
    3.8304   14.6835   22.8624 C   0  0  0  0  0  0  0  0  0  0  0  0
    5.3295   14.3936   22.6184 C   0  0  0  0  0  0  0  0  0  0  0  0
    6.1963   14.0739   23.8855 C   0  0  1  0  0  0  0  0  0  0  0  0
    5.4310   13.9402   25.2162 C   0  0  0  0  0  0  0  0  0  0  0  0
    6.3049   13.4580   26.3570 C   0  0  0  0  0  0  0  0  0  0  0  0
    7.0410   12.2145   25.9558 C   0  0  0  0  0  0  0  0  0  0  0  0
    7.8442   12.4400   24.6719 C   0  0  1  0  0  0  0  0  0  0  0  0
    8.6068   11.1261   24.4189 C   0  0  0  0  0  0  0  0  0  0  0  0
    9.7120   11.2052   25.1758 F   0  0  0  0  0  0  0  0  0  0  0  0
    7.9398   10.0354   24.8543 F   0  0  0  0  0  0  0  0  0  0  0  0
    9.0180   10.8952   23.1676 F   0  0  0  0  0  0  0  0  0  0  0  0
    7.0456   12.9250   23.5839 O   0  0  0  0  0  0  0  0  0  0  0  0
    2.9988   14.0791   21.6923 N   0  0  0  0  0  0  0  0  0  0  0  0
    1.5726   14.0130   21.4952 C   0  0  0  0  0  0  0  0  0  0  0  0
    1.0718   13.8276   20.0979 C   0  0  0  0  0  0  0  0  0  0  0  0
    0.7105   12.6459   19.4801 C   0  0  0  0  0  0  0  0  0  0  0  0
    0.0107   13.0115   18.3635 N   0  0  0  0  0  0  0  0  0  0  0  0
    0.0057   14.3778   18.2819 C   0  0  0  0  0  0  0  0  0  0  0  0
    0.6534   14.8973   19.3149 N   0  0  0  0  0  0  0  0  0  0  0  0
   -0.6804   15.0634   17.1374 C   0  0  0  0  0  0  0  0  0  0  0  0
   -1.7180   14.2167   16.5919 O   0  0  0  0  0  0  0  0  0  0  0  0
   -1.1974   12.9314   16.2373 C   0  0  0  0  0  0  0  0  0  0  0  0
   -0.8072   12.1823   17.5001 C   0  0  0  0  0  0  0  0  0  0  0  0
  1  2  2  0
  2  3  1  0
  4  3  1  6
  4  5  1  0
  5  6  1  0
  6  7  1  0
  7  8  1  0
  8  9  1  6
  9 10  1  0
  9 11  1  0
  9 12  1  0
  8 13  1  0
  2 14  1  0
 14 15  1  0
 15 16  1  0
 16 17  2  0
 17 18  1  0
 18 19  1  0
 19 20  2  0
 19 21  1  0
 21 22  1  0
 22 23  1  0
 23 24  1  0
 13  4  1  0
 20 16  1  0
 24 18  1  0
M  END
>  <energy_score>  (2077) 
-28.698282

>  <inchikey>  (2077) 
XTFWGFBMMJSIAC-UHFFFAOYSA-N

>  <smiles>  (2077) 
O=C(CC1CCCC(C(F)(F)F)O1)NCc1cn2c(n1)COCC2

>  <ref_pdb>  (2077) 
A0309a

>  <alias>  (2077) 
XTFWGFBMMJSIAC-UHFFFAOYSA-N-P8-P8-P115-601518

>  <HIPPO Pose ID>  (2077) 
533063

>  <name>  (2077) 
XTFWGFBMMJSIAC-UHFFFAOYSA-N-P8-P8-P115-601518

>  <HIPPO Compound ID>  (2077) 
307663

>  <ref_mols>  (2077) 
A0473a,A1209a

>  <distance_score>  (2077) 
1.790069

>  <inspiration_score>  (2077) 
None

$$$$
GBZFDPQUJWRCOD-UHFFFAOYSA-N-P8-P8-P115-601518
     RDKit          3D

 24 26  0  0  0  0  0  0  0  0999 V2000
    2.9424   14.4325   23.7376 O   0  0  0  0  0  0  0  0  0  0  0  0
    3.5565   14.2551   22.7570 C   0  0  0  0  0  0  0  0  0  0  0  0
    5.0955   14.5064   22.6960 C   0  0  0  0  0  0  0  0  0  0  0  0
    5.9909   14.1315   23.9330 C   0  0  1  0  0  0  0  0  0  0  0  0
    5.2557   13.7645   25.2402 C   0  0  0  0  0  0  0  0  0  0  0  0
    6.0443   12.8465   26.1637 C   0  0  0  0  0  0  0  0  0  0  0  0
    7.5193   13.0914   25.9777 C   0  0  0  0  0  0  0  0  0  0  0  0
    7.9614   12.7688   24.5425 C   0  0  1  0  0  0  0  0  0  0  0  0
    8.4487   11.2982   24.5015 C   0  0  0  0  0  0  0  0  0  0  0  0
    9.5093   11.2089   25.3263 F   0  0  0  0  0  0  0  0  0  0  0  0
    8.8866   10.8601   23.3104 F   0  0  0  0  0  0  0  0  0  0  0  0
    7.5377   10.4261   24.9826 F   0  0  0  0  0  0  0  0  0  0  0  0
    6.9748   13.1194   23.5478 O   0  0  0  0  0  0  0  0  0  0  0  0
    3.1020   13.7204   21.3631 N   0  0  0  0  0  0  0  0  0  0  0  0
    1.8217   13.2074   20.9261 C   0  0  0  0  0  0  0  0  0  0  0  0
    1.1379   14.0040   19.8498 C   0  0  0  0  0  0  0  0  0  0  0  0
    0.9906   15.3798   19.9357 N   0  0  0  0  0  0  0  0  0  0  0  0
    0.2830   15.7306   18.8781 C   0  0  0  0  0  0  0  0  0  0  0  0
   -0.0774   14.6616   18.1078 N   0  0  0  0  0  0  0  0  0  0  0  0
   -0.8463   14.6180   16.9459 C   0  0  0  0  0  0  0  0  0  0  0  0
   -1.1399   13.4337   16.3894 C   0  0  0  0  0  0  0  0  0  0  0  0
   -0.6333   12.2405   17.0330 C   0  0  0  0  0  0  0  0  0  0  0  0
    0.1574   12.2901   18.1280 C   0  0  0  0  0  0  0  0  0  0  0  0
    0.4538   13.5446   18.7288 C   0  0  0  0  0  0  0  0  0  0  0  0
  1  2  2  0
  2  3  1  0
  4  3  1  6
  4  5  1  0
  5  6  1  0
  6  7  1  0
  7  8  1  0
  8  9  1  1
  9 10  1  0
  9 11  1  0
  9 12  1  0
  8 13  1  0
  2 14  1  0
 14 15  1  0
 15 16  1  0
 16 17  1  0
 17 18  2  0
 18 19  1  0
 19 20  1  0
 20 21  2  0
 21 22  1  0
 22 23  2  0
 23 24  1  0
 13  4  1  0
 24 16  2  0
 24 19  1  0
M  END
>  <energy_score>  (2078) 
-24.855981

>  <inchikey>  (2078) 
GBZFDPQUJWRCOD-UHFFFAOYSA-N

>  <smiles>  (2078) 
O=C(CC1CCCC(C(F)(F)F)O1)NCc1ncn2ccccc12

>  <ref_pdb>  (2078) 
A0309a

>  <alias>  (2078) 
GBZFDPQUJWRCOD-UHFFFAOYSA-N-P8-P8-P115-601518

>  <HIPPO Pose ID>  (2078) 
533075

>  <name>  (2078) 
GBZFDPQUJWRCOD-UHFFFAOYSA-N-P8-P8-P115-601518

>  <HIPPO Compound ID>  (2078) 
307669

>  <ref_mols>  (2078) 
A0473a,A1209a

>  <distance_score>  (2078) 
1.953225

>  <inspiration_score>  (2078) 
None

$$$$
GVZMCDYSUKQVHG-UHFFFAOYSA-N-P8-P8-P115-601518
     RDKit          3D

 24 26  0  0  0  0  0  0  0  0999 V2000
    3.5180   15.4414   23.8271 O   0  0  0  0  0  0  0  0  0  0  0  0
    3.8396   14.7698   22.9248 C   0  0  0  0  0  0  0  0  0  0  0  0
    5.3142   14.4341   22.6726 C   0  0  0  0  0  0  0  0  0  0  0  0
    6.1379   14.0858   23.9456 C   0  0  1  0  0  0  0  0  0  0  0  0
    5.3246   13.7091   25.2081 C   0  0  0  0  0  0  0  0  0  0  0  0
    6.0326   12.7239   26.1268 C   0  0  0  0  0  0  0  0  0  0  0  0
    7.5223   12.9421   26.0256 C   0  0  0  0  0  0  0  0  0  0  0  0
    8.0305   12.6795   24.5988 C   0  0  1  0  0  0  0  0  0  0  0  0
    8.5002   11.2144   24.5103 C   0  0  0  0  0  0  0  0  0  0  0  0
    8.9280   10.8048   23.3066 F   0  0  0  0  0  0  0  0  0  0  0  0
    7.5827   10.3410   24.9738 F   0  0  0  0  0  0  0  0  0  0  0  0
    9.5574   11.1021   25.3278 F   0  0  0  0  0  0  0  0  0  0  0  0
    7.0945   13.0578   23.5776 O   0  0  0  0  0  0  0  0  0  0  0  0
    2.9793   14.0753   21.8268 N   0  0  0  0  0  0  0  0  0  0  0  0
    1.5485   13.9896   21.6746 C   0  0  0  0  0  0  0  0  0  0  0  0
    1.0456   13.9550   20.2648 C   0  0  0  0  0  0  0  0  0  0  0  0
    1.2011   12.9830   19.2968 C   0  0  0  0  0  0  0  0  0  0  0  0
    0.3569   13.3362   18.2747 N   0  0  0  0  0  0  0  0  0  0  0  0
   -0.2634   14.5064   18.6211 C   0  0  0  0  0  0  0  0  0  0  0  0
    0.1457   14.9089   19.8096 N   0  0  0  0  0  0  0  0  0  0  0  0
   -1.2596   15.1616   17.7199 C   0  0  0  0  0  0  0  0  0  0  0  0
   -1.8888   14.1609   16.7451 C   0  0  0  0  0  0  0  0  0  0  0  0
   -0.8062   13.3274   16.0683 C   0  0  0  0  0  0  0  0  0  0  0  0
    0.0341   12.5632   17.0914 C   0  0  0  0  0  0  0  0  0  0  0  0
  1  2  2  0
  2  3  1  0
  4  3  1  6
  4  5  1  0
  5  6  1  0
  6  7  1  0
  7  8  1  0
  8  9  1  1
  9 10  1  0
  9 11  1  0
  9 12  1  0
  8 13  1  0
  2 14  1  0
 14 15  1  0
 15 16  1  0
 16 17  2  0
 17 18  1  0
 18 19  1  0
 19 20  2  0
 19 21  1  0
 21 22  1  0
 22 23  1  0
 23 24  1  0
 13  4  1  0
 20 16  1  0
 24 18  1  0
M  END
>  <energy_score>  (2079) 
-15.575112

>  <inchikey>  (2079) 
GVZMCDYSUKQVHG-UHFFFAOYSA-N

>  <smiles>  (2079) 
O=C(CC1CCCC(C(F)(F)F)O1)NCc1cn2c(n1)CCCC2

>  <ref_pdb>  (2079) 
A0309a

>  <alias>  (2079) 
GVZMCDYSUKQVHG-UHFFFAOYSA-N-P8-P8-P115-601518

>  <HIPPO Pose ID>  (2079) 
533081

>  <name>  (2079) 
GVZMCDYSUKQVHG-UHFFFAOYSA-N-P8-P8-P115-601518

>  <HIPPO Compound ID>  (2079) 
307672

>  <ref_mols>  (2079) 
A0473a,A1209a

>  <distance_score>  (2079) 
1.800552

>  <inspiration_score>  (2079) 
None

$$$$
KGJDIPIZKFAJKH-UHFFFAOYSA-N-P8-P8-P115-601518
     RDKit          3D

 25 27  0  0  0  0  0  0  0  0999 V2000
    3.2108   15.1558   23.9314 O   0  0  0  0  0  0  0  0  0  0  0  0
    3.6442   14.6194   22.9854 C   0  0  0  0  0  0  0  0  0  0  0  0
    5.1752   14.4750   22.7938 C   0  0  0  0  0  0  0  0  0  0  0  0
    6.0435   14.1799   24.0726 C   0  0  1  0  0  0  0  0  0  0  0  0
    5.2718   13.9080   25.3733 C   0  0  0  0  0  0  0  0  0  0  0  0
    6.1663   13.4134   26.4990 C   0  0  0  0  0  0  0  0  0  0  0  0
    6.9834   12.2322   26.0505 C   0  0  0  0  0  0  0  0  0  0  0  0
    7.7837   12.5687   24.7957 C   0  0  1  0  0  0  0  0  0  0  0  0
    8.5359   11.2952   24.3617 C   0  0  0  0  0  0  0  0  0  0  0  0
    7.8784   10.1654   24.6907 F   0  0  0  0  0  0  0  0  0  0  0  0
    8.8041   11.2940   23.0493 F   0  0  0  0  0  0  0  0  0  0  0  0
    9.7165   11.2062   24.9813 F   0  0  0  0  0  0  0  0  0  0  0  0
    6.9685   13.1117   23.7380 O   0  0  0  0  0  0  0  0  0  0  0  0
    2.9130   13.9748   21.7643 N   0  0  0  0  0  0  0  0  0  0  0  0
    1.5039   13.7783   21.5124 C   0  0  0  0  0  0  0  0  0  0  0  0
    1.0024   13.9244   20.1025 C   0  0  0  0  0  0  0  0  0  0  0  0
    0.6032   15.0549   19.4096 C   0  0  0  0  0  0  0  0  0  0  0  0
   -0.0580   14.6151   18.2700 N   0  0  0  0  0  0  0  0  0  0  0  0
   -0.7168   15.3314   17.2667 C   0  0  0  0  0  0  0  0  0  0  0  0
   -1.3017   14.6791   16.2485 C   0  0  0  0  0  0  0  0  0  0  0  0
   -1.2655   13.2286   16.2421 C   0  0  0  0  0  0  0  0  0  0  0  0
   -0.6542   12.5517   17.2293 C   0  0  0  0  0  0  0  0  0  0  0  0
   -0.7031   11.2086   17.2427 F   0  0  0  0  0  0  0  0  0  0  0  0
   -0.0042   13.2293   18.3004 C   0  0  0  0  0  0  0  0  0  0  0  0
    0.6289   12.8052   19.3795 N   0  0  0  0  0  0  0  0  0  0  0  0
  1  2  2  0
  2  3  1  0
  4  3  1  6
  4  5  1  0
  5  6  1  0
  6  7  1  0
  7  8  1  0
  8  9  1  6
  9 10  1  0
  9 11  1  0
  9 12  1  0
  8 13  1  0
  2 14  1  0
 14 15  1  0
 15 16  1  0
 16 17  2  0
 17 18  1  0
 18 19  1  0
 19 20  2  0
 20 21  1  0
 21 22  2  0
 22 23  1  0
 22 24  1  0
 24 25  2  0
 13  4  1  0
 25 16  1  0
 24 18  1  0
M  END
>  <energy_score>  (2080) 
-9.805881

>  <inchikey>  (2080) 
KGJDIPIZKFAJKH-UHFFFAOYSA-N

>  <smiles>  (2080) 
O=C(CC1CCCC(C(F)(F)F)O1)NCc1cn2cccc(F)c2n1

>  <ref_pdb>  (2080) 
A0309a

>  <alias>  (2080) 
KGJDIPIZKFAJKH-UHFFFAOYSA-N-P8-P8-P115-601518

>  <HIPPO Pose ID>  (2080) 
533135

>  <name>  (2080) 
KGJDIPIZKFAJKH-UHFFFAOYSA-N-P8-P8-P115-601518

>  <HIPPO Compound ID>  (2080) 
307699

>  <ref_mols>  (2080) 
A0473a,A1209a

>  <distance_score>  (2080) 
1.917145

>  <inspiration_score>  (2080) 
None

$$$$
STKJMUZDDIVMNT-UHFFFAOYSA-N-P8-P8-P115-601518
     RDKit          3D

 25 27  0  0  0  0  0  0  0  0999 V2000
    3.5632   14.4163   23.8746 O   0  0  0  0  0  0  0  0  0  0  0  0
    3.8647   14.2049   22.7660 C   0  0  0  0  0  0  0  0  0  0  0  0
    5.3363   14.1946   22.2800 C   0  0  0  0  0  0  0  0  0  0  0  0
    6.4945   14.0307   23.3138 C   0  0  1  0  0  0  0  0  0  0  0  0
    6.2385   14.5266   24.7477 C   0  0  0  0  0  0  0  0  0  0  0  0
    5.9049   13.3964   25.7088 C   0  0  0  0  0  0  0  0  0  0  0  0
    6.9996   12.3494   25.7043 C   0  0  0  0  0  0  0  0  0  0  0  0
    7.8728   12.3728   24.4343 C   0  0  1  0  0  0  0  0  0  0  0  0
    8.6406   11.0400   24.3856 C   0  0  0  0  0  0  0  0  0  0  0  0
    7.9443    9.9942   24.8758 F   0  0  0  0  0  0  0  0  0  0  0  0
    9.6802   11.2090   25.2205 F   0  0  0  0  0  0  0  0  0  0  0  0
    9.1510   10.6827   23.1992 F   0  0  0  0  0  0  0  0  0  0  0  0
    7.1351   12.7285   23.2537 O   0  0  0  0  0  0  0  0  0  0  0  0
    2.9771   13.9725   21.5055 N   0  0  0  0  0  0  0  0  0  0  0  0
    1.5484   13.8601   21.3778 C   0  0  0  0  0  0  0  0  0  0  0  0
    1.0111   13.9838   19.9939 C   0  0  0  0  0  0  0  0  0  0  0  0
    0.1426   15.0092   19.6471 N   0  0  0  0  0  0  0  0  0  0  0  0
   -0.3152   14.7121   18.4366 C   0  0  0  0  0  0  0  0  0  0  0  0
   -1.2702   15.3534   17.5888 C   0  0  0  0  0  0  0  0  0  0  0  0
   -1.6390   14.7844   16.4250 C   0  0  0  0  0  0  0  0  0  0  0  0
   -1.0796   13.5164   15.9917 C   0  0  0  0  0  0  0  0  0  0  0  0
   -0.1576   12.9258   16.7679 C   0  0  0  0  0  0  0  0  0  0  0  0
    0.2285   13.5171   17.9702 N   0  0  0  0  0  0  0  0  0  0  0  0
    1.1102   13.1093   18.9398 C   0  0  0  0  0  0  0  0  0  0  0  0
    2.0246   11.6831   18.7735 Cl  0  0  0  0  0  0  0  0  0  0  0  0
  1  2  2  0
  2  3  1  0
  4  3  1  6
  4  5  1  0
  5  6  1  0
  6  7  1  0
  7  8  1  0
  8  9  1  6
  9 10  1  0
  9 11  1  0
  9 12  1  0
  8 13  1  0
  2 14  1  0
 14 15  1  0
 15 16  1  0
 16 17  1  0
 17 18  2  0
 18 19  1  0
 19 20  2  0
 20 21  1  0
 21 22  2  0
 22 23  1  0
 23 24  1  0
 24 25  1  0
 13  4  1  0
 24 16  2  0
 23 18  1  0
M  END
>  <energy_score>  (2081) 
-10.454346

>  <inchikey>  (2081) 
STKJMUZDDIVMNT-UHFFFAOYSA-N

>  <smiles>  (2081) 
O=C(CC1CCCC(C(F)(F)F)O1)NCc1nc2ccccn2c1Cl

>  <ref_pdb>  (2081) 
A0309a

>  <alias>  (2081) 
STKJMUZDDIVMNT-UHFFFAOYSA-N-P8-P8-P115-601518

>  <HIPPO Pose ID>  (2081) 
533137

>  <name>  (2081) 
STKJMUZDDIVMNT-UHFFFAOYSA-N-P8-P8-P115-601518

>  <HIPPO Compound ID>  (2081) 
307700

>  <ref_mols>  (2081) 
A0473a,A1209a

>  <distance_score>  (2081) 
1.824468

>  <inspiration_score>  (2081) 
None

$$$$
QNLMTOWVFMUOMI-UHFFFAOYSA-N-P115-P8-P115-601518
     RDKit          3D

 25 27  0  0  0  0  0  0  0  0999 V2000
    6.1759   13.8318   21.2559 O   0  0  0  0  0  0  0  0  0  0  0  0
    5.5562   14.3029   22.1276 C   0  0  0  0  0  0  0  0  0  0  0  0
    6.2589   14.9415   23.3314 C   0  0  0  0  0  0  0  0  0  0  0  0
    6.4965   13.9316   24.4485 C   0  0  2  0  0  0  0  0  0  0  0  0
    7.0175   14.5273   25.7497 C   0  0  0  0  0  0  0  0  0  0  0  0
    6.9171   13.4456   26.8376 C   0  0  0  0  0  0  0  0  0  0  0  0
    7.0455   12.0363   26.2711 C   0  0  0  0  0  0  0  0  0  0  0  0
    7.9246   12.0279   25.0157 C   0  0  1  0  0  0  0  0  0  0  0  0
    8.1607   10.5674   24.5893 C   0  0  0  0  0  0  0  0  0  0  0  0
    8.9200    9.9825   25.5342 F   0  0  0  0  0  0  0  0  0  0  0  0
    7.0236    9.8456   24.5734 F   0  0  0  0  0  0  0  0  0  0  0  0
    8.8200   10.4213   23.4270 F   0  0  0  0  0  0  0  0  0  0  0  0
    7.4031   12.9009   23.9920 O   0  0  0  0  0  0  0  0  0  0  0  0
    4.0166   14.4706   22.2950 N   0  0  0  0  0  0  0  0  0  0  0  0
    2.9945   14.1938   21.4296 N   0  0  0  0  0  0  0  0  0  0  0  0
    1.4693   14.4127   21.5732 C   0  0  0  0  0  0  0  0  0  0  0  0
    0.8412   14.7917   22.4824 O   0  0  0  0  0  0  0  0  0  0  0  0
    0.7967   14.1669   20.2769 C   0  0  0  0  0  0  0  0  0  0  0  0
   -0.4875   14.5952   19.9342 C   0  0  0  0  0  0  0  0  0  0  0  0
   -0.6653   14.2079   18.6355 N   0  0  0  0  0  0  0  0  0  0  0  0
   -1.6560   14.2680   17.6754 C   0  0  0  0  0  0  0  0  0  0  0  0
   -1.2886   13.6336   16.5489 C   0  0  0  0  0  0  0  0  0  0  0  0
    0.3285   12.9388   16.6677 S   0  0  0  0  0  0  0  0  0  0  0  0
    0.4726   13.5616   18.2708 C   0  0  0  0  0  0  0  0  0  0  0  0
    1.3984   13.5385   19.1942 N   0  0  0  0  0  0  0  0  0  0  0  0
  1  2  2  0
  2  3  1  0
  4  3  1  6
  4  5  1  0
  5  6  1  0
  6  7  1  0
  7  8  1  0
  8  9  1  6
  9 10  1  0
  9 11  1  0
  9 12  1  0
  8 13  1  0
  2 14  1  0
 14 15  1  0
 15 16  1  0
 16 17  2  0
 16 18  1  0
 18 19  2  0
 19 20  1  0
 20 21  1  0
 21 22  2  0
 22 23  1  0
 23 24  1  0
 24 25  2  0
 13  4  1  0
 25 18  1  0
 24 20  1  0
M  END
>  <energy_score>  (2082) 
-40.938785

>  <inchikey>  (2082) 
QNLMTOWVFMUOMI-UHFFFAOYSA-N

>  <smiles>  (2082) 
O=C(CC1CCCC(C(F)(F)F)O1)NNC(=O)c1cn2ccsc2n1

>  <ref_pdb>  (2082) 
A0309a

>  <alias>  (2082) 
QNLMTOWVFMUOMI-UHFFFAOYSA-N-P115-P8-P115-601518

>  <HIPPO Pose ID>  (2082) 
533152

>  <name>  (2082) 
QNLMTOWVFMUOMI-UHFFFAOYSA-N-P115-P8-P115-601518

>  <HIPPO Compound ID>  (2082) 
307707

>  <ref_mols>  (2082) 
A0473a,A1209a

>  <distance_score>  (2082) 
1.794986

>  <inspiration_score>  (2082) 
None

$$$$
TXTBYOJHJPRPGG-UHFFFAOYSA-N-P8-P8-P115-601518
     RDKit          3D

 26 28  0  0  0  0  0  0  0  0999 V2000
    1.0094   13.9778   21.9602 C   0  0  0  0  0  0  0  0  0  0  0  0
    1.8072   14.5826   20.8355 C   0  0  1  0  0  0  0  0  0  0  0  0
    3.2043   14.3181   21.0553 N   0  0  0  0  0  0  0  0  0  0  0  0
    4.1512   14.7685   22.2145 C   0  0  0  0  0  0  0  0  0  0  0  0
    3.9538   15.4839   23.1192 O   0  0  0  0  0  0  0  0  0  0  0  0
    5.5071   14.0975   22.0601 C   0  0  0  0  0  0  0  0  0  0  0  0
    6.3056   13.9478   23.3943 C   0  0  1  0  0  0  0  0  0  0  0  0
    5.4963   13.8704   24.7209 C   0  0  0  0  0  0  0  0  0  0  0  0
    6.1084   12.9621   25.7800 C   0  0  0  0  0  0  0  0  0  0  0  0
    7.6085   13.0540   25.6920 C   0  0  0  0  0  0  0  0  0  0  0  0
    8.1289   12.5976   24.3188 C   0  0  1  0  0  0  0  0  0  0  0  0
    8.5665   11.1258   24.4358 C   0  0  0  0  0  0  0  0  0  0  0  0
    9.0414   10.5608   23.3152 F   0  0  0  0  0  0  0  0  0  0  0  0
    7.6072   10.3351   24.9604 F   0  0  0  0  0  0  0  0  0  0  0  0
    9.5754   11.1092   25.3197 F   0  0  0  0  0  0  0  0  0  0  0  0
    7.2326   12.8505   23.2260 O   0  0  0  0  0  0  0  0  0  0  0  0
    1.1695   14.3296   19.5058 C   0  0  0  0  0  0  0  0  0  0  0  0
    0.4601   15.2645   18.7704 C   0  0  0  0  0  0  0  0  0  0  0  0
   -0.2252   14.5821   17.7828 N   0  0  0  0  0  0  0  0  0  0  0  0
   -1.1505   15.0065   16.8065 C   0  0  0  0  0  0  0  0  0  0  0  0
   -1.7111   16.7888   16.7305 Br  0  0  0  0  0  0  0  0  0  0  0  0
   -1.6789   14.0871   15.9747 C   0  0  0  0  0  0  0  0  0  0  0  0
   -1.3239   12.6900   16.1353 C   0  0  0  0  0  0  0  0  0  0  0  0
   -0.4850   12.2968   17.1094 C   0  0  0  0  0  0  0  0  0  0  0  0
    0.1250   13.2480   17.9682 C   0  0  0  0  0  0  0  0  0  0  0  0
    0.9564   13.0810   18.9817 N   0  0  0  0  0  0  0  0  0  0  0  0
  2  1  1  1
  2  3  1  0
  3  4  1  0
  4  5  2  0
  4  6  1  0
  7  6  1  6
  7  8  1  0
  8  9  1  0
  9 10  1  0
 10 11  1  0
 11 12  1  1
 12 13  1  0
 12 14  1  0
 12 15  1  0
 11 16  1  0
  2 17  1  0
 17 18  2  0
 18 19  1  0
 19 20  1  0
 20 21  1  0
 20 22  2  0
 22 23  1  0
 23 24  2  0
 24 25  1  0
 25 26  2  0
 16  7  1  0
 26 17  1  0
 25 19  1  0
M  END
>  <energy_score>  (2083) 
-5.105847

>  <inchikey>  (2083) 
TXTBYOJHJPRPGG-UHFFFAOYSA-N

>  <smiles>  (2083) 
CC(NC(=O)CC1CCCC(C(F)(F)F)O1)c1cn2c(Br)cccc2n1

>  <ref_pdb>  (2083) 
A0309a

>  <alias>  (2083) 
TXTBYOJHJPRPGG-UHFFFAOYSA-N-P8-P8-P115-601518

>  <HIPPO Pose ID>  (2083) 
533183

>  <name>  (2083) 
TXTBYOJHJPRPGG-UHFFFAOYSA-N-P8-P8-P115-601518

>  <HIPPO Compound ID>  (2083) 
307723

>  <ref_mols>  (2083) 
A0473a,A1209a

>  <distance_score>  (2083) 
1.852162

>  <inspiration_score>  (2083) 
None

$$$$
PFNFTCOHCFTGID-UHFFFAOYSA-N-P371-P28-P371-601518
     RDKit          3D

 24 25  0  0  0  0  0  0  0  0999 V2000
    9.8590   15.4048   18.6260 C   0  0  0  0  0  0  0  0  0  0  0  0
   11.0695   16.0914   19.1623 C   0  0  0  0  0  0  0  0  0  0  0  0
   11.6673   15.2171   20.1223 O   0  0  0  0  0  0  0  0  0  0  0  0
   11.7853   15.7791   21.3499 C   0  0  0  0  0  0  0  0  0  0  0  0
   12.4914   16.7529   21.5755 O   0  0  0  0  0  0  0  0  0  0  0  0
   10.9793   15.0602   22.4115 C   0  0  0  0  0  0  0  0  0  0  0  0
   10.2742   13.8024   21.8992 C   0  0  0  0  0  0  0  0  0  0  0  0
   11.9397   14.6055   23.5225 C   0  0  0  0  0  0  0  0  0  0  0  0
    9.9357   15.9630   22.9139 N   0  0  0  0  0  0  0  0  0  0  0  0
    9.4184   15.8331   24.1862 C   0  0  0  0  0  0  0  0  0  0  0  0
    8.0755   15.6657   23.9567 C   0  0  0  0  0  0  0  0  0  0  0  0
    7.3076   14.8731   24.7430 N   0  0  0  0  0  0  0  0  0  0  0  0
    5.8749   14.3218   24.5229 C   0  0  0  0  0  0  0  0  0  0  0  0
    5.1087   14.5284   23.6683 O   0  0  0  0  0  0  0  0  0  0  0  0
    5.6830   13.3022   25.6717 C   0  0  2  0  0  0  0  0  0  0  0  0
    5.1690   14.0088   26.9145 C   0  0  0  0  0  0  0  0  0  0  0  0
    6.9558   12.6883   26.0063 O   0  0  0  0  0  0  0  0  0  0  0  0
    7.4556   11.8027   25.0014 C   0  0  0  0  0  0  0  0  0  0  0  0
    7.1456   10.3521   25.3182 C   0  0  0  0  0  0  0  0  0  0  0  0
    8.2187    9.5472   24.5867 C   0  0  0  0  0  0  0  0  0  0  0  0
    9.3610   10.5126   24.3070 C   0  0  0  0  0  0  0  0  0  0  0  0
    8.9793   11.7899   25.0286 C   0  0  0  0  0  0  0  0  0  0  0  0
    7.8381   16.2081   22.6857 C   0  0  0  0  0  0  0  0  0  0  0  0
    8.9963   16.4202   22.0459 N   0  0  0  0  0  0  0  0  0  0  0  0
  1  2  1  0
  2  3  1  0
  3  4  1  0
  4  5  2  0
  4  6  1  0
  6  7  1  0
  6  8  1  0
  6  9  1  0
  9 10  1  0
 10 11  2  0
 11 12  1  0
 12 13  1  0
 13 14  2  0
 13 15  1  0
 15 16  1  1
 15 17  1  0
 17 18  1  0
 18 19  1  0
 19 20  1  0
 20 21  1  0
 21 22  1  0
 11 23  1  0
 23 24  2  0
 24  9  1  0
 22 18  1  0
M  END
>  <energy_score>  (2084) 
-14.894367

>  <inchikey>  (2084) 
PFNFTCOHCFTGID-UHFFFAOYSA-N

>  <smiles>  (2084) 
CCOC(=O)C(C)(C)n1cc(NC(=O)C(C)OC2CCCC2)cn1

>  <ref_pdb>  (2084) 
A0309a

>  <alias>  (2084) 
PFNFTCOHCFTGID-UHFFFAOYSA-N-P371-P28-P371-601518

>  <HIPPO Pose ID>  (2084) 
533434

>  <name>  (2084) 
PFNFTCOHCFTGID-UHFFFAOYSA-N-P371-P28-P371-601518

>  <HIPPO Compound ID>  (2084) 
315113

>  <ref_mols>  (2084) 
A4456a,A0556a

>  <distance_score>  (2084) 
1.963677

>  <inspiration_score>  (2084) 
None

$$$$
JCKHIOKTSKUVCS-UHFFFAOYSA-N-P174-P124-P174-601519
     RDKit          3D

 24 25  0  0  0  0  0  0  0  0999 V2000
   12.0408   13.5452   21.8801 C   0  0  0  0  0  0  0  0  0  0  0  0
   12.0548   14.6070   20.8369 C   0  0  0  0  0  0  0  0  0  0  0  0
   11.4046   15.8673   21.3944 C   0  0  2  0  0  0  0  0  0  0  0  0
    9.8664   15.9639   21.1386 C   0  0  0  0  0  0  0  0  0  0  0  0
    9.0073   15.0786   21.9472 N   0  0  0  0  0  0  0  0  0  0  0  0
    8.0258   15.4112   23.1261 C   0  0  0  0  0  0  0  0  0  0  0  0
    7.8163   16.4255   23.6760 O   0  0  0  0  0  0  0  0  0  0  0  0
    7.2031   14.1293   23.5017 C   0  0  0  0  0  0  0  0  0  0  0  0
    6.9992   13.9119   25.0531 C   0  0  1  0  0  0  0  0  0  0  0  0
    5.7307   13.1525   25.4538 C   0  0  0  0  0  0  0  0  0  0  0  0
    8.1512   13.2861   25.7565 N   0  0  0  0  0  0  0  0  0  0  0  0
    9.3522   14.1637   25.7980 C   0  0  0  0  0  0  0  0  0  0  0  0
   10.3668   13.6410   24.7815 C   0  0  0  0  0  0  0  0  0  0  0  0
    9.7800   12.3224   24.4268 C   0  0  0  0  0  0  0  0  0  0  0  0
   10.2086   11.3801   23.5233 C   0  0  0  0  0  0  0  0  0  0  0  0
    9.5483   10.1635   23.3808 C   0  0  0  0  0  0  0  0  0  0  0  0
    8.4402    9.8975   24.1676 C   0  0  0  0  0  0  0  0  0  0  0  0
    7.9591   10.8801   25.0318 C   0  0  0  0  0  0  0  0  0  0  0  0
    8.6016   12.1126   25.1055 C   0  0  0  0  0  0  0  0  0  0  0  0
   12.2220   17.0447   20.8325 C   0  0  0  0  0  0  0  0  0  0  0  0
   12.2080   17.1790   19.3257 C   0  0  0  0  0  0  0  0  0  0  0  0
   13.1186   18.1074   18.9502 F   0  0  0  0  0  0  0  0  0  0  0  0
   12.4969   16.0401   18.6799 F   0  0  0  0  0  0  0  0  0  0  0  0
   10.9879   17.6291   18.9528 F   0  0  0  0  0  0  0  0  0  0  0  0
  1  2  1  0
  3  2  1  6
  3  4  1  0
  4  5  1  0
  5  6  1  0
  6  7  2  0
  6  8  1  0
  8  9  1  0
  9 10  1  6
  9 11  1  0
 11 12  1  0
 12 13  1  0
 13 14  1  0
 14 15  2  0
 15 16  1  0
 16 17  2  0
 17 18  1  0
 18 19  2  0
  3 20  1  0
 20 21  1  0
 21 22  1  0
 21 23  1  0
 21 24  1  0
 19 11  1  0
 19 14  1  0
M  END
>  <energy_score>  (2085) 
-5.394991

>  <inchikey>  (2085) 
JCKHIOKTSKUVCS-UHFFFAOYSA-N

>  <smiles>  (2085) 
CCC(CNC(=O)CC(C)N1CCc2ccccc21)CC(F)(F)F

>  <ref_pdb>  (2085) 
A0239a

>  <alias>  (2085) 
JCKHIOKTSKUVCS-UHFFFAOYSA-N-P174-P124-P174-601519

>  <HIPPO Pose ID>  (2085) 
533584

>  <name>  (2085) 
JCKHIOKTSKUVCS-UHFFFAOYSA-N-P174-P124-P174-601519

>  <HIPPO Compound ID>  (2085) 
305669

>  <ref_mols>  (2085) 
A1778a,A3371a

>  <distance_score>  (2085) 
1.891941

>  <inspiration_score>  (2085) 
None

$$$$
ZDGSYGLFOLLJNA-UHFFFAOYSA-N-P174-P124-P174-601519
     RDKit          3D

 27 28  0  0  0  0  0  0  0  0999 V2000
    5.4341   13.9716   25.7622 C   0  0  0  0  0  0  0  0  0  0  0  0
    6.5784   13.6525   24.7928 C   0  0  1  0  0  0  0  0  0  0  0  0
    6.8929   14.8475   23.8409 C   0  0  0  0  0  0  0  0  0  0  0  0
    7.4961   14.5138   22.4452 C   0  0  0  0  0  0  0  0  0  0  0  0
    7.1282   13.5949   21.8134 O   0  0  0  0  0  0  0  0  0  0  0  0
    8.5222   15.6528   22.0852 N   0  0  0  0  0  0  0  0  0  0  0  0
    9.2261   15.9358   20.8333 C   0  0  0  0  0  0  0  0  0  0  0  0
   10.7525   15.6267   20.6727 C   0  0  0  0  0  0  0  0  0  0  0  0
   11.4519   16.6900   19.7916 C   0  0  0  0  0  0  0  0  0  0  0  0
   12.8285   16.2959   19.2757 C   0  0  0  0  0  0  0  0  0  0  0  0
   12.7806   15.1774   18.5302 F   0  0  0  0  0  0  0  0  0  0  0  0
   13.3609   17.2928   18.5346 F   0  0  0  0  0  0  0  0  0  0  0  0
   13.6851   16.0868   20.2966 F   0  0  0  0  0  0  0  0  0  0  0  0
   11.5113   15.4552   21.9806 C   0  0  0  0  0  0  0  0  0  0  0  0
   11.8800   14.0105   22.1047 C   0  0  0  0  0  0  0  0  0  0  0  0
   12.4949   13.7599   23.2792 F   0  0  0  0  0  0  0  0  0  0  0  0
   10.7461   13.2909   22.0495 F   0  0  0  0  0  0  0  0  0  0  0  0
   12.6813   13.6140   21.1062 F   0  0  0  0  0  0  0  0  0  0  0  0
    7.6935   13.2090   25.6533 N   0  0  0  0  0  0  0  0  0  0  0  0
    8.7997   14.1464   25.9416 C   0  0  0  0  0  0  0  0  0  0  0  0
    9.9822   13.7719   25.0448 C   0  0  0  0  0  0  0  0  0  0  0  0
    9.6040   12.3994   24.6218 C   0  0  0  0  0  0  0  0  0  0  0  0
   10.2838   11.5047   23.8319 C   0  0  0  0  0  0  0  0  0  0  0  0
    9.7010   10.2788   23.4983 C   0  0  0  0  0  0  0  0  0  0  0  0
    8.4461    9.9446   23.9910 C   0  0  0  0  0  0  0  0  0  0  0  0
    7.7489   10.8639   24.7672 C   0  0  0  0  0  0  0  0  0  0  0  0
    8.3269   12.1000   25.0393 C   0  0  0  0  0  0  0  0  0  0  0  0
  2  1  1  1
  2  3  1  0
  3  4  1  0
  4  5  2  0
  4  6  1  0
  6  7  1  0
  7  8  1  0
  8  9  1  0
  9 10  1  0
 10 11  1  0
 10 12  1  0
 10 13  1  0
  8 14  1  0
 14 15  1  0
 15 16  1  0
 15 17  1  0
 15 18  1  0
  2 19  1  0
 19 20  1  0
 20 21  1  0
 21 22  1  0
 22 23  2  0
 23 24  1  0
 24 25  2  0
 25 26  1  0
 26 27  2  0
 27 19  1  0
 27 22  1  0
M  END
>  <energy_score>  (2086) 
-3.906178

>  <inchikey>  (2086) 
ZDGSYGLFOLLJNA-UHFFFAOYSA-N

>  <smiles>  (2086) 
CC(CC(=O)NCC(CC(F)(F)F)CC(F)(F)F)N1CCc2ccccc21

>  <ref_pdb>  (2086) 
A0239a

>  <alias>  (2086) 
ZDGSYGLFOLLJNA-UHFFFAOYSA-N-P174-P124-P174-601519

>  <HIPPO Pose ID>  (2086) 
533608

>  <name>  (2086) 
ZDGSYGLFOLLJNA-UHFFFAOYSA-N-P174-P124-P174-601519

>  <HIPPO Compound ID>  (2086) 
305681

>  <ref_mols>  (2086) 
A1778a,A3371a

>  <distance_score>  (2086) 
1.883217

>  <inspiration_score>  (2086) 
None

$$$$
MKLHGMPLQSOESN-UHFFFAOYSA-N-P174-P124-P174-601519
     RDKit          3D

 28 31  0  0  0  0  0  0  0  0999 V2000
    5.7329   12.3654   25.7906 C   0  0  0  0  0  0  0  0  0  0  0  0
    6.7792   13.3714   25.3018 C   0  0  2  0  0  0  0  0  0  0  0  0
    6.7034   13.6819   23.7713 C   0  0  0  0  0  0  0  0  0  0  0  0
    7.2302   15.0809   23.4510 C   0  0  0  0  0  0  0  0  0  0  0  0
    6.7062   16.0070   23.9372 O   0  0  0  0  0  0  0  0  0  0  0  0
    8.4794   15.0003   22.5202 N   0  0  0  0  0  0  0  0  0  0  0  0
    9.3889   16.0339   22.0799 C   0  0  0  0  0  0  0  0  0  0  0  0
   10.3660   15.8170   20.9034 C   0  0  2  0  0  0  0  0  0  0  0  0
   11.4910   14.7797   21.0734 C   0  0  2  0  0  0  0  0  0  0  0  0
   12.5996   15.3024   21.9931 C   0  0  0  0  0  0  0  0  0  0  0  0
   13.3289   16.5129   21.3701 C   0  0  0  0  0  0  0  0  0  0  0  0
   12.5529   16.9809   20.1444 C   0  0  1  0  0  0  0  0  0  0  0  0
   12.6838   15.8635   19.1248 C   0  0  0  0  0  0  0  0  0  0  0  0
   12.1269   14.5590   19.6902 C   0  0  0  0  0  0  0  0  0  0  0  0
   11.0835   17.1699   20.5821 C   0  0  1  0  0  0  0  0  0  0  0  0
   10.2607   17.9538   19.6112 C   0  0  0  0  0  0  0  0  0  0  0  0
   10.8889   19.1068   19.2835 F   0  0  0  0  0  0  0  0  0  0  0  0
    9.9579   17.2828   18.4978 F   0  0  0  0  0  0  0  0  0  0  0  0
    9.0871   18.3168   20.1790 F   0  0  0  0  0  0  0  0  0  0  0  0
    8.1340   12.9672   25.7724 N   0  0  0  0  0  0  0  0  0  0  0  0
    9.1302   14.0818   25.7927 C   0  0  0  0  0  0  0  0  0  0  0  0
   10.2975   13.7303   24.8645 C   0  0  0  0  0  0  0  0  0  0  0  0
    9.8445   12.4426   24.2898 C   0  0  0  0  0  0  0  0  0  0  0  0
   10.3573   11.7378   23.2303 C   0  0  0  0  0  0  0  0  0  0  0  0
    9.7940   10.4977   22.9103 C   0  0  0  0  0  0  0  0  0  0  0  0
    8.7838    9.9459   23.6864 C   0  0  0  0  0  0  0  0  0  0  0  0
    8.2416   10.6951   24.7190 C   0  0  0  0  0  0  0  0  0  0  0  0
    8.7237   11.9769   24.9555 C   0  0  0  0  0  0  0  0  0  0  0  0
  2  1  1  6
  2  3  1  0
  3  4  1  0
  4  5  2  0
  4  6  1  0
  6  7  1  0
  8  7  1  1
  8  9  1  0
  9 10  1  1
 10 11  1  0
 12 11  1  1
 12 13  1  0
 13 14  1  0
 12 15  1  0
 15 16  1  6
 16 17  1  0
 16 18  1  0
 16 19  1  0
  2 20  1  0
 20 21  1  0
 21 22  1  0
 22 23  1  0
 23 24  2  0
 24 25  1  0
 25 26  2  0
 26 27  1  0
 27 28  2  0
 15  8  1  0
 28 20  1  0
 14  9  1  0
 28 23  1  0
M  END
>  <energy_score>  (2087) 
-5.539752

>  <inchikey>  (2087) 
MKLHGMPLQSOESN-UHFFFAOYSA-N

>  <smiles>  (2087) 
CC(CC(=O)NCC1C2CCC(CC2)C1C(F)(F)F)N1CCc2ccccc21

>  <ref_pdb>  (2087) 
A0239a

>  <alias>  (2087) 
MKLHGMPLQSOESN-UHFFFAOYSA-N-P174-P124-P174-601519

>  <HIPPO Pose ID>  (2087) 
533610

>  <name>  (2087) 
MKLHGMPLQSOESN-UHFFFAOYSA-N-P174-P124-P174-601519

>  <HIPPO Compound ID>  (2087) 
305682

>  <ref_mols>  (2087) 
A1778a,A3371a

>  <distance_score>  (2087) 
1.964653

>  <inspiration_score>  (2087) 
None

$$$$
HBRAFSBJTJIQJI-UHFFFAOYSA-N-P124-P124-P174-601519
     RDKit          3D

 24 27  0  0  0  0  0  0  0  0999 V2000
   16.6585   12.6114   25.9637 C   0  0  0  0  0  0  0  0  0  0  0  0
   15.5541   13.3457   26.6970 C   0  0  1  0  0  0  0  0  0  0  0  0
   14.2580   12.9782   26.1163 N   0  0  0  0  0  0  0  0  0  0  0  0
   13.7826   12.9659   24.6364 C   0  0  0  0  0  0  0  0  0  0  0  0
   14.3239   13.3182   23.6680 O   0  0  0  0  0  0  0  0  0  0  0  0
   12.3903   12.2827   24.6112 C   0  0  0  0  0  0  0  0  0  0  0  0
   11.3905   13.0092   25.4963 C   0  0  0  0  0  0  0  0  0  0  0  0
   10.2388   13.7000   24.7672 C   0  0  0  0  0  0  0  0  0  0  0  0
    9.1352   12.6999   24.7561 C   0  0  0  0  0  0  0  0  0  0  0  0
    7.9586   13.1014   25.4045 C   0  0  0  0  0  0  0  0  0  0  0  0
    7.0030   12.1798   25.7593 C   0  0  0  0  0  0  0  0  0  0  0  0
    7.2375   10.8496   25.4717 C   0  0  0  0  0  0  0  0  0  0  0  0
    8.3770   10.4483   24.7574 C   0  0  0  0  0  0  0  0  0  0  0  0
    9.3403   11.3685   24.3538 C   0  0  0  0  0  0  0  0  0  0  0  0
   10.5523   10.8364   23.6044 C   0  0  0  0  0  0  0  0  0  0  0  0
   11.7212   11.7999   23.3015 C   0  0  0  0  0  0  0  0  0  0  0  0
   15.5743   12.9331   28.1849 C   0  0  0  0  0  0  0  0  0  0  0  0
   14.8634   14.0711   28.9056 C   0  0  0  0  0  0  0  0  0  0  0  0
   15.0788   15.2417   28.1131 O   0  0  0  0  0  0  0  0  0  0  0  0
   15.6810   14.8401   26.8536 C   0  0  2  0  0  0  0  0  0  0  0  0
   15.6152   15.8453   25.7293 C   0  0  0  0  0  0  0  0  0  0  0  0
   16.8926   15.6171   26.4420 C   0  0  0  0  0  0  0  0  0  0  0  0
   17.4087   16.5987   27.2581 F   0  0  0  0  0  0  0  0  0  0  0  0
   17.9522   15.0500   25.7794 F   0  0  0  0  0  0  0  0  0  0  0  0
  2  1  1  6
  2  3  1  0
  3  4  1  0
  4  5  2  0
  4  6  1  0
  6  7  1  0
  7  8  1  0
  8  9  1  0
  9 10  2  0
 10 11  1  0
 11 12  2  0
 12 13  1  0
 13 14  2  0
 14 15  1  0
 15 16  1  0
  2 17  1  0
 17 18  1  0
 18 19  1  0
 19 20  1  0
 20 21  1  6
 21 22  1  0
 22 23  1  0
 22 24  1  0
 20  2  1  0
 16  6  1  0
 22 20  1  0
 14  9  1  0
M  END
>  <energy_score>  (2088) 
-12.919072

>  <inchikey>  (2088) 
HBRAFSBJTJIQJI-UHFFFAOYSA-N

>  <smiles>  (2088) 
CC1(NC(=O)C2CCc3ccccc3CC2)CCOC12CC2(F)F

>  <ref_pdb>  (2088) 
A0239a

>  <alias>  (2088) 
HBRAFSBJTJIQJI-UHFFFAOYSA-N-P124-P124-P174-601519

>  <HIPPO Pose ID>  (2088) 
533979

>  <name>  (2088) 
HBRAFSBJTJIQJI-UHFFFAOYSA-N-P124-P124-P174-601519

>  <HIPPO Compound ID>  (2088) 
308785

>  <ref_mols>  (2088) 
A1778a,A3371a

>  <distance_score>  (2088) 
1.995008

>  <inspiration_score>  (2088) 
None

$$$$
SUKIVTSFFLWGSW-UHFFFAOYSA-N-P248-P135-P248-601519
     RDKit          3D

 21 22  0  0  0  0  0  0  0  0999 V2000
    9.0478   16.3248   21.0498 C   0  0  0  0  0  0  0  0  0  0  0  0
   10.2224   15.6556   20.5868 N   0  0  0  0  0  0  0  0  0  0  0  0
   10.4233   15.4669   19.2236 C   0  0  0  0  0  0  0  0  0  0  0  0
    9.6007   15.6460   18.3453 O   0  0  0  0  0  0  0  0  0  0  0  0
   11.8389   15.0882   18.9793 C   0  0  2  0  0  0  0  0  0  0  0  0
   12.0115   13.8562   18.4543 F   0  0  0  0  0  0  0  0  0  0  0  0
   12.4281   15.0710   20.3605 C   0  0  0  0  0  0  0  0  0  0  0  0
   11.4814   15.8094   21.2587 C   0  0  2  0  0  0  0  0  0  0  0  0
   11.6500   15.3054   22.6716 C   0  0  0  0  0  0  0  0  0  0  0  0
   11.7440   16.0266   23.6578 O   0  0  0  0  0  0  0  0  0  0  0  0
   11.7486   13.9646   22.7760 O   0  0  0  0  0  0  0  0  0  0  0  0
   10.5516   13.2445   22.4626 C   0  0  0  0  0  0  0  0  0  0  0  0
    9.6780   13.1704   23.6984 C   0  0  0  0  0  0  0  0  0  0  0  0
    8.7881   14.4170   23.8353 C   0  0  0  0  0  0  0  0  0  0  0  0
   10.5380   13.1871   24.9569 C   0  0  0  0  0  0  0  0  0  0  0  0
    8.8583   11.9606   23.6699 N   0  0  0  0  0  0  0  0  0  0  0  0
    7.6160   11.9110   24.2047 C   0  0  0  0  0  0  0  0  0  0  0  0
    7.5600   10.6902   24.7915 C   0  0  0  0  0  0  0  0  0  0  0  0
    6.2344   10.4347   26.2611 I   0  0  0  0  0  0  0  0  0  0  0  0
    8.5688    9.9344   24.1887 C   0  0  0  0  0  0  0  0  0  0  0  0
    9.3862   10.7312   23.4814 N   0  0  0  0  0  0  0  0  0  0  0  0
  1  2  1  0
  2  3  1  0
  3  4  2  0
  3  5  1  0
  5  6  1  1
  5  7  1  0
  7  8  1  0
  8  9  1  1
  9 10  2  0
  9 11  1  0
 11 12  1  0
 12 13  1  0
 13 14  1  0
 13 15  1  0
 13 16  1  0
 16 17  1  0
 17 18  2  0
 18 19  1  0
 18 20  1  0
 20 21  2  0
  8  2  1  0
 21 16  1  0
M  END
>  <energy_score>  (2089) 
-6.302357

>  <inchikey>  (2089) 
SUKIVTSFFLWGSW-UHFFFAOYSA-N

>  <smiles>  (2089) 
CN1C(=O)C(F)CC1C(=O)OCC(C)(C)n1cc(I)cn1

>  <ref_pdb>  (2089) 
A0239a

>  <alias>  (2089) 
SUKIVTSFFLWGSW-UHFFFAOYSA-N-P248-P135-P248-601519

>  <HIPPO Pose ID>  (2089) 
534234

>  <name>  (2089) 
SUKIVTSFFLWGSW-UHFFFAOYSA-N-P248-P135-P248-601519

>  <HIPPO Compound ID>  (2089) 
291927

>  <ref_mols>  (2089) 
A3956a,A2629a

>  <distance_score>  (2089) 
1.633969

>  <inspiration_score>  (2089) 
None

$$$$
WZUAYRVKHOPKOE-UHFFFAOYSA-N-P135-P135-P248-601519
     RDKit          3D

 21 23  0  0  0  0  0  0  0  0999 V2000
   11.9266   15.8327   17.6271 C   0  0  0  0  0  0  0  0  0  0  0  0
   12.6085   14.9564   18.6482 C   0  0  0  0  0  0  0  0  0  0  0  0
   11.8214   13.7909   19.1028 C   0  0  0  0  0  0  0  0  0  0  0  0
   13.2222   15.6676   19.7126 N   0  0  0  0  0  0  0  0  0  0  0  0
   14.1412   16.6220   19.2830 C   0  0  0  0  0  0  0  0  0  0  0  0
   14.6206   16.7038   18.1616 O   0  0  0  0  0  0  0  0  0  0  0  0
   14.2884   17.6581   20.3359 C   0  0  0  0  0  0  0  0  0  0  0  0
   13.5339   17.0462   21.4832 C   0  0  0  0  0  0  0  0  0  0  0  0
   12.5111   16.1258   20.8723 C   0  0  2  0  0  0  0  0  0  0  0  0
   11.8172   15.2613   21.9736 C   0  0  0  0  0  0  0  0  0  0  0  0
   11.1121   15.7902   22.8262 O   0  0  0  0  0  0  0  0  0  0  0  0
   12.0086   13.9170   21.9692 O   0  0  0  0  0  0  0  0  0  0  0  0
   11.6829   13.1809   23.1922 C   0  0  0  0  0  0  0  0  0  0  0  0
   10.2202   12.7874   23.4806 C   0  0  0  0  0  0  0  0  0  0  0  0
    9.9762   11.3334   23.7811 N   0  0  0  0  0  0  0  0  0  0  0  0
   10.1988   10.3382   22.8837 C   0  0  0  0  0  0  0  0  0  0  0  0
    9.4727    9.2551   23.2991 C   0  0  0  0  0  0  0  0  0  0  0  0
    8.7878    9.7278   24.4287 C   0  0  0  0  0  0  0  0  0  0  0  0
    9.1397   10.9642   24.7746 N   0  0  0  0  0  0  0  0  0  0  0  0
    9.4501   13.8206   24.3131 C   0  0  0  0  0  0  0  0  0  0  0  0
    9.0132   13.5295   22.9248 C   0  0  0  0  0  0  0  0  0  0  0  0
  1  2  1  0
  2  3  1  0
  2  4  1  0
  4  5  1  0
  5  6  2  0
  5  7  1  0
  7  8  1  0
  8  9  1  0
  9 10  1  1
 10 11  2  0
 10 12  1  0
 12 13  1  0
 13 14  1  0
 14 15  1  0
 15 16  1  0
 16 17  2  0
 17 18  1  0
 18 19  2  0
 14 20  1  0
 20 21  1  0
  9  4  1  0
 21 14  1  0
 19 15  1  0
M  END
>  <energy_score>  (2090) 
-10.135284

>  <inchikey>  (2090) 
WZUAYRVKHOPKOE-UHFFFAOYSA-N

>  <smiles>  (2090) 
CC(C)N1C(=O)CCC1C(=O)OCC1(n2cccn2)CC1

>  <ref_pdb>  (2090) 
A0239a

>  <alias>  (2090) 
WZUAYRVKHOPKOE-UHFFFAOYSA-N-P135-P135-P248-601519

>  <HIPPO Pose ID>  (2090) 
534243

>  <name>  (2090) 
WZUAYRVKHOPKOE-UHFFFAOYSA-N-P135-P135-P248-601519

>  <HIPPO Compound ID>  (2090) 
291932

>  <ref_mols>  (2090) 
A3956a,A2629a

>  <distance_score>  (2090) 
1.751753

>  <inspiration_score>  (2090) 
None

$$$$
IWRSJYUNVXHDNX-UHFFFAOYSA-N-P248-P135-P248-601519
     RDKit          3D

 22 25  0  0  0  0  0  0  0  0999 V2000
   10.7817   12.4623   24.3178 O   0  0  0  0  0  0  0  0  0  0  0  0
    9.9088   12.4521   23.4576 C   0  0  0  0  0  0  0  0  0  0  0  0
   10.1122   12.7662   22.1459 O   0  0  0  0  0  0  0  0  0  0  0  0
   11.4026   13.2943   21.7401 C   0  0  0  0  0  0  0  0  0  0  0  0
   11.2479   14.6105   20.9952 C   0  0  0  0  0  0  0  0  0  0  0  0
   10.7836   15.6107   21.9556 N   0  0  0  0  0  0  0  0  0  0  0  0
   11.6354   15.8487   23.0012 C   0  0  0  0  0  0  0  0  0  0  0  0
   10.8880   15.5381   24.0976 C   0  0  0  0  0  0  0  0  0  0  0  0
   11.4355   15.3779   25.8614 Br  0  0  0  0  0  0  0  0  0  0  0  0
    9.5682   15.4370   23.6305 C   0  0  0  0  0  0  0  0  0  0  0  0
    9.4894   15.5560   22.3062 N   0  0  0  0  0  0  0  0  0  0  0  0
   10.9754   14.8753   19.5147 C   0  0  0  0  0  0  0  0  0  0  0  0
   12.3570   14.9507   20.0422 C   0  0  0  0  0  0  0  0  0  0  0  0
    8.4258   12.1028   23.7291 C   0  0  2  0  0  0  0  0  0  0  0  0
    7.7863   12.9788   24.8060 C   0  0  0  0  0  0  0  0  0  0  0  0
    6.8130   12.0995   25.5702 C   0  0  0  0  0  0  0  0  0  0  0  0
    7.2762   10.7114   25.2634 C   0  0  0  0  0  0  0  0  0  0  0  0
    6.9121    9.7240   25.8794 O   0  0  0  0  0  0  0  0  0  0  0  0
    8.1921   10.7617   24.2195 N   0  0  0  0  0  0  0  0  0  0  0  0
    9.1164    9.7153   23.9738 C   0  0  0  0  0  0  0  0  0  0  0  0
    8.7390    8.4547   23.2956 C   0  0  0  0  0  0  0  0  0  0  0  0
    9.6939    9.3648   22.6504 C   0  0  0  0  0  0  0  0  0  0  0  0
  1  2  2  0
  2  3  1  0
  3  4  1  0
  4  5  1  0
  5  6  1  0
  6  7  1  0
  7  8  2  0
  8  9  1  0
  8 10  1  0
 10 11  2  0
  5 12  1  0
 12 13  1  0
 14  2  1  1
 14 15  1  0
 15 16  1  0
 16 17  1  0
 17 18  2  0
 17 19  1  0
 19 20  1  0
 20 21  1  0
 21 22  1  0
 13  5  1  0
 19 14  1  0
 22 20  1  0
 11  6  1  0
M  END
>  <energy_score>  (2091) 
-2.580235

>  <inchikey>  (2091) 
IWRSJYUNVXHDNX-UHFFFAOYSA-N

>  <smiles>  (2091) 
O=C(OCC1(n2cc(Br)cn2)CC1)C1CCC(=O)N1C1CC1

>  <ref_pdb>  (2091) 
A0239a

>  <alias>  (2091) 
IWRSJYUNVXHDNX-UHFFFAOYSA-N-P248-P135-P248-601519

>  <HIPPO Pose ID>  (2091) 
534254

>  <name>  (2091) 
IWRSJYUNVXHDNX-UHFFFAOYSA-N-P248-P135-P248-601519

>  <HIPPO Compound ID>  (2091) 
291937

>  <ref_mols>  (2091) 
A3956a,A2629a

>  <distance_score>  (2091) 
1.788157

>  <inspiration_score>  (2091) 
None

$$$$
NXPYRYGQBYSGQH-UHFFFAOYSA-N-P248-P135-P248-601519
     RDKit          3D

 22 25  0  0  0  0  0  0  0  0999 V2000
    9.7765   13.4596   25.2623 O   0  0  0  0  0  0  0  0  0  0  0  0
    9.3096   13.1274   24.1819 C   0  0  0  0  0  0  0  0  0  0  0  0
    9.9696   13.1990   22.9862 O   0  0  0  0  0  0  0  0  0  0  0  0
   11.1298   14.0532   22.9021 C   0  0  0  0  0  0  0  0  0  0  0  0
   11.1625   14.7879   21.5630 C   0  0  0  0  0  0  0  0  0  0  0  0
    9.9304   15.5418   21.2895 N   0  0  0  0  0  0  0  0  0  0  0  0
    8.6645   15.0427   21.3452 C   0  0  0  0  0  0  0  0  0  0  0  0
    7.8627   16.1418   21.5067 C   0  0  0  0  0  0  0  0  0  0  0  0
    8.7006   17.2157   21.1518 C   0  0  0  0  0  0  0  0  0  0  0  0
    9.9481   16.8260   20.9264 N   0  0  0  0  0  0  0  0  0  0  0  0
   11.6708   14.1743   20.2547 C   0  0  0  0  0  0  0  0  0  0  0  0
   12.4520   15.3584   20.0061 N   0  0  0  0  0  0  0  0  0  0  0  0
   12.3981   15.7029   21.4336 C   0  0  0  0  0  0  0  0  0  0  0  0
    7.8790   12.6096   23.9431 C   0  0  2  0  0  0  0  0  0  0  0  0
    6.8681   13.6215   24.4652 C   0  0  0  0  0  0  0  0  0  0  0  0
    6.3054   13.0156   25.7398 C   0  0  0  0  0  0  0  0  0  0  0  0
    6.6629   11.5606   25.6610 C   0  0  0  0  0  0  0  0  0  0  0  0
    6.3405   10.7303   26.4996 O   0  0  0  0  0  0  0  0  0  0  0  0
    7.5076   11.3567   24.5636 N   0  0  0  0  0  0  0  0  0  0  0  0
    8.4097   10.2622   24.5819 C   0  0  0  0  0  0  0  0  0  0  0  0
    8.3942    9.0306   23.7501 C   0  0  0  0  0  0  0  0  0  0  0  0
    9.4724   10.0272   23.5508 C   0  0  0  0  0  0  0  0  0  0  0  0
  1  2  2  0
  2  3  1  0
  3  4  1  0
  4  5  1  0
  5  6  1  0
  6  7  1  0
  7  8  2  0
  8  9  1  0
  9 10  2  0
  5 11  1  0
 11 12  1  0
 12 13  1  0
 14  2  1  1
 14 15  1  0
 15 16  1  0
 16 17  1  0
 17 18  2  0
 17 19  1  0
 19 20  1  0
 20 21  1  0
 21 22  1  0
 13  5  1  0
 19 14  1  0
 22 20  1  0
 10  6  1  0
M  END
>  <energy_score>  (2092) 
-24.387824

>  <inchikey>  (2092) 
NXPYRYGQBYSGQH-UHFFFAOYSA-N

>  <smiles>  (2092) 
O=C(OCC1(n2cccn2)CNC1)C1CCC(=O)N1C1CC1

>  <ref_pdb>  (2092) 
A0239a

>  <alias>  (2092) 
NXPYRYGQBYSGQH-UHFFFAOYSA-N-P248-P135-P248-601519

>  <HIPPO Pose ID>  (2092) 
534256

>  <name>  (2092) 
NXPYRYGQBYSGQH-UHFFFAOYSA-N-P248-P135-P248-601519

>  <HIPPO Compound ID>  (2092) 
291938

>  <ref_mols>  (2092) 
A3956a,A2629a

>  <distance_score>  (2092) 
1.978244

>  <inspiration_score>  (2092) 
None

$$$$
JOHUJKPJURWJPF-UHFFFAOYSA-N-P248-P135-P248-601519
     RDKit          3D

 22 24  0  0  0  0  0  0  0  0999 V2000
   11.8995   14.2183   20.1791 C   0  0  0  0  0  0  0  0  0  0  0  0
   10.7371   15.0965   20.6727 C   0  0  0  0  0  0  0  0  0  0  0  0
   10.5560   16.0994   19.5231 C   0  0  0  0  0  0  0  0  0  0  0  0
    9.3629   14.3406   20.7848 C   0  0  0  0  0  0  0  0  0  0  0  0
    8.5747   13.9992   21.9616 O   0  0  0  0  0  0  0  0  0  0  0  0
    8.9475   13.0490   22.8671 C   0  0  0  0  0  0  0  0  0  0  0  0
   10.0635   12.5646   22.9431 O   0  0  0  0  0  0  0  0  0  0  0  0
    7.7257   12.6966   23.7524 C   0  0  2  0  0  0  0  0  0  0  0  0
    7.5286   13.6392   24.9255 C   0  0  0  0  0  0  0  0  0  0  0  0
    6.3733   12.9969   25.6794 C   0  0  0  0  0  0  0  0  0  0  0  0
    6.6624   11.5327   25.4926 C   0  0  0  0  0  0  0  0  0  0  0  0
    6.3295   10.6615   26.2836 O   0  0  0  0  0  0  0  0  0  0  0  0
    7.4855   11.3798   24.3468 N   0  0  0  0  0  0  0  0  0  0  0  0
    8.4743   10.3607   24.4407 C   0  0  0  0  0  0  0  0  0  0  0  0
    8.3339    9.0037   23.8321 C   0  0  0  0  0  0  0  0  0  0  0  0
    9.4462    9.8839   23.4143 C   0  0  0  0  0  0  0  0  0  0  0  0
   11.0789   15.6879   21.9502 N   0  0  0  0  0  0  0  0  0  0  0  0
   12.2575   15.4804   22.6227 C   0  0  0  0  0  0  0  0  0  0  0  0
   11.8485   14.9687   23.8210 C   0  0  0  0  0  0  0  0  0  0  0  0
   12.8318   13.8186   25.1306 I   0  0  0  0  0  0  0  0  0  0  0  0
   10.5274   15.3421   23.9397 C   0  0  0  0  0  0  0  0  0  0  0  0
   10.0752   15.8810   22.8122 N   0  0  0  0  0  0  0  0  0  0  0  0
  1  2  1  0
  2  3  1  0
  2  4  1  0
  4  5  1  0
  5  6  1  0
  6  7  2  0
  8  6  1  1
  8  9  1  0
  9 10  1  0
 10 11  1  0
 11 12  2  0
 11 13  1  0
 13 14  1  0
 14 15  1  0
 15 16  1  0
  2 17  1  0
 17 18  1  0
 18 19  2  0
 19 20  1  0
 19 21  1  0
 21 22  2  0
 13  8  1  0
 16 14  1  0
 22 17  1  0
M  END
>  <energy_score>  (2093) 
-1.275621

>  <inchikey>  (2093) 
JOHUJKPJURWJPF-UHFFFAOYSA-N

>  <smiles>  (2093) 
CC(C)(COC(=O)C1CCC(=O)N1C1CC1)n1cc(I)cn1

>  <ref_pdb>  (2093) 
A0239a

>  <alias>  (2093) 
JOHUJKPJURWJPF-UHFFFAOYSA-N-P248-P135-P248-601519

>  <HIPPO Pose ID>  (2093) 
534258

>  <name>  (2093) 
JOHUJKPJURWJPF-UHFFFAOYSA-N-P248-P135-P248-601519

>  <HIPPO Compound ID>  (2093) 
291939

>  <ref_mols>  (2093) 
A3956a,A2629a

>  <distance_score>  (2093) 
1.910432

>  <inspiration_score>  (2093) 
None

$$$$
YWVHLSQJRJVXJR-UHFFFAOYSA-N-P135-P135-P248-601519
     RDKit          3D

 22 23  0  0  0  0  0  0  0  0999 V2000
   12.3129   16.6592   17.0119 C   0  0  0  0  0  0  0  0  0  0  0  0
   12.6873   15.8539   18.2632 C   0  0  0  0  0  0  0  0  0  0  0  0
   11.9438   14.5369   18.3148 C   0  0  0  0  0  0  0  0  0  0  0  0
   12.5200   16.5099   19.5413 N   0  0  0  0  0  0  0  0  0  0  0  0
   12.6898   17.8914   19.7242 C   0  0  0  0  0  0  0  0  0  0  0  0
   12.5704   18.7900   18.9066 O   0  0  0  0  0  0  0  0  0  0  0  0
   13.1192   18.1070   21.1340 C   0  0  0  0  0  0  0  0  0  0  0  0
   13.8899   16.8234   21.3437 C   0  0  0  0  0  0  0  0  0  0  0  0
   13.0245   15.7744   20.7009 C   0  0  1  0  0  0  0  0  0  0  0  0
   12.0758   15.1215   21.7483 C   0  0  0  0  0  0  0  0  0  0  0  0
   11.3846   15.7322   22.5454 O   0  0  0  0  0  0  0  0  0  0  0  0
   12.1321   13.7597   21.7008 O   0  0  0  0  0  0  0  0  0  0  0  0
   11.5044   12.8569   22.6700 C   0  0  0  0  0  0  0  0  0  0  0  0
   10.0667   13.0955   23.2133 C   0  0  0  0  0  0  0  0  0  0  0  0
   10.1709   13.9306   24.5013 C   0  0  0  0  0  0  0  0  0  0  0  0
    9.1439   13.7709   22.1992 C   0  0  0  0  0  0  0  0  0  0  0  0
    9.3464   11.8881   23.6541 N   0  0  0  0  0  0  0  0  0  0  0  0
    8.1343   11.9842   24.2800 C   0  0  0  0  0  0  0  0  0  0  0  0
    7.9879   10.8268   24.9638 C   0  0  0  0  0  0  0  0  0  0  0  0
    6.5515   10.7604   26.3815 I   0  0  0  0  0  0  0  0  0  0  0  0
    8.9538    9.9685   24.4121 C   0  0  0  0  0  0  0  0  0  0  0  0
    9.8256   10.6375   23.6377 N   0  0  0  0  0  0  0  0  0  0  0  0
  1  2  1  0
  2  3  1  0
  2  4  1  0
  4  5  1  0
  5  6  2  0
  5  7  1  0
  7  8  1  0
  8  9  1  0
  9 10  1  1
 10 11  2  0
 10 12  1  0
 12 13  1  0
 13 14  1  0
 14 15  1  0
 14 16  1  0
 14 17  1  0
 17 18  1  0
 18 19  2  0
 19 20  1  0
 19 21  1  0
 21 22  2  0
  9  4  1  0
 22 17  1  0
M  END
>  <energy_score>  (2094) 
-9.048179

>  <inchikey>  (2094) 
YWVHLSQJRJVXJR-UHFFFAOYSA-N

>  <smiles>  (2094) 
CC(C)N1C(=O)CCC1C(=O)OCC(C)(C)n1cc(I)cn1

>  <ref_pdb>  (2094) 
A0239a

>  <alias>  (2094) 
YWVHLSQJRJVXJR-UHFFFAOYSA-N-P135-P135-P248-601519

>  <HIPPO Pose ID>  (2094) 
534259

>  <name>  (2094) 
YWVHLSQJRJVXJR-UHFFFAOYSA-N-P135-P135-P248-601519

>  <HIPPO Compound ID>  (2094) 
291940

>  <ref_mols>  (2094) 
A3956a,A2629a

>  <distance_score>  (2094) 
1.806703

>  <inspiration_score>  (2094) 
None

$$$$
WWUIJVKTDLRLCN-UHFFFAOYSA-N-P135-P135-P248-601519
     RDKit          3D

 23 25  0  0  0  0  0  0  0  0999 V2000
   14.4525   20.5228   21.5649 C   0  0  0  0  0  0  0  0  0  0  0  0
   14.5714   19.1039   21.4473 O   0  0  0  0  0  0  0  0  0  0  0  0
   13.3783   18.4297   21.3676 C   0  0  0  0  0  0  0  0  0  0  0  0
   12.2877   18.9648   21.4767 O   0  0  0  0  0  0  0  0  0  0  0  0
   13.6580   16.9817   21.0345 C   0  0  2  0  0  0  0  0  0  0  0  0
   14.0953   17.1239   19.5800 C   0  0  0  0  0  0  0  0  0  0  0  0
   13.5173   15.9651   18.8678 C   0  0  0  0  0  0  0  0  0  0  0  0
   13.5473   15.8497   17.6535 O   0  0  0  0  0  0  0  0  0  0  0  0
   12.7664   15.2156   19.7607 N   0  0  0  0  0  0  0  0  0  0  0  0
   11.7731   14.4024   19.1252 C   0  0  0  0  0  0  0  0  0  0  0  0
   12.4420   16.0778   20.8987 C   0  0  1  0  0  0  0  0  0  0  0  0
   11.7612   15.4025   22.1295 C   0  0  0  0  0  0  0  0  0  0  0  0
   10.8558   15.9467   22.7529 O   0  0  0  0  0  0  0  0  0  0  0  0
   12.1383   14.1442   22.4774 O   0  0  0  0  0  0  0  0  0  0  0  0
   11.0930   13.1323   22.3473 C   0  0  0  0  0  0  0  0  0  0  0  0
   10.1464   12.7860   23.5129 C   0  0  0  0  0  0  0  0  0  0  0  0
    9.9124   11.3055   23.7767 N   0  0  0  0  0  0  0  0  0  0  0  0
   10.1418   10.2908   22.8988 C   0  0  0  0  0  0  0  0  0  0  0  0
    9.4157    9.2133   23.3291 C   0  0  0  0  0  0  0  0  0  0  0  0
    8.7321    9.6969   24.4506 C   0  0  0  0  0  0  0  0  0  0  0  0
    9.0861   10.9340   24.7827 N   0  0  0  0  0  0  0  0  0  0  0  0
    9.8388   13.7810   24.6140 C   0  0  0  0  0  0  0  0  0  0  0  0
    8.8255   13.5949   23.5459 C   0  0  0  0  0  0  0  0  0  0  0  0
  1  2  1  0
  2  3  1  0
  3  4  2  0
  5  3  1  6
  5  6  1  0
  6  7  1  0
  7  8  2  0
  7  9  1  0
  9 10  1  0
  9 11  1  0
 11 12  1  1
 12 13  2  0
 12 14  1  0
 14 15  1  0
 15 16  1  0
 16 17  1  0
 17 18  1  0
 18 19  2  0
 19 20  1  0
 20 21  2  0
 16 22  1  0
 22 23  1  0
 11  5  1  0
 23 16  1  0
 21 17  1  0
M  END
>  <energy_score>  (2095) 
-0.987954

>  <inchikey>  (2095) 
WWUIJVKTDLRLCN-UHFFFAOYSA-N

>  <smiles>  (2095) 
COC(=O)C1CC(=O)N(C)C1C(=O)OCC1(n2cccn2)CC1

>  <ref_pdb>  (2095) 
A0239a

>  <alias>  (2095) 
WWUIJVKTDLRLCN-UHFFFAOYSA-N-P135-P135-P248-601519

>  <HIPPO Pose ID>  (2095) 
534265

>  <name>  (2095) 
WWUIJVKTDLRLCN-UHFFFAOYSA-N-P135-P135-P248-601519

>  <HIPPO Compound ID>  (2095) 
291943

>  <ref_mols>  (2095) 
A3956a,A2629a

>  <distance_score>  (2095) 
1.721516

>  <inspiration_score>  (2095) 
None

$$$$
