A71EV2A-x3181_A_201_1_A71EV2A-x0911+A+147+1__LIG
     RDKit          3D

 20 22  0  0  0  0  0  0  0  0999 V2000
   10.0590   14.3710   24.6280 O   0  0  0  0  0  0  0  0  0  0  0  0
   10.1800   13.4730   23.7940 C   0  0  0  0  0  0  0  0  0  0  0  0
    9.4030   12.1970   23.9340 C   0  0  0  0  0  0  0  0  0  0  0  0
    9.8110   11.1350   23.2410 N   0  0  0  0  0  0  0  0  0  0  0  0
    8.3140   11.8530   24.8060 C   0  0  0  0  0  0  0  0  0  0  0  0
    8.1030   10.4840   24.5930 C   0  0  0  0  0  0  0  0  0  0  0  0
    7.1280    9.7740   25.2880 C   0  0  0  0  0  0  0  0  0  0  0  0
    6.3740   10.4610   26.2310 C   0  0  0  0  0  0  0  0  0  0  0  0
    6.5850   11.8220   26.4630 C   0  0  0  0  0  0  0  0  0  0  0  0
    7.5290   12.5330   25.7390 C   0  0  0  0  0  0  0  0  0  0  0  0
    9.0130   10.0890   23.6650 N   0  0  0  0  0  0  0  0  0  0  0  0
    9.2240    8.7590   23.1100 C   0  0  0  0  0  0  0  0  0  0  0  0
   11.0000   13.5230   22.7420 N   0  0  0  0  0  0  0  0  0  0  0  0
   12.0520   14.5290   22.6290 C   0  0  0  0  0  0  0  0  0  0  0  0
   12.3670   14.8400   21.1830 C   0  0  0  0  0  0  0  0  0  0  0  0
   11.2780   15.5410   20.5070 N   0  0  0  0  0  0  0  0  0  0  0  0
   10.7360   16.6680   21.0360 N   0  0  0  0  0  0  0  0  0  0  0  0
    9.8510   17.0030   20.1200 C   0  0  0  0  0  0  0  0  0  0  0  0
    9.7970   16.1890   19.0430 N   0  0  0  0  0  0  0  0  0  0  0  0
   10.7060   15.2830   19.3330 C   0  0  0  0  0  0  0  0  0  0  0  0
 12 11  1  0
 11  4  1  0
  4  3  2  0
  3  2  1  0
  2  1  2  0
 13  2  1  0
 14 13  1  0
 15 14  1  0
 16 15  1  0
 16 20  1  0
 20 19  2  0
 19 18  1  0
 18 17  2  0
 17 16  1  0
  5  3  1  0
  5 10  2  0
 10  9  1  0
  9  8  2  0
  8  7  1  0
  7  6  2  0
  6  5  1  0
 11  6  1  0
M  END
$$$$
