A71EV2A-x4715_A_201_1_A71EV2A-x0911+A+147+1_ALIG
     RDKit          3D

 16 17  0  0  0  0  0  0  0  0999 V2000
    7.7530   13.9460   22.6790 O   0  0  0  0  0  0  0  0  0  0  0  0
    8.8440   13.8920   23.2200 C   0  0  0  0  0  0  0  0  0  0  0  0
    9.9810   14.2160   22.5720 N   0  0  0  0  0  0  0  0  0  0  0  0
   11.4440   14.1760   22.6590 C   0  0  0  0  0  0  0  0  0  0  0  0
   11.5020   14.9370   21.3250 C   0  0  0  0  0  0  0  0  0  0  0  0
   12.2510   14.3280   20.2700 O   0  0  0  0  0  0  0  0  0  0  0  0
    9.9820   14.7560   21.2090 C   0  0  0  0  0  0  0  0  0  0  0  0
    8.9820   13.4400   24.6620 C   0  0  0  0  0  0  0  0  0  0  0  0
    7.9680   12.3790   25.0290 C   0  0  0  0  0  0  0  0  0  0  0  0
    8.0520   11.0680   24.5480 C   0  0  0  0  0  0  0  0  0  0  0  0
    9.2960   10.7180   23.3450 S   0  0  0  0  0  0  0  0  0  0  0  0
    9.2270    8.9250   23.2250 C   0  0  0  0  0  0  0  0  0  0  0  0
    6.9650   12.6740   25.9490 C   0  0  0  0  0  0  0  0  0  0  0  0
    6.0970   11.6940   26.3990 C   0  0  0  0  0  0  0  0  0  0  0  0
    6.2090   10.4060   25.9400 C   0  0  0  0  0  0  0  0  0  0  0  0
    7.1780   10.0840   25.0090 C   0  0  0  0  0  0  0  0  0  0  0  0
 12 11  1  0
 11 10  1  0
 10 16  2  0
 16 15  1  0
 15 14  2  0
 14 13  1  0
 13  9  2  0
 10  9  1  0
  9  8  1  0
  8  2  1  0
  2  1  2  0
  3  2  1  0
  3  7  1  0
  7  5  1  0
  6  5  1  0
  5  4  1  0
  4  3  1  0
M  END
$$$$
A71EV2A-x4715_A_201_1_A71EV2A-x0911+A+147+1_BLIG
     RDKit          3D

 16 17  0  0  0  0  0  0  0  0999 V2000
    9.8140   13.9780   24.9140 O   0  0  0  0  0  0  0  0  0  0  0  0
    9.3700   13.9060   23.7850 C   0  0  0  0  0  0  0  0  0  0  0  0
   10.1230   14.1810   22.6980 N   0  0  0  0  0  0  0  0  0  0  0  0
   11.5740   14.3780   22.6280 C   0  0  0  0  0  0  0  0  0  0  0  0
   11.3840   14.9950   21.2350 C   0  0  0  0  0  0  0  0  0  0  0  0
   12.1290   14.3620   20.1910 O   0  0  0  0  0  0  0  0  0  0  0  0
    9.8920   14.6370   21.3240 C   0  0  0  0  0  0  0  0  0  0  0  0
    7.9400   13.4700   23.5390 C   0  0  0  0  0  0  0  0  0  0  0  0
    7.4960   12.4020   24.5150 C   0  0  0  0  0  0  0  0  0  0  0  0
    7.9150   11.0710   24.4030 C   0  0  0  0  0  0  0  0  0  0  0  0
    9.2710   10.7210   23.3290 S   0  0  0  0  0  0  0  0  0  0  0  0
    9.2300    8.9260   23.2260 C   0  0  0  0  0  0  0  0  0  0  0  0
    6.5400   12.7070   25.4800 C   0  0  0  0  0  0  0  0  0  0  0  0
    5.9700   11.7140   26.2600 C   0  0  0  0  0  0  0  0  0  0  0  0
    6.3420   10.4040   26.0910 C   0  0  0  0  0  0  0  0  0  0  0  0
    7.3160   10.0730   25.1690 C   0  0  0  0  0  0  0  0  0  0  0  0
 12 11  1  0
 11 10  1  0
 10 16  2  0
 16 15  1  0
 15 14  2  0
 14 13  1  0
 13  9  2  0
 10  9  1  0
  9  8  1  0
  8  2  1  0
  2  1  2  0
  3  2  1  0
  3  7  1  0
  7  5  1  0
  6  5  1  0
  5  4  1  0
  4  3  1  0
M  END
$$$$
