A71EV2A-x5425_A_201_5_A71EV2A-x0911+A+147+1__LIG
     RDKit          3D

 17 18  0  0  0  0  0  0  0  0999 V2000
    7.2560   13.3640   22.2880 O   0  0  0  0  0  0  0  0  0  0  0  0
    8.0930   13.7150   23.1030 C   0  0  0  0  0  0  0  0  0  0  0  0
    9.0210   14.6570   22.8160 N   0  0  0  0  0  0  0  0  0  0  0  0
   10.0360   15.1800   23.7480 C   0  0  0  0  0  0  0  0  0  0  0  0
   11.4480   15.0490   23.1930 C   0  0  0  0  0  0  0  0  0  0  0  0
   11.5480   15.6150   21.7700 C   0  0  0  0  0  0  0  0  0  0  0  0
    9.0650   15.2270   21.4680 C   0  0  0  0  0  0  0  0  0  0  0  0
   10.4570   14.9910   20.8830 C   0  0  1  0  0  0  0  0  0  0  0  0
   10.4870   15.5070   19.4560 C   0  0  0  0  0  0  0  0  0  0  0  0
   10.1830   16.6770   19.1900 O   0  0  0  0  0  0  0  0  0  0  0  0
   10.8260   14.6190   18.5350 N   0  0  0  0  0  0  0  0  0  0  0  0
    8.1260   13.1260   24.4990 C   0  0  0  0  0  0  0  0  0  0  0  0
    8.4420   11.6580   24.3970 C   0  0  0  0  0  0  0  0  0  0  0  0
    9.4770   11.1620   23.6680 C   0  0  0  0  0  0  0  0  0  0  0  0
    9.4890    9.4630   23.6570 S   0  0  0  0  0  0  0  0  0  0  0  0
    8.0990    9.3700   24.6640 C   0  0  0  0  0  0  0  0  0  0  0  0
    7.6580   10.6220   24.9810 C   0  0  0  0  0  0  0  0  0  0  0  0
 11  9  1  0
 10  9  2  0
  8  9  1  6
  8  6  1  0
  6  5  1  0
  5  4  1  0
  4  3  1  0
  3  2  1  0
  2  1  2  0
 12  2  1  0
 13 12  1  0
 13 17  1  0
 17 16  2  0
 16 15  1  0
 15 14  1  0
 14 13  2  0
  7  3  1  0
  8  7  1  0
M  END
$$$$
