Z0051a
     RDKit          3D

 12 13  0  0  0  0  0  0  0  0999 V2000
   -9.9790    4.0660  -18.5660 N   0  0  0  0  0  0  0  0  0  0  0  0
   -8.7500    4.4580  -18.2220 C   0  0  0  0  0  0  0  0  0  0  0  0
   -8.4660    5.1540  -16.6340 S   0  0  0  0  0  0  0  0  0  0  0  0
   -7.6950    4.3450  -18.9890 N   0  0  0  0  0  0  0  0  0  0  0  0
   -6.5550    4.8240  -18.3370 C   0  0  0  0  0  0  0  0  0  0  0  0
   -6.7750    5.2880  -17.0350 C   0  0  0  0  0  0  0  0  0  0  0  0
   -5.7250    5.7460  -16.2490 C   0  0  0  0  0  0  0  0  0  0  0  0
   -4.4430    5.7500  -16.7710 C   0  0  0  0  0  0  0  0  0  0  0  0
   -5.2650    4.8640  -18.8690 C   0  0  0  0  0  0  0  0  0  0  0  0
   -4.2200    5.3210  -18.0710 C   0  0  0  0  0  0  0  0  0  0  0  0
   -2.8940    5.4040  -18.4180 O   0  0  0  0  0  0  0  0  0  0  0  0
   -2.5100    4.9890  -19.7310 C   0  0  0  0  0  0  0  0  0  0  0  0
  2  1  1  0
  3  2  1  0
  4  2  2  0
  5  4  1  0
  6  5  2  0
  6  3  1  0
  7  6  1  0
  8  7  2  0
  9  5  1  0
 10  9  2  0
 10  8  1  0
 11 10  1  0
 12 11  1  0
M  END
>  <smiles>  (1) 
COc1ccc2sc(N)nc2c1

>  <inchikey>  (1) 
OMIHQJBWAPWLBO-UHFFFAOYSA-N

>  <alias>  (1) 
Z0051a

$$$$
Z0101a
     RDKit          3D

 15 15  0  0  0  0  0  0  0  0999 V2000
  -10.3540    3.6840  -18.3730 Cl  0  0  0  0  0  0  0  0  0  0  0  0
   -8.8750    4.1240  -17.5620 C   0  0  0  0  0  0  0  0  0  0  0  0
   -8.8420    4.1370  -16.1840 C   0  0  0  0  0  0  0  0  0  0  0  0
   -7.6810    4.5390  -15.5470 C   0  0  0  0  0  0  0  0  0  0  0  0
   -6.5700    4.9100  -16.2870 C   0  0  0  0  0  0  0  0  0  0  0  0
   -7.7790    4.4910  -18.3200 C   0  0  0  0  0  0  0  0  0  0  0  0
   -6.6090    4.8880  -17.6780 C   0  0  0  0  0  0  0  0  0  0  0  0
   -5.3620    5.2460  -18.4260 C   0  0  0  0  0  0  0  0  0  0  0  0
   -4.3560    5.6200  -17.8280 O   0  0  0  0  0  0  0  0  0  0  0  0
   -5.3930    5.1380  -19.7690 N   0  0  0  0  0  0  0  0  0  0  0  0
   -4.2640    5.4430  -20.6810 C   0  0  1  0  0  0  0  0  0  0  0  0
   -4.0530    6.9590  -20.7330 C   0  0  0  0  0  0  0  0  0  0  0  0
   -2.9820    4.7740  -20.1990 C   0  0  0  0  0  0  0  0  0  0  0  0
   -4.5150    4.8340  -22.0520 C   0  0  0  0  0  0  0  0  0  0  0  0
   -5.3880    5.5970  -22.8680 O   0  0  0  0  0  0  0  0  0  0  0  0
  2  1  1  0
  3  2  2  0
  4  3  1  0
  5  4  2  0
  6  2  1  0
  7  6  2  0
  7  5  1  0
  8  7  1  0
  9  8  2  0
 10  8  1  0
 11 10  1  0
 11 12  1  6
 13 11  1  0
 14 11  1  0
 15 14  1  0
M  END
>  <smiles>  (2) 
CC(C)(CO)NC(=O)c1cccc(Cl)c1

>  <inchikey>  (2) 
XZDXDRPMHCVWBK-UHFFFAOYSA-N

>  <alias>  (2) 
Z0101a

$$$$
Z0130a
     RDKit          3D

 17 18  0  0  0  0  0  0  0  0999 V2000
  -21.6370   -7.0790   -6.4320 F   0  0  0  0  0  0  0  0  0  0  0  0
  -22.8710   -7.3700   -5.9400 C   0  0  0  0  0  0  0  0  0  0  0  0
  -23.5640   -8.4240   -6.4850 C   0  0  0  0  0  0  0  0  0  0  0  0
  -22.9590   -9.1940   -7.4250 F   0  0  0  0  0  0  0  0  0  0  0  0
  -24.8630   -8.6770   -6.1170 C   0  0  0  0  0  0  0  0  0  0  0  0
  -25.4740   -7.8370   -5.1960 C   0  0  0  0  0  0  0  0  0  0  0  0
  -23.4490   -6.5460   -5.0020 C   0  0  0  0  0  0  0  0  0  0  0  0
  -24.7820   -6.7560   -4.6470 C   0  0  0  0  0  0  0  0  0  0  0  0
  -25.5130   -5.7700   -3.7880 C   0  0  0  0  0  0  0  0  0  0  0  0
  -25.8750   -4.7090   -4.2650 O   0  0  0  0  0  0  0  0  0  0  0  0
  -25.7000   -6.0640   -2.4810 N   0  0  0  0  0  0  0  0  0  0  0  0
  -25.1430   -7.2760   -1.8590 C   0  0  0  0  0  0  0  0  0  0  0  0
  -25.7710   -7.5220   -0.5130 C   0  0  0  0  0  0  0  0  0  0  0  0
  -26.3850   -5.1450   -1.5620 C   0  0  0  0  0  0  0  0  0  0  0  0
  -27.5080   -5.8600   -0.7660 C   0  0  0  0  0  0  0  0  0  0  0  0
  -27.2120   -7.2860   -0.5560 N   0  0  0  0  0  0  0  0  0  0  0  0
  -27.8620   -7.7890    0.6790 C   0  0  0  0  0  0  0  0  0  0  0  0
  2  1  1  0
  3  2  2  0
  4  3  1  0
  5  3  1  0
  6  5  2  0
  7  2  1  0
  8  7  2  0
  8  6  1  0
  9  8  1  0
 10  9  2  0
 11  9  1  0
 12 11  1  0
 13 12  1  0
 14 11  1  0
 15 14  1  0
 16 15  1  0
 16 13  1  0
 17 16  1  0
M  END
>  <smiles>  (3) 
CN1CCN(C(=O)c2ccc(F)c(F)c2)CC1

>  <inchikey>  (3) 
ZCPNSVBDWJVJSY-UHFFFAOYSA-N

>  <alias>  (3) 
Z0130a

$$$$
Z0673a
     RDKit          3D

 15 16  0  0  0  0  0  0  0  0999 V2000
  -10.9930    3.8520  -17.9750 O   0  0  0  0  0  0  0  0  0  0  0  0
   -9.7930    4.0050  -17.7970 C   0  0  0  0  0  0  0  0  0  0  0  0
   -8.8600    4.1180  -18.9650 C   0  0  0  0  0  0  0  0  0  0  0  0
   -7.6080    4.9530  -18.6770 C   0  0  0  0  0  0  0  0  0  0  0  0
   -9.2950    4.1230  -16.5780 N   0  0  0  0  0  0  0  0  0  0  0  0
   -8.1060    4.8910  -16.2180 C   0  0  0  0  0  0  0  0  0  0  0  0
   -7.0260    4.7750  -17.2800 C   0  0  2  0  0  0  0  0  0  0  0  0
   -5.9950    5.7780  -17.0280 N   0  0  0  0  0  0  0  0  0  0  0  0
   -4.9890    5.5670  -16.1710 C   0  0  0  0  0  0  0  0  0  0  0  0
   -5.1440    5.4510  -14.9520 O   0  0  0  0  0  0  0  0  0  0  0  0
   -3.6520    5.4560  -16.7990 C   0  0  0  0  0  0  0  0  0  0  0  0
   -3.5190    4.9830  -18.0950 N   0  0  0  0  0  0  0  0  0  0  0  0
   -2.2620    4.9840  -18.4280 C   0  0  0  0  0  0  0  0  0  0  0  0
   -1.1770    5.5420  -17.2320 S   0  0  0  0  0  0  0  0  0  0  0  0
   -2.4940    5.8000  -16.1860 C   0  0  0  0  0  0  0  0  0  0  0  0
  2  1  2  0
  3  2  1  0
  4  3  1  0
  5  2  1  0
  6  5  1  0
  7  4  1  0
  7  6  1  0
  7  8  1  1
  9  8  1  0
 10  9  2  0
 11  9  1  0
 12 11  1  0
 13 12  2  0
 14 13  1  0
 15 14  1  0
 15 11  2  0
M  END
>  <smiles>  (4) 
O=C1CC[C@@H](NC(=O)c2cscn2)CN1

>  <inchikey>  (4) 
MTDCJLXPYPQTPX-ZCFIWIBFSA-N

>  <alias>  (4) 
Z0673a

$$$$
Z0673b
     RDKit          3D

 15 16  0  0  0  0  0  0  0  0999 V2000
   -6.7060   -1.7300    4.3600 O   0  0  0  0  0  0  0  0  0  0  0  0
   -6.8070   -0.6590    3.7660 C   0  0  0  0  0  0  0  0  0  0  0  0
   -5.7470   -0.2210    2.7970 C   0  0  0  0  0  0  0  0  0  0  0  0
   -5.7730    1.2680    2.4180 C   0  0  0  0  0  0  0  0  0  0  0  0
   -7.8220    0.1480    3.9950 N   0  0  0  0  0  0  0  0  0  0  0  0
   -7.7710    1.6040    3.9050 C   0  0  0  0  0  0  0  0  0  0  0  0
   -7.0860    2.0360    2.6220 C   0  0  2  0  0  0  0  0  0  0  0  0
   -8.0110    1.8800    1.4980 N   0  0  0  0  0  0  0  0  0  0  0  0
   -8.4750    2.9250    0.7850 C   0  0  0  0  0  0  0  0  0  0  0  0
   -7.8950    3.3760   -0.2020 O   0  0  0  0  0  0  0  0  0  0  0  0
   -9.7490    3.5170    1.2640 C   0  0  0  0  0  0  0  0  0  0  0  0
  -10.5140    4.3100    0.4180 N   0  0  0  0  0  0  0  0  0  0  0  0
  -11.5610    4.7410    1.0590 C   0  0  0  0  0  0  0  0  0  0  0  0
  -11.7000    4.2330    2.6860 S   0  0  0  0  0  0  0  0  0  0  0  0
  -10.2440    3.3690    2.5190 C   0  0  0  0  0  0  0  0  0  0  0  0
  2  1  2  0
  3  2  1  0
  4  3  1  0
  5  2  1  0
  6  5  1  0
  7  6  1  0
  7  4  1  0
  7  8  1  6
  9  8  1  0
 10  9  2  0
 11  9  1  0
 12 11  1  0
 13 12  2  0
 14 13  1  0
 15 14  1  0
 15 11  2  0
M  END
>  <smiles>  (5) 
O=C1CC[C@@H](NC(=O)c2cscn2)CN1

>  <inchikey>  (5) 
MTDCJLXPYPQTPX-ZCFIWIBFSA-N

>  <alias>  (5) 
Z0673b

$$$$
Z0719a
     RDKit          3D

 10 10  0  0  0  0  0  0  0  0999 V2000
   -6.8840    1.8240  -13.6620 O   0  0  0  0  0  0  0  0  0  0  0  0
   -5.9580    2.6160  -13.8320 C   0  0  0  0  0  0  0  0  0  0  0  0
   -4.6280    2.4400  -13.1550 C   0  0  0  0  0  0  0  0  0  0  0  0
   -6.0740    3.6760  -14.6430 N   0  0  0  0  0  0  0  0  0  0  0  0
   -7.3490    4.3400  -14.8410 C   0  0  0  0  0  0  0  0  0  0  0  0
   -7.8410    4.3230  -16.3040 C   0  0  0  0  0  0  0  0  0  0  0  0
   -7.1510    4.8610  -17.3300 N   0  0  0  0  0  0  0  0  0  0  0  0
   -7.9690    4.8520  -18.4230 C   0  0  0  0  0  0  0  0  0  0  0  0
   -9.1340    4.2990  -18.0220 C   0  0  0  0  0  0  0  0  0  0  0  0
   -9.0590    3.9510  -16.6920 N   0  0  0  0  0  0  0  0  0  0  0  0
  2  1  2  0
  3  2  1  0
  4  2  1  0
  5  4  1  0
  6  5  1  0
  7  6  2  0
  8  7  1  0
  9  8  2  0
 10  9  1  0
 10  6  1  0
M  END
>  <smiles>  (6) 
CC(=O)NCc1ncc[nH]1

>  <inchikey>  (6) 
SXKAQLCLHGQXHB-UHFFFAOYSA-N

>  <alias>  (6) 
Z0719a

$$$$
Z0777a
     RDKit          3D

 15 16  0  0  0  0  0  0  0  0999 V2000
   -8.1530  -11.0820   -6.9500 O   0  0  0  0  0  0  0  0  0  0  0  0
   -8.8710  -10.3930   -7.9650 C   0  0  0  0  0  0  0  0  0  0  0  0
  -10.2280  -11.0340   -8.2990 C   0  0  1  0  0  0  0  0  0  0  0  0
  -10.8620  -10.2380   -9.4480 C   0  0  0  0  0  0  0  0  0  0  0  0
  -10.0490  -12.5060   -8.7160 C   0  0  0  0  0  0  0  0  0  0  0  0
  -11.4140  -13.1550   -8.4910 C   0  0  0  0  0  0  0  0  0  0  0  0
  -12.1650  -12.2640   -7.5000 C   0  0  0  0  0  0  0  0  0  0  0  0
  -11.1640  -11.1810   -7.0770 C   0  0  2  0  0  0  0  0  0  0  0  0
  -11.8340   -9.9450   -6.6860 N   0  0  0  0  0  0  0  0  0  0  0  0
  -12.0240   -9.5120   -5.4230 C   0  0  0  0  0  0  0  0  0  0  0  0
  -12.8230   -8.0330   -5.0310 S   0  0  0  0  0  0  0  0  0  0  0  0
  -12.6560   -8.3170   -3.3940 N   0  0  0  0  0  0  0  0  0  0  0  0
  -11.6480  -10.1750   -4.3550 N   0  0  0  0  0  0  0  0  0  0  0  0
  -12.0320   -9.4610   -3.2450 C   0  0  0  0  0  0  0  0  0  0  0  0
  -11.7770   -9.9620   -1.8680 C   0  0  0  0  0  0  0  0  0  0  0  0
 15 14  1  0
 14 12  2  0
 12 11  1  0
 11 10  1  0
 10  9  1  0
  8  9  1  6
  8  7  1  0
  7  6  1  0
  6  5  1  0
  5  3  1  0
  8  3  1  0
  3  4  1  6
  3  2  1  0
  2  1  1  0
 13 10  2  0
 14 13  1  0
M  END
>  <smiles>  (7) 
Cc1nsc(N[C@H]2CCC[C@]2(C)CO)n1

>  <inchikey>  (7) 
OXBOFYWMHPKHNR-WCBMZHEXSA-N

>  <alias>  (7) 
Z0777a

$$$$
Z0846b
     RDKit          3D

 18 20  0  0  0  0  0  0  0  0999 V2000
  -13.1790    9.9540  -12.1710 O   0  0  0  0  0  0  0  0  0  0  0  0
  -11.9900    9.3010  -12.1620 C   0  0  0  0  0  0  0  0  0  0  0  0
  -11.1360    9.4140  -11.0590 C   0  0  0  0  0  0  0  0  0  0  0  0
   -9.8960    8.7790  -11.1170 C   0  0  0  0  0  0  0  0  0  0  0  0
   -9.5210    8.0410  -12.2310 C   0  0  0  0  0  0  0  0  0  0  0  0
  -10.3830    7.9170  -13.3010 C   0  0  0  0  0  0  0  0  0  0  0  0
  -11.6150    8.5470  -13.2730 C   0  0  0  0  0  0  0  0  0  0  0  0
  -11.5600   10.2080   -9.8410 C   0  0  0  0  0  0  0  0  0  0  0  0
  -11.5650   11.6500  -10.0610 N   0  0  0  0  0  0  0  0  0  0  0  0
  -12.6150   12.4400   -9.8010 C   0  0  0  0  0  0  0  0  0  0  0  0
  -12.4780   13.7860   -9.7440 N   0  0  0  0  0  0  0  0  0  0  0  0
  -13.7360   14.3140   -9.5180 C   0  0  0  0  0  0  0  0  0  0  0  0
  -14.5970   13.2200   -9.4580 C   0  0  0  0  0  0  0  0  0  0  0  0
  -13.8690   12.0400   -9.6260 N   0  0  0  0  0  0  0  0  0  0  0  0
  -14.1920   15.6160   -9.3670 C   0  0  0  0  0  0  0  0  0  0  0  0
  -15.5510   15.8140   -9.1580 C   0  0  0  0  0  0  0  0  0  0  0  0
  -16.4290   14.7310   -9.1230 C   0  0  0  0  0  0  0  0  0  0  0  0
  -15.9630   13.4290   -9.2730 C   0  0  0  0  0  0  0  0  0  0  0  0
  2  1  1  0
  3  2  2  0
  4  3  1  0
  5  4  2  0
  6  5  1  0
  7  2  1  0
  7  6  2  0
  8  3  1  0
  9  8  1  0
 10  9  1  0
 11 10  2  0
 12 11  1  0
 13 12  2  0
 14 13  1  0
 14 10  1  0
 15 12  1  0
 16 15  2  0
 17 16  1  0
 18 17  2  0
 18 13  1  0
M  END
>  <smiles>  (8) 
Oc1ccccc1CNc1nc2ccccc2[nH]1

>  <inchikey>  (8) 
OCDMDLRMBVJKCG-UHFFFAOYSA-N

>  <alias>  (8) 
Z0846b

$$$$
Z0846a
     RDKit          3D

 18 20  0  0  0  0  0  0  0  0999 V2000
   -6.1280    7.4260  -24.3630 O   0  0  0  0  0  0  0  0  0  0  0  0
   -5.4650    7.8680  -23.2660 C   0  0  0  0  0  0  0  0  0  0  0  0
   -5.1530    9.2250  -23.1380 C   0  0  0  0  0  0  0  0  0  0  0  0
   -4.4440    9.6350  -22.0120 C   0  0  0  0  0  0  0  0  0  0  0  0
   -4.0640    8.7270  -21.0390 C   0  0  0  0  0  0  0  0  0  0  0  0
   -4.3880    7.3990  -21.1710 C   0  0  0  0  0  0  0  0  0  0  0  0
   -5.0870    6.9630  -22.2810 C   0  0  0  0  0  0  0  0  0  0  0  0
   -5.5980   10.2140  -24.1900 C   0  0  0  0  0  0  0  0  0  0  0  0
   -5.5970    9.6660  -25.5390 N   0  0  0  0  0  0  0  0  0  0  0  0
   -6.7040    9.2490  -26.1650 C   0  0  0  0  0  0  0  0  0  0  0  0
   -6.7130    8.1200  -26.9090 N   0  0  0  0  0  0  0  0  0  0  0  0
   -8.0120    7.9300  -27.3410 C   0  0  0  0  0  0  0  0  0  0  0  0
   -8.7410    8.9990  -26.8230 C   0  0  0  0  0  0  0  0  0  0  0  0
   -7.8930    9.8280  -26.0890 N   0  0  0  0  0  0  0  0  0  0  0  0
   -8.6140    6.9250  -28.0840 C   0  0  0  0  0  0  0  0  0  0  0  0
   -9.9840    7.0010  -28.2920 C   0  0  0  0  0  0  0  0  0  0  0  0
  -10.7270    8.0510  -27.7650 C   0  0  0  0  0  0  0  0  0  0  0  0
  -10.1160    9.0640  -27.0380 C   0  0  0  0  0  0  0  0  0  0  0  0
  2  1  1  0
  3  2  2  0
  4  3  1  0
  5  4  2  0
  6  5  1  0
  7  2  1  0
  7  6  2  0
  8  3  1  0
  9  8  1  0
 10  9  1  0
 11 10  2  0
 12 11  1  0
 13 12  2  0
 14 13  1  0
 14 10  1  0
 15 12  1  0
 16 15  2  0
 17 16  1  0
 18 17  2  0
 18 13  1  0
M  END
>  <smiles>  (9) 
Oc1ccccc1CNc1nc2ccccc2[nH]1

>  <inchikey>  (9) 
OCDMDLRMBVJKCG-UHFFFAOYSA-N

>  <alias>  (9) 
Z0846a

$$$$
Z0945a
     RDKit          3D

 14 15  0  0  0  0  0  0  0  0999 V2000
  -10.4370    4.4810  -18.4830 C   0  0  0  0  0  0  0  0  0  0  0  0
   -9.8540    3.8430  -17.3450 O   0  0  0  0  0  0  0  0  0  0  0  0
   -8.7080    4.3550  -16.8600 C   0  0  0  0  0  0  0  0  0  0  0  0
   -7.7460    4.6950  -17.7040 N   0  0  0  0  0  0  0  0  0  0  0  0
   -6.6210    5.1850  -17.1640 C   0  0  0  0  0  0  0  0  0  0  0  0
   -6.3990    5.3660  -15.8530 N   0  0  0  0  0  0  0  0  0  0  0  0
   -7.4050    4.9970  -15.0420 C   0  0  0  0  0  0  0  0  0  0  0  0
   -8.6080    4.4740  -15.4760 C   0  0  0  0  0  0  0  0  0  0  0  0
   -5.5980    5.4900  -18.0190 N   0  0  0  0  0  0  0  0  0  0  0  0
   -5.7560    5.4820  -19.4800 C   0  0  0  0  0  0  0  0  0  0  0  0
   -4.9260    6.5760  -20.1440 C   0  0  0  0  0  0  0  0  0  0  0  0
   -4.1700    7.3910  -19.1530 N   0  0  0  0  0  0  0  0  0  0  0  0
   -3.3770    6.5500  -18.2080 C   0  0  0  0  0  0  0  0  0  0  0  0
   -4.1850    5.3980  -17.6270 C   0  0  0  0  0  0  0  0  0  0  0  0
  2  1  1  0
  3  2  1  0
  4  3  2  0
  5  4  1  0
  6  5  2  0
  7  6  1  0
  8  3  1  0
  8  7  2  0
  9  5  1  0
 10  9  1  0
 11 10  1  0
 12 11  1  0
 13 12  1  0
 14  9  1  0
 14 13  1  0
M  END
>  <smiles>  (10) 
COc1ccnc(N2CCNCC2)n1

>  <inchikey>  (10) 
UWNRWWIRIZDKLH-UHFFFAOYSA-N

>  <alias>  (10) 
Z0945a

$$$$
Z1046a
     RDKit          3D

 16 16  0  0  0  0  0  0  0  0999 V2000
   -0.5590    5.8080  -26.2090 O   0  0  0  0  0  0  0  0  0  0  0  0
   -0.1760    5.1310  -25.2460 C   0  0  0  0  0  0  0  0  0  0  0  0
    1.2160    4.5670  -25.1650 C   0  0  0  0  0  0  0  0  0  0  0  0
   -0.9760    4.8190  -24.2050 N   0  0  0  0  0  0  0  0  0  0  0  0
   -2.3250    5.1590  -23.9900 C   0  0  0  0  0  0  0  0  0  0  0  0
   -2.9680    4.5860  -22.9030 C   0  0  0  0  0  0  0  0  0  0  0  0
   -4.2620    4.9510  -22.5950 C   0  0  0  0  0  0  0  0  0  0  0  0
   -4.9240    5.9040  -23.3380 C   0  0  0  0  0  0  0  0  0  0  0  0
   -3.0060    6.0730  -24.7850 C   0  0  0  0  0  0  0  0  0  0  0  0
   -4.3040    6.4510  -24.4530 C   0  0  0  0  0  0  0  0  0  0  0  0
   -4.9380    7.3460  -25.3370 N   0  0  0  0  0  0  0  0  0  0  0  0
   -5.9360    8.2140  -25.0670 C   0  0  0  0  0  0  0  0  0  0  0  0
   -6.4130    8.3800  -23.9550 O   0  0  0  0  0  0  0  0  0  0  0  0
   -6.4610    8.9900  -26.2570 C   0  0  0  0  0  0  0  0  0  0  0  0
   -7.4800    9.8560  -25.7970 O   0  0  0  0  0  0  0  0  0  0  0  0
   -7.8830   10.7840  -26.7640 C   0  0  0  0  0  0  0  0  0  0  0  0
  2  1  2  0
  3  2  1  0
  4  2  1  0
  5  4  1  0
  6  5  2  0
  7  6  1  0
  8  7  2  0
  9  5  1  0
 10  9  2  0
 10  8  1  0
 11 10  1  0
 12 11  1  0
 13 12  2  0
 14 12  1  0
 15 14  1  0
 16 15  1  0
M  END
>  <smiles>  (11) 
COCC(=O)Nc1cccc(NC(C)=O)c1

>  <inchikey>  (11) 
ZDALGCTWWSVNDR-UHFFFAOYSA-N

>  <alias>  (11) 
Z1046a

$$$$
Z1046b
     RDKit          3D

 16 16  0  0  0  0  0  0  0  0999 V2000
   -4.8480    9.0720  -21.0440 O   0  0  0  0  0  0  0  0  0  0  0  0
   -3.7160    8.6640  -21.2940 C   0  0  0  0  0  0  0  0  0  0  0  0
   -2.8880    9.2500  -22.4090 C   0  0  0  0  0  0  0  0  0  0  0  0
   -3.1260    7.6510  -20.6100 N   0  0  0  0  0  0  0  0  0  0  0  0
   -3.6790    6.8380  -19.5810 C   0  0  0  0  0  0  0  0  0  0  0  0
   -2.8240    6.3500  -18.6010 C   0  0  0  0  0  0  0  0  0  0  0  0
   -3.3080    5.4860  -17.6320 C   0  0  0  0  0  0  0  0  0  0  0  0
   -4.6340    5.0800  -17.6440 C   0  0  0  0  0  0  0  0  0  0  0  0
   -5.0220    6.4610  -19.5760 C   0  0  0  0  0  0  0  0  0  0  0  0
   -5.4940    5.5540  -18.6300 C   0  0  0  0  0  0  0  0  0  0  0  0
   -6.8010    5.0260  -18.8160 N   0  0  0  0  0  0  0  0  0  0  0  0
   -7.7760    4.7400  -17.9040 C   0  0  0  0  0  0  0  0  0  0  0  0
   -8.9040    4.3430  -18.1980 O   0  0  0  0  0  0  0  0  0  0  0  0
   -7.4450    4.9680  -16.4550 C   0  0  0  0  0  0  0  0  0  0  0  0
   -8.5750    4.3190  -15.9070 O   0  0  0  0  0  0  0  0  0  0  0  0
   -8.7580    4.5900  -14.5280 C   0  0  0  0  0  0  0  0  0  0  0  0
  2  1  2  0
  3  2  1  0
  4  2  1  0
  5  4  1  0
  6  5  2  0
  7  6  1  0
  8  7  2  0
  9  5  1  0
 10  8  1  0
 10  9  2  0
 11 10  1  0
 12 11  1  0
 13 12  2  0
 14 12  1  0
 15 14  1  0
 16 15  1  0
M  END
>  <smiles>  (12) 
COCC(=O)Nc1cccc(NC(C)=O)c1

>  <inchikey>  (12) 
ZDALGCTWWSVNDR-UHFFFAOYSA-N

>  <alias>  (12) 
Z1046b

$$$$
Z1098a
     RDKit          3D

 19 20  0  0  0  0  0  0  0  0999 V2000
   -5.6740    6.5870  -16.5850 F   0  0  0  0  0  0  0  0  0  0  0  0
   -5.7030    5.2690  -16.7810 C   0  0  1  0  0  0  0  0  0  0  0  0
   -4.8480    5.0350  -17.7880 F   0  0  0  0  0  0  0  0  0  0  0  0
   -5.1520    4.7060  -15.7060 F   0  0  0  0  0  0  0  0  0  0  0  0
   -7.0900    4.7570  -17.0670 C   0  0  0  0  0  0  0  0  0  0  0  0
   -7.4240    4.5000  -18.3880 C   0  0  0  0  0  0  0  0  0  0  0  0
   -8.6800    4.0200  -18.7200 C   0  0  0  0  0  0  0  0  0  0  0  0
   -9.6070    3.7740  -17.7410 C   0  0  0  0  0  0  0  0  0  0  0  0
   -9.2960    4.0090  -16.4150 C   0  0  0  0  0  0  0  0  0  0  0  0
   -8.0510    4.5230  -16.0680 C   0  0  0  0  0  0  0  0  0  0  0  0
   -7.8610    4.9470  -14.6390 C   0  0  0  0  0  0  0  0  0  0  0  0
   -7.3470    6.0250  -14.3500 O   0  0  0  0  0  0  0  0  0  0  0  0
   -8.3450    4.0870  -13.6840 N   0  0  0  0  0  0  0  0  0  0  0  0
   -8.2610    4.4220  -12.3200 C   0  0  0  0  0  0  0  0  0  0  0  0
   -8.0470    3.6510  -11.2140 C   0  0  0  0  0  0  0  0  0  0  0  0
   -8.3460    5.7300  -11.8390 C   0  0  0  0  0  0  0  0  0  0  0  0
   -8.1810    5.7780  -10.5300 N   0  0  0  0  0  0  0  0  0  0  0  0
   -7.9820    4.4910  -10.1680 N   0  0  0  0  0  0  0  0  0  0  0  0
   -7.6270    4.1690   -8.7930 C   0  0  0  0  0  0  0  0  0  0  0  0
  2  1  1  1
  3  2  1  0
  4  2  1  0
  5  2  1  0
  6  5  2  0
  7  6  1  0
  8  7  2  0
  9  8  1  0
 10  9  2  0
 10  5  1  0
 11 10  1  0
 12 11  2  0
 13 11  1  0
 14 13  1  0
 15 14  2  0
 16 14  1  0
 17 16  2  0
 18 15  1  0
 18 17  1  0
 19 18  1  0
M  END
>  <smiles>  (13) 
Cn1cc(NC(=O)c2ccccc2C(F)(F)F)cn1

>  <inchikey>  (13) 
HJOQMJVPFXCEBV-UHFFFAOYSA-N

>  <alias>  (13) 
Z1098a

$$$$
Z1234a
     RDKit          3D

 23 25  0  0  0  0  0  0  0  0999 V2000
   -4.1950    9.8460  -17.0130 C   0  0  0  0  0  0  0  0  0  0  0  0
   -3.4140    8.6750  -17.2310 O   0  0  0  0  0  0  0  0  0  0  0  0
   -3.8910    7.5100  -16.7200 C   0  0  0  0  0  0  0  0  0  0  0  0
   -3.0940    6.8120  -15.8300 C   0  0  0  0  0  0  0  0  0  0  0  0
   -3.4790    5.6550  -15.2780 N   0  0  0  0  0  0  0  0  0  0  0  0
   -4.6620    5.1600  -15.6540 C   0  0  0  0  0  0  0  0  0  0  0  0
   -5.5320    5.7710  -16.5490 C   0  0  0  0  0  0  0  0  0  0  0  0
   -6.8280    5.1510  -16.9600 C   0  0  0  0  0  0  0  0  0  0  0  0
   -7.0140    4.8000  -18.2980 C   0  0  0  0  0  0  0  0  0  0  0  0
   -8.1630    4.1680  -18.7280 C   0  0  0  0  0  0  0  0  0  0  0  0
   -9.1810    3.9110  -17.8420 C   0  0  0  0  0  0  0  0  0  0  0  0
   -9.0110    4.2120  -16.5070 C   0  0  0  0  0  0  0  0  0  0  0  0
   -7.8720    4.8840  -16.0580 C   0  0  0  0  0  0  0  0  0  0  0  0
   -7.8290    5.1830  -14.5880 C   0  0  0  0  0  0  0  0  0  0  0  0
   -7.4470    6.2660  -14.1740 O   0  0  0  0  0  0  0  0  0  0  0  0
   -8.2110    4.1680  -13.7610 N   0  0  0  0  0  0  0  0  0  0  0  0
   -8.2470    4.1960  -12.3560 C   0  0  0  0  0  0  0  0  0  0  0  0
   -8.4820    3.1080  -11.5030 C   0  0  0  0  0  0  0  0  0  0  0  0
   -8.4670    3.4650  -10.2280 N   0  0  0  0  0  0  0  0  0  0  0  0
   -8.2220    4.8140  -10.2500 N   0  0  0  0  0  0  0  0  0  0  0  0
   -8.1310    5.5610   -8.9990 C   0  0  0  0  0  0  0  0  0  0  0  0
   -8.0950    5.2890  -11.5120 C   0  0  0  0  0  0  0  0  0  0  0  0
   -5.1010    6.9750  -17.1090 C   0  0  0  0  0  0  0  0  0  0  0  0
  2  1  1  0
  3  2  1  0
  4  3  2  0
  5  4  1  0
  6  5  2  0
  7  6  1  0
  8  7  1  0
  9  8  2  0
 10  9  1  0
 11 10  2  0
 12 11  1  0
 13 12  2  0
 13  8  1  0
 14 13  1  0
 15 14  2  0
 16 14  1  0
 17 16  1  0
 18 17  1  0
 19 18  2  0
 20 19  1  0
 21 20  1  0
 22 17  2  0
 22 20  1  0
 23  7  2  0
 23  3  1  0
M  END
>  <smiles>  (14) 
COc1cncc(-c2ccccc2C(=O)Nc2cnn(C)c2)c1

>  <inchikey>  (14) 
IIBHKLQHOHXRCH-UHFFFAOYSA-N

>  <alias>  (14) 
Z1234a

$$$$
Z1237a
     RDKit          3D

 20 22  0  0  0  0  0  0  0  0999 V2000
   -8.3180    6.7080  -11.3800 C   0  0  0  0  0  0  0  0  0  0  0  0
   -7.9570    4.3930  -17.2740 C   0  0  0  0  0  0  0  0  0  0  0  0
   -8.7270    4.0830  -18.4800 C   0  0  2  0  0  0  0  0  0  0  0  0
  -10.2070    3.8810  -18.3970 C   0  0  0  0  0  0  0  0  0  0  0  0
   -9.3240    2.7210  -18.6300 C   0  0  0  0  0  0  0  0  0  0  0  0
   -5.8800    4.8850  -18.6330 C   0  0  0  0  0  0  0  0  0  0  0  0
   -6.1330    4.9890  -16.0790 C   0  0  0  0  0  0  0  0  0  0  0  0
   -4.7210    5.4000  -15.8540 C   0  0  0  0  0  0  0  0  0  0  0  0
   -8.2840    5.3150  -10.8040 C   0  0  0  0  0  0  0  0  0  0  0  0
   -8.3690    5.1350   -9.4310 C   0  0  0  0  0  0  0  0  0  0  0  0
   -8.2280    2.8600   -9.6430 C   0  0  0  0  0  0  0  0  0  0  0  0
   -8.1420    2.9310  -11.0070 C   0  0  0  0  0  0  0  0  0  0  0  0
   -8.1660    4.1780  -11.6090 C   0  0  0  0  0  0  0  0  0  0  0  0
   -7.0840    4.8940  -13.7250 C   0  0  0  0  0  0  0  0  0  0  0  0
   -7.1710    4.7550  -15.1850 C   0  0  0  0  0  0  0  0  0  0  0  0
   -8.3000    4.3860  -15.9450 C   0  0  0  0  0  0  0  0  0  0  0  0
   -8.3450    3.9260   -8.8470 N   0  0  0  0  0  0  0  0  0  0  0  0
   -8.0770    4.2920  -13.0170 N   0  0  0  0  0  0  0  0  0  0  0  0
   -6.6320    4.7590  -17.3850 N   0  0  0  0  0  0  0  0  0  0  0  0
   -6.1850    5.5380  -13.1960 O   0  0  0  0  0  0  0  0  0  0  0  0
  3  2  1  1
  4  3  1  0
  5  4  1  0
  5  3  1  0
  8  7  1  0
  9  1  1  0
 10  9  2  0
 12 11  1  0
 13 12  2  0
 13  9  1  0
 15 14  1  0
 15  7  2  0
 16  2  2  0
 16 15  1  0
 17 11  2  0
 17 10  1  0
 18 14  1  0
 18 13  1  0
 19  6  1  0
 19  2  1  0
 19  7  1  0
 20 14  2  0
M  END
>  <smiles>  (15) 
Cc1cnccc1NC(=O)c1cc(C2CC2)n(C)c1C

>  <inchikey>  (15) 
SQWXQKIKIAPPEQ-UHFFFAOYSA-N

>  <alias>  (15) 
Z1237a

$$$$
Z1265a
     RDKit          3D

 23 25  0  0  0  0  0  0  0  0999 V2000
   -1.6440    6.3170  -14.4640 C   0  0  0  0  0  0  0  0  0  0  0  0
   -8.0470    4.7700  -16.0500 C   0  0  0  0  0  0  0  0  0  0  0  0
   -7.8880    5.0200  -14.5740 C   0  0  0  0  0  0  0  0  0  0  0  0
   -8.2990    4.1190  -12.3420 C   0  0  0  0  0  0  0  0  0  0  0  0
   -8.6670    3.1220  -11.4380 C   0  0  0  0  0  0  0  0  0  0  0  0
   -7.9860    5.6240   -9.0530 C   0  0  0  0  0  0  0  0  0  0  0  0
   -7.9910    5.2270  -11.5520 C   0  0  0  0  0  0  0  0  0  0  0  0
   -5.4980    6.9880  -17.4790 C   0  0  0  0  0  0  0  0  0  0  0  0
   -4.2960    7.6230  -17.2280 C   0  0  0  0  0  0  0  0  0  0  0  0
   -3.7040    6.0580  -15.6710 C   0  0  0  0  0  0  0  0  0  0  0  0
   -4.8900    5.3590  -15.8640 C   0  0  0  0  0  0  0  0  0  0  0  0
   -5.8220    5.8410  -16.7820 C   0  0  0  0  0  0  0  0  0  0  0  0
   -7.1120    5.1330  -17.0430 C   0  0  0  0  0  0  0  0  0  0  0  0
   -7.4170    4.8310  -18.3720 C   0  0  0  0  0  0  0  0  0  0  0  0
   -8.5860    4.1840  -18.7210 C   0  0  0  0  0  0  0  0  0  0  0  0
   -9.4900    3.8280  -17.7500 C   0  0  0  0  0  0  0  0  0  0  0  0
   -9.2260    4.1180  -16.4280 C   0  0  0  0  0  0  0  0  0  0  0  0
   -8.2490    4.0100  -13.7410 N   0  0  0  0  0  0  0  0  0  0  0  0
   -8.5960    3.5410  -10.1840 N   0  0  0  0  0  0  0  0  0  0  0  0
   -8.1690    4.8390  -10.2700 N   0  0  0  0  0  0  0  0  0  0  0  0
   -3.3990    7.1590  -16.3320 N   0  0  0  0  0  0  0  0  0  0  0  0
   -2.8340    5.5650  -14.7560 O   0  0  0  0  0  0  0  0  0  0  0  0
   -7.4590    6.0790  -14.1470 O   0  0  0  0  0  0  0  0  0  0  0  0
  3  2  1  0
  5  4  1  0
  7  4  2  0
  9  8  2  0
 11 10  1  0
 12  8  1  0
 12 11  2  0
 13  2  1  0
 13 12  1  0
 14 13  2  0
 15 14  1  0
 16 15  2  0
 17 16  1  0
 17  2  2  0
 18  4  1  0
 18  3  1  0
 19  5  2  0
 20  7  1  0
 20 19  1  0
 20  6  1  0
 21  9  1  0
 21 10  2  0
 22 10  1  0
 22  1  1  0
 23  3  2  0
M  END
>  <smiles>  (16) 
COc1cc(-c2ccccc2C(=O)Nc2cnn(C)c2)ccn1

>  <inchikey>  (16) 
AACDVFMAAOMMMJ-UHFFFAOYSA-N

>  <alias>  (16) 
Z1265a

$$$$
Z1271a
     RDKit          3D

 20 22  0  0  0  0  0  0  0  0999 V2000
   -8.1530    6.7530  -11.2330 C   0  0  0  0  0  0  0  0  0  0  0  0
   -7.8390    4.5330  -17.1930 C   0  0  0  0  0  0  0  0  0  0  0  0
   -8.5610    4.1900  -18.4230 C   0  0  1  0  0  0  0  0  0  0  0  0
   -9.0600    2.7900  -18.6070 C   0  0  0  0  0  0  0  0  0  0  0  0
  -10.0260    3.8820  -18.3830 C   0  0  0  0  0  0  0  0  0  0  0  0
   -5.8590    5.4010  -18.5140 C   0  0  0  0  0  0  0  0  0  0  0  0
   -6.0980    5.3130  -15.9640 C   0  0  0  0  0  0  0  0  0  0  0  0
   -4.7520    5.9110  -15.7360 C   0  0  0  0  0  0  0  0  0  0  0  0
   -8.1930    5.3490  -10.6830 C   0  0  0  0  0  0  0  0  0  0  0  0
   -8.2780    5.1420   -9.3150 C   0  0  0  0  0  0  0  0  0  0  0  0
   -8.2770    2.8710   -9.5790 C   0  0  0  0  0  0  0  0  0  0  0  0
   -8.1850    2.9730  -10.9430 C   0  0  0  0  0  0  0  0  0  0  0  0
   -8.1460    4.2340  -11.5190 C   0  0  0  0  0  0  0  0  0  0  0  0
   -6.9910    4.9320  -13.6080 C   0  0  0  0  0  0  0  0  0  0  0  0
   -7.0820    4.8860  -15.0750 C   0  0  0  0  0  0  0  0  0  0  0  0
   -8.1600    4.3970  -15.8610 C   0  0  0  0  0  0  0  0  0  0  0  0
   -8.3200    3.9220   -8.7560 N   0  0  0  0  0  0  0  0  0  0  0  0
   -8.0510    4.4050  -12.9240 N   0  0  0  0  0  0  0  0  0  0  0  0
   -6.5800    5.0970  -17.2790 N   0  0  0  0  0  0  0  0  0  0  0  0
   -6.0160    5.4130  -13.0410 O   0  0  0  0  0  0  0  0  0  0  0  0
  3  2  1  1
  4  3  1  0
  5  4  1  0
  5  3  1  0
  8  7  1  0
  9  1  1  0
 10  9  2  0
 12 11  1  0
 13 12  2  0
 13  9  1  0
 15 14  1  0
 15  7  2  0
 16  2  2  0
 16 15  1  0
 17 11  2  0
 17 10  1  0
 18 14  1  0
 18 13  1  0
 19  6  1  0
 19  2  1  0
 19  7  1  0
 20 14  2  0
M  END
>  <smiles>  (17) 
Cc1cnccc1NC(=O)c1cc(C2CC2)n(C)c1C

>  <inchikey>  (17) 
SQWXQKIKIAPPEQ-UHFFFAOYSA-N

>  <alias>  (17) 
Z1271a

$$$$
Z1274a
     RDKit          3D

 21 23  0  0  0  0  0  0  0  0999 V2000
   -8.1450    6.7390  -11.5830 C   0  0  0  0  0  0  0  0  0  0  0  0
   -8.7500    3.9600  -17.3830 C   0  0  0  0  0  0  0  0  0  0  0  0
   -7.6870    4.1790  -18.2390 C   0  0  0  0  0  0  0  0  0  0  0  0
   -6.4550    4.5940  -17.7420 C   0  0  0  0  0  0  0  0  0  0  0  0
   -5.3310    4.8010  -18.6680 C   0  0  0  0  0  0  0  0  0  0  0  0
   -4.2200    4.8910  -20.5710 C   0  0  0  0  0  0  0  0  0  0  0  0
   -3.2030    5.1480  -19.7450 C   0  0  0  0  0  0  0  0  0  0  0  0
   -6.3090    4.7690  -16.3590 C   0  0  0  0  0  0  0  0  0  0  0  0
   -8.1840    5.3620  -10.9650 C   0  0  0  0  0  0  0  0  0  0  0  0
   -8.1990    5.2270   -9.5850 C   0  0  0  0  0  0  0  0  0  0  0  0
   -8.2540    2.9440   -9.7310 C   0  0  0  0  0  0  0  0  0  0  0  0
   -8.2360    2.9740  -11.0990 C   0  0  0  0  0  0  0  0  0  0  0  0
   -8.1920    4.2010  -11.7470 C   0  0  0  0  0  0  0  0  0  0  0  0
   -7.2110    4.7490  -13.9980 C   0  0  0  0  0  0  0  0  0  0  0  0
   -7.3780    4.5520  -15.4840 C   0  0  0  0  0  0  0  0  0  0  0  0
   -8.5980    4.1430  -16.0220 C   0  0  0  0  0  0  0  0  0  0  0  0
   -8.2380    4.0350   -8.9600 N   0  0  0  0  0  0  0  0  0  0  0  0
   -8.1910    4.2730  -13.1840 N   0  0  0  0  0  0  0  0  0  0  0  0
   -5.4530    4.8310  -19.9790 N   0  0  0  0  0  0  0  0  0  0  0  0
   -6.2170    5.3100  -13.5450 O   0  0  0  0  0  0  0  0  0  0  0  0
   -3.6910    4.9610  -18.1180 S   0  0  0  0  0  0  0  0  0  0  0  0
  3  2  2  0
  4  3  1  0
  5  4  1  0
  7  6  2  0
  8  4  2  0
  9  1  1  0
 10  9  2  0
 12 11  1  0
 13 12  2  0
 13  9  1  0
 15  8  1  0
 15 14  1  0
 16  2  1  0
 16 15  2  0
 17 11  2  0
 17 10  1  0
 18 14  1  0
 18 13  1  0
 19  6  1  0
 19  5  2  0
 20 14  2  0
 21  7  1  0
 21  5  1  0
M  END
>  <smiles>  (18) 
Cc1cnccc1NC(=O)c1cccc(-c2nccs2)c1

>  <inchikey>  (18) 
HFFACLLXIVKSBM-UHFFFAOYSA-N

>  <alias>  (18) 
Z1274a

$$$$
Z1320a
     RDKit          3D

 23 25  0  0  0  0  0  0  0  0999 V2000
   -1.7040    7.4030  -13.9710 C   0  0  0  0  0  0  0  0  0  0  0  0
   -9.1690    4.1890  -16.2320 C   0  0  0  0  0  0  0  0  0  0  0  0
   -7.9850    4.8050  -15.8090 C   0  0  0  0  0  0  0  0  0  0  0  0
   -7.9260    5.2080  -14.3630 C   0  0  0  0  0  0  0  0  0  0  0  0
   -8.1830    4.4350  -12.0420 C   0  0  0  0  0  0  0  0  0  0  0  0
   -8.3420    3.4560  -11.0500 C   0  0  0  0  0  0  0  0  0  0  0  0
   -7.8230    6.1910   -8.8840 C   0  0  0  0  0  0  0  0  0  0  0  0
   -7.9600    5.6190  -11.3380 C   0  0  0  0  0  0  0  0  0  0  0  0
   -4.7300    5.0340  -15.5420 C   0  0  0  0  0  0  0  0  0  0  0  0
   -3.2070    6.7270  -15.7110 C   0  0  0  0  0  0  0  0  0  0  0  0
   -4.0320    7.4500  -16.5760 C   0  0  0  0  0  0  0  0  0  0  0  0
   -5.2470    6.9010  -16.9070 C   0  0  0  0  0  0  0  0  0  0  0  0
   -5.6420    5.6710  -16.3830 C   0  0  0  0  0  0  0  0  0  0  0  0
   -6.9560    5.0460  -16.7440 C   0  0  0  0  0  0  0  0  0  0  0  0
   -7.1590    4.6220  -18.0620 C   0  0  0  0  0  0  0  0  0  0  0  0
   -8.3340    4.0130  -18.4580 C   0  0  0  0  0  0  0  0  0  0  0  0
   -9.3390    3.7980  -17.5430 C   0  0  0  0  0  0  0  0  0  0  0  0
   -8.2400    4.2550  -13.4360 N   0  0  0  0  0  0  0  0  0  0  0  0
   -8.2320    3.9610   -9.8300 N   0  0  0  0  0  0  0  0  0  0  0  0
   -7.9960    5.2970  -10.0250 N   0  0  0  0  0  0  0  0  0  0  0  0
   -3.5290    5.5510  -15.1970 N   0  0  0  0  0  0  0  0  0  0  0  0
   -2.0020    7.2490  -15.3690 O   0  0  0  0  0  0  0  0  0  0  0  0
   -7.6320    6.3510  -14.0490 O   0  0  0  0  0  0  0  0  0  0  0  0
  3  2  2  0
  4  3  1  0
  6  5  1  0
  8  5  2  0
 11 10  1  0
 12 11  2  0
 13  9  2  0
 13 12  1  0
 14  3  1  0
 14 13  1  0
 15 14  2  0
 16 15  1  0
 17 16  2  0
 17  2  1  0
 18  5  1  0
 18  4  1  0
 19  6  2  0
 20 19  1  0
 20  8  1  0
 20  7  1  0
 21  9  1  0
 21 10  2  0
 22 10  1  0
 22  1  1  0
 23  4  2  0
M  END
>  <smiles>  (19) 
COc1ccc(-c2ccccc2C(=O)Nc2cnn(C)c2)cn1

>  <inchikey>  (19) 
FCFUOJDSXTXYGT-UHFFFAOYSA-N

>  <alias>  (19) 
Z1320a

$$$$
Z1342a
     RDKit          3D

 19 21  0  0  0  0  0  0  0  0999 V2000
   -8.0800    5.4480   -8.5940 C   0  0  0  0  0  0  0  0  0  0  0  0
   -4.8810    5.1080  -18.4190 C   0  0  0  0  0  0  0  0  0  0  0  0
   -4.5890    5.4050  -17.0750 C   0  0  0  0  0  0  0  0  0  0  0  0
   -5.5660    5.2370  -16.1350 C   0  0  0  0  0  0  0  0  0  0  0  0
   -6.8500    4.7760  -16.5310 C   0  0  0  0  0  0  0  0  0  0  0  0
   -8.5750    2.9610  -11.0420 C   0  0  0  0  0  0  0  0  0  0  0  0
   -8.2050    5.1350  -11.0940 C   0  0  0  0  0  0  0  0  0  0  0  0
   -8.4170    4.0320  -11.9070 C   0  0  0  0  0  0  0  0  0  0  0  0
   -7.8460    4.8330  -14.1520 C   0  0  0  0  0  0  0  0  0  0  0  0
   -7.9450    4.5670  -15.6300 C   0  0  0  0  0  0  0  0  0  0  0  0
   -9.1390    4.1110  -16.1270 C   0  0  0  0  0  0  0  0  0  0  0  0
   -9.3150    3.8460  -17.4970 C   0  0  0  0  0  0  0  0  0  0  0  0
   -8.2920    4.0370  -18.3730 C   0  0  0  0  0  0  0  0  0  0  0  0
   -7.0390    4.5020  -17.9190 C   0  0  0  0  0  0  0  0  0  0  0  0
   -8.2530    4.6920   -9.8260 N   0  0  0  0  0  0  0  0  0  0  0  0
   -8.4750    3.9650  -13.3080 N   0  0  0  0  0  0  0  0  0  0  0  0
   -6.0490    4.6740  -18.8550 N   0  0  0  0  0  0  0  0  0  0  0  0
   -8.4690    3.3590   -9.7840 N   0  0  0  0  0  0  0  0  0  0  0  0
   -7.2310    5.8130  -13.7390 O   0  0  0  0  0  0  0  0  0  0  0  0
  3  2  2  0
  4  3  1  0
  5  4  2  0
  8  7  2  0
  8  6  1  0
 10  5  1  0
 10  9  1  0
 11 10  2  0
 12 11  1  0
 13 12  2  0
 14 13  1  0
 14  5  1  0
 15  7  1  0
 15  1  1  0
 16  9  1  0
 16  8  1  0
 17 14  2  0
 17  2  1  0
 18  6  2  0
 18 15  1  0
 19  9  2  0
M  END
>  <smiles>  (20) 
Cn1cc(NC(=O)c2cccc3ncccc23)cn1

>  <inchikey>  (20) 
RKNPJCYEHJEUDX-UHFFFAOYSA-N

>  <alias>  (20) 
Z1342a

$$$$
Z1398a
     RDKit          3D

 22 24  0  0  0  0  0  0  0  0999 V2000
   -1.9460    6.9490  -15.6900 C   0  0  0  0  0  0  0  0  0  0  0  0
   -8.0740    4.6110  -16.1120 C   0  0  0  0  0  0  0  0  0  0  0  0
   -7.9500    4.9800  -14.6570 C   0  0  0  0  0  0  0  0  0  0  0  0
   -8.2970    4.2130  -12.3440 C   0  0  0  0  0  0  0  0  0  0  0  0
   -8.6190    3.2520  -11.3710 C   0  0  0  0  0  0  0  0  0  0  0  0
   -7.7400    5.8390   -9.1440 C   0  0  0  0  0  0  0  0  0  0  0  0
   -7.9070    5.3320  -11.6160 C   0  0  0  0  0  0  0  0  0  0  0  0
   -4.9550    4.8990  -15.6790 C   0  0  0  0  0  0  0  0  0  0  0  0
   -3.2870    6.4050  -16.0640 C   0  0  0  0  0  0  0  0  0  0  0  0
   -5.1430    6.4720  -17.4010 C   0  0  0  0  0  0  0  0  0  0  0  0
   -5.7300    5.4190  -16.7090 C   0  0  0  0  0  0  0  0  0  0  0  0
   -7.0620    4.8440  -17.0660 C   0  0  0  0  0  0  0  0  0  0  0  0
   -7.2960    4.4600  -18.3890 C   0  0  0  0  0  0  0  0  0  0  0  0
   -8.4960    3.8990  -18.7770 C   0  0  0  0  0  0  0  0  0  0  0  0
   -9.4860    3.6880  -17.8450 C   0  0  0  0  0  0  0  0  0  0  0  0
   -9.2780    4.0360  -16.5270 C   0  0  0  0  0  0  0  0  0  0  0  0
   -3.9430    6.9750  -17.0840 N   0  0  0  0  0  0  0  0  0  0  0  0
   -8.3540    4.0510  -13.7410 N   0  0  0  0  0  0  0  0  0  0  0  0
   -8.4620    3.7150  -10.1410 N   0  0  0  0  0  0  0  0  0  0  0  0
   -8.0220    5.0000  -10.3070 N   0  0  0  0  0  0  0  0  0  0  0  0
   -3.7560    5.3830  -15.3430 N   0  0  0  0  0  0  0  0  0  0  0  0
   -7.5170    6.0730  -14.3230 O   0  0  0  0  0  0  0  0  0  0  0  0
  3  2  1  0
  5  4  1  0
  7  4  2  0
  9  1  1  0
 11  8  2  0
 11 10  1  0
 12 11  1  0
 12  2  1  0
 13 12  2  0
 14 13  1  0
 15 14  2  0
 16 15  1  0
 16  2  2  0
 17 10  2  0
 17  9  1  0
 18  4  1  0
 18  3  1  0
 19  5  2  0
 20  7  1  0
 20 19  1  0
 20  6  1  0
 21  8  1  0
 21  9  2  0
 22  3  2  0
M  END
>  <smiles>  (21) 
Cc1ncc(-c2ccccc2C(=O)Nc2cnn(C)c2)cn1

>  <inchikey>  (21) 
WYOZJAIIAKMJNP-UHFFFAOYSA-N

>  <alias>  (21) 
Z1398a

$$$$
Z1495a
     RDKit          3D

 20 22  0  0  0  0  0  0  0  0999 V2000
   -8.7360    1.7990   -7.8470 C   0  0  0  0  0  0  0  0  0  0  0  0
   -5.3570    5.3350  -17.9900 C   0  0  0  0  0  0  0  0  0  0  0  0
   -7.3820    4.4500  -18.5970 C   0  0  0  0  0  0  0  0  0  0  0  0
   -7.7700    4.3230  -17.2700 C   0  0  0  0  0  0  0  0  0  0  0  0
   -9.1210    3.7540  -16.9350 C   0  0  0  0  0  0  0  0  0  0  0  0
   -8.3050    3.8900  -12.2830 C   0  0  0  0  0  0  0  0  0  0  0  0
   -8.3900    3.6500  -10.9020 C   0  0  0  0  0  0  0  0  0  0  0  0
   -8.5750    2.8670   -8.8760 C   0  0  0  0  0  0  0  0  0  0  0  0
   -8.4390    4.2190   -8.7550 C   0  0  0  0  0  0  0  0  0  0  0  0
   -8.1650    6.0220  -10.4880 C   0  0  0  0  0  0  0  0  0  0  0  0
   -8.0770    6.2510  -11.8030 C   0  0  0  0  0  0  0  0  0  0  0  0
   -8.1440    5.1920  -12.7210 C   0  0  0  0  0  0  0  0  0  0  0  0
   -8.0480    5.4500  -14.1960 C   0  0  0  0  0  0  0  0  0  0  0  0
   -6.8810    4.7370  -16.2740 C   0  0  0  0  0  0  0  0  0  0  0  0
   -5.6480    5.2480  -16.6520 C   0  0  0  0  0  0  0  0  0  0  0  0
   -8.3250    4.7330  -10.0350 N   0  0  0  0  0  0  0  0  0  0  0  0
   -7.2500    4.6200  -14.9030 N   0  0  0  0  0  0  0  0  0  0  0  0
   -6.1890    4.9450  -18.9610 N   0  0  0  0  0  0  0  0  0  0  0  0
   -8.5470    2.5150  -10.2150 N   0  0  0  0  0  0  0  0  0  0  0  0
   -8.6860    6.3600  -14.7110 O   0  0  0  0  0  0  0  0  0  0  0  0
  4  3  1  0
  5  4  1  0
  7  6  1  0
  8  1  1  0
  9  8  2  0
 11 10  2  0
 12  6  2  0
 12 11  1  0
 13 12  1  0
 14  4  2  0
 15 14  1  0
 15  2  2  0
 16  7  1  0
 16  9  1  0
 16 10  1  0
 17 14  1  0
 17 13  1  0
 18  3  2  0
 18  2  1  0
 19  7  2  0
 19  8  1  0
 20 13  2  0
M  END
>  <smiles>  (22) 
Cc1cn2ccc(C(=O)Nc3ccncc3C)cc2n1

>  <inchikey>  (22) 
FOMZSURVVLMOJM-UHFFFAOYSA-N

>  <alias>  (22) 
Z1495a

$$$$
Z1597a
     RDKit          3D

 21 22  0  0  0  0  0  0  0  0999 V2000
   -4.1900    6.4750  -21.0290 C   0  0  0  0  0  0  0  0  0  0  0  0
   -8.2920    3.1190  -11.4430 C   0  0  0  0  0  0  0  0  0  0  0  0
   -8.1170    3.0720  -10.0850 C   0  0  0  0  0  0  0  0  0  0  0  0
   -8.1230    5.3530   -9.8990 C   0  0  0  0  0  0  0  0  0  0  0  0
   -8.3010    5.5100  -11.2660 C   0  0  0  0  0  0  0  0  0  0  0  0
   -8.4010    6.8960  -11.8580 C   0  0  0  0  0  0  0  0  0  0  0  0
   -6.9650    5.1150  -16.7210 C   0  0  0  0  0  0  0  0  0  0  0  0
   -4.0890    5.2320  -20.2020 C   0  0  0  0  0  0  0  0  0  0  0  0
   -4.8430    5.3200  -18.8940 C   0  0  0  0  0  0  0  0  0  0  0  0
   -7.1340    4.8450  -18.0790 C   0  0  0  0  0  0  0  0  0  0  0  0
   -8.2670    4.1410  -18.4720 C   0  0  0  0  0  0  0  0  0  0  0  0
   -9.0030    3.9620  -16.3110 C   0  0  0  0  0  0  0  0  0  0  0  0
   -7.9120    4.6610  -15.8110 C   0  0  0  0  0  0  0  0  0  0  0  0
   -7.6790    4.9570  -14.3570 C   0  0  0  0  0  0  0  0  0  0  0  0
   -8.3880    4.3590  -12.0580 C   0  0  0  0  0  0  0  0  0  0  0  0
   -6.1890    5.2950  -19.0270 N   0  0  0  0  0  0  0  0  0  0  0  0
   -9.1920    3.7030  -17.6100 N   0  0  0  0  0  0  0  0  0  0  0  0
   -8.5730    4.4660  -13.4670 N   0  0  0  0  0  0  0  0  0  0  0  0
   -8.0320    4.1520   -9.3040 N   0  0  0  0  0  0  0  0  0  0  0  0
   -4.2760    5.4160  -17.8120 O   0  0  0  0  0  0  0  0  0  0  0  0
   -6.7010    5.6150  -14.0160 O   0  0  0  0  0  0  0  0  0  0  0  0
  3  2  2  0
  5  4  1  0
  6  5  1  0
  8  1  1  0
  9  8  1  0
 10  7  2  0
 11 10  1  0
 13  7  1  0
 13 12  2  0
 14 13  1  0
 15  2  1  0
 15  5  2  0
 16 10  1  0
 16  9  1  0
 17 11  2  0
 17 12  1  0
 18 15  1  0
 18 14  1  0
 19  4  2  0
 19  3  1  0
 20  9  2  0
 21 14  2  0
M  END
>  <smiles>  (23) 
CCC(=O)Nc1cncc(C(=O)Nc2ccncc2C)c1

>  <inchikey>  (23) 
ZVXOEORUBXTFDQ-UHFFFAOYSA-N

>  <alias>  (23) 
Z1597a

$$$$
Z1715a
     RDKit          3D

 17 18  0  0  0  0  0  0  0  0999 V2000
   -9.5980    4.1480  -18.4940 C   0  0  0  0  0  0  0  0  0  0  0  0
   -6.0650    4.9780  -17.8630 C   0  0  0  0  0  0  0  0  0  0  0  0
   -4.9910    5.3080  -20.1560 C   0  0  0  0  0  0  0  0  0  0  0  0
   -8.0720    4.3880  -13.4900 C   0  0  0  0  0  0  0  0  0  0  0  0
   -8.0390    2.9950  -12.9160 C   0  0  0  0  0  0  0  0  0  0  0  0
   -8.3170    4.4320  -17.7670 C   0  0  0  0  0  0  0  0  0  0  0  0
   -8.2980    4.3800  -16.3560 C   0  0  0  0  0  0  0  0  0  0  0  0
   -7.1240    4.6470  -15.6970 C   0  0  0  0  0  0  0  0  0  0  0  0
   -5.9490    4.9500  -16.4440 C   0  0  0  0  0  0  0  0  0  0  0  0
   -4.7010    5.2240  -15.8330 C   0  0  0  0  0  0  0  0  0  0  0  0
   -3.6150    5.5090  -16.5950 C   0  0  0  0  0  0  0  0  0  0  0  0
   -3.7320    5.5340  -18.0000 C   0  0  0  0  0  0  0  0  0  0  0  0
   -4.9140    5.2810  -18.6540 C   0  0  0  0  0  0  0  0  0  0  0  0
   -7.2460    4.7160  -18.4990 N   0  0  0  0  0  0  0  0  0  0  0  0
   -8.4330    2.8630  -11.6560 N   0  0  0  0  0  0  0  0  0  0  0  0
   -6.9550    4.6310  -14.3430 O   0  0  0  0  0  0  0  0  0  0  0  0
   -7.6640    2.0480  -13.6190 O   0  0  0  0  0  0  0  0  0  0  0  0
  5  4  1  0
  6  1  1  0
  7  6  2  0
  8  7  1  0
  9  2  1  0
  9  8  2  0
 10  9  1  0
 11 10  2  0
 12 11  1  0
 13  2  1  0
 13  3  1  0
 13 12  2  0
 14  6  1  0
 14  2  2  0
 15  5  1  0
 16  8  1  0
 16  4  1  0
 17  5  2  0
M  END
>  <smiles>  (24) 
Cc1cc(OCC(N)=O)c2cccc(C)c2n1

>  <inchikey>  (24) 
DHSQEZOXPZSKGH-UHFFFAOYSA-N

>  <alias>  (24) 
Z1715a

$$$$
Z1728a
     RDKit          3D

 22 23  0  0  0  0  0  0  0  0999 V2000
   -4.9100    4.0260  -12.9480 C   0  0  0  0  0  0  0  0  0  0  0  0
   -9.9750    4.3350  -18.2480 C   0  0  0  0  0  0  0  0  0  0  0  0
   -8.8850    4.8470  -18.8860 C   0  0  0  0  0  0  0  0  0  0  0  0
   -7.6180    4.8190  -18.2660 C   0  0  0  0  0  0  0  0  0  0  0  0
   -6.4620    5.3320  -18.8900 C   0  0  0  0  0  0  0  0  0  0  0  0
   -5.2720    5.2740  -18.2360 C   0  0  0  0  0  0  0  0  0  0  0  0
   -5.2340    4.6970  -16.9520 C   0  0  0  0  0  0  0  0  0  0  0  0
   -7.4890    4.2600  -16.9770 C   0  0  0  0  0  0  0  0  0  0  0  0
   -5.4540    2.9070  -12.1200 C   0  0  0  0  0  0  0  0  0  0  0  0
   -7.8340    2.8570  -12.7210 C   0  0  1  0  0  0  0  0  0  0  0  0
   -8.2280    3.5600  -11.4190 C   0  0  0  0  0  0  0  0  0  0  0  0
   -9.0890    2.6930  -10.5110 C   0  0  0  0  0  0  0  0  0  0  0  0
   -8.6060    2.6090   -9.0720 C   0  0  0  0  0  0  0  0  0  0  0  0
   -7.9540    3.7780  -13.9500 C   0  0  0  0  0  0  0  0  0  0  0  0
   -8.6510    3.7350  -16.3240 C   0  0  0  0  0  0  0  0  0  0  0  0
   -9.8630    3.7750  -16.9670 C   0  0  0  0  0  0  0  0  0  0  0  0
   -6.5150    2.2510  -12.6020 N   0  0  0  0  0  0  0  0  0  0  0  0
   -8.8590    1.3140   -8.4330 N   0  0  0  0  0  0  0  0  0  0  0  0
   -8.4500    3.1800  -15.0540 N   0  0  0  0  0  0  0  0  0  0  0  0
   -6.2860    4.2060  -16.3270 N   0  0  0  0  0  0  0  0  0  0  0  0
   -4.9730    2.6250  -11.0250 O   0  0  0  0  0  0  0  0  0  0  0  0
   -7.6170    4.9540  -13.9130 O   0  0  0  0  0  0  0  0  0  0  0  0
  3  2  2  0
  4  3  1  0
  5  4  2  0
  6  5  1  0
  7  6  2  0
  8  4  1  0
  9  1  1  0
 10 11  1  1
 12 11  1  0
 13 12  1  0
 14 10  1  0
 15  8  1  0
 16  2  1  0
 16 15  2  0
 17 10  1  0
 17  9  1  0
 18 13  1  0
 19 15  1  0
 19 14  1  0
 20  8  2  0
 20  7  1  0
 21  9  2  0
 22 14  2  0
M  END
>  <smiles>  (25) 
CC(=O)N[C@@H](CCCN)C(=O)Nc1cccc2cccnc12

>  <inchikey>  (25) 
XHHRODCTSKSZNG-AWEZNQCLSA-N

>  <alias>  (25) 
Z1728a

$$$$
Z1729a
     RDKit          3D

 19 21  0  0  0  0  0  0  0  0999 V2000
   -7.1900    3.0160  -13.5950 C   0  0  0  0  0  0  0  0  0  0  0  0
   -6.9590    4.4550  -16.4680 C   0  0  0  0  0  0  0  0  0  0  0  0
   -7.5600    2.7680  -12.1390 C   0  0  1  0  0  0  0  0  0  0  0  0
   -6.3130    2.3100  -11.3720 C   0  0  0  0  0  0  0  0  0  0  0  0
   -6.5060    2.3930   -9.8710 C   0  0  0  0  0  0  0  0  0  0  0  0
   -8.6030    3.6210  -10.0080 C   0  0  0  0  0  0  0  0  0  0  0  0
   -8.1860    3.9680  -11.4250 C   0  0  0  0  0  0  0  0  0  0  0  0
   -8.0550    4.0480  -15.6390 C   0  0  0  0  0  0  0  0  0  0  0  0
   -9.2460    3.6900  -16.2260 C   0  0  0  0  0  0  0  0  0  0  0  0
   -9.4010    3.7340  -17.6190 C   0  0  0  0  0  0  0  0  0  0  0  0
   -8.3720    4.1220  -18.4270 C   0  0  0  0  0  0  0  0  0  0  0  0
   -7.1310    4.4950  -17.8710 C   0  0  0  0  0  0  0  0  0  0  0  0
   -6.0410    4.8980  -18.6710 C   0  0  0  0  0  0  0  0  0  0  0  0
   -4.8650    5.2310  -18.0720 C   0  0  0  0  0  0  0  0  0  0  0  0
   -4.7780    5.1650  -16.6670 C   0  0  0  0  0  0  0  0  0  0  0  0
   -7.8390    4.0100  -14.2510 N   0  0  0  0  0  0  0  0  0  0  0  0
   -5.7720    4.7950  -15.8780 N   0  0  0  0  0  0  0  0  0  0  0  0
   -7.9320    2.4020   -9.5290 N   0  0  0  0  0  0  0  0  0  0  0  0
   -6.3530    2.3120  -14.1380 O   0  0  0  0  0  0  0  0  0  0  0  0
  3  1  1  6
  4  3  1  0
  5  4  1  0
  7  3  1  0
  7  6  1  0
  8  2  1  0
  9  8  2  0
 10  9  1  0
 11 10  2  0
 12 11  1  0
 12  2  2  0
 13 12  1  0
 14 13  2  0
 15 14  1  0
 16  8  1  0
 16  1  1  0
 17  2  1  0
 17 15  2  0
 18  6  1  0
 18  5  1  0
 19  1  2  0
M  END
>  <smiles>  (26) 
O=C(Nc1cccc2cccnc12)C1CCNCC1

>  <inchikey>  (26) 
SKJCEUNRNVCDAV-UHFFFAOYSA-N

>  <alias>  (26) 
Z1729a

$$$$
Z1752a
     RDKit          3D

 22 23  0  0  0  0  0  0  0  0999 V2000
   -8.6150    4.4460   -8.9850 C   0  0  0  0  0  0  0  0  0  0  0  0
   -8.8730    4.3530  -17.3580 C   0  0  0  0  0  0  0  0  0  0  0  0
   -7.8430    4.5870  -18.2230 C   0  0  0  0  0  0  0  0  0  0  0  0
   -6.5410    4.8260  -17.7350 C   0  0  0  0  0  0  0  0  0  0  0  0
   -6.3140    4.8220  -16.3410 C   0  0  0  0  0  0  0  0  0  0  0  0
   -4.0820    5.2660  -16.6470 C   0  0  0  0  0  0  0  0  0  0  0  0
   -4.2190    5.2890  -18.0490 C   0  0  0  0  0  0  0  0  0  0  0  0
   -5.4470    5.0690  -18.5930 C   0  0  0  0  0  0  0  0  0  0  0  0
   -7.8250    3.2720   -9.4690 C   0  0  0  0  0  0  0  0  0  0  0  0
   -7.7720    4.2370  -11.7480 C   0  0  1  0  0  0  0  0  0  0  0  0
   -7.1700    5.6260  -11.5190 C   0  0  0  0  0  0  0  0  0  0  0  0
   -7.9920    6.7630  -12.1110 C   0  0  0  0  0  0  0  0  0  0  0  0
   -7.2070    8.0590  -12.2410 C   0  0  0  0  0  0  0  0  0  0  0  0
   -7.4480    3.6780  -13.1550 C   0  0  0  0  0  0  0  0  0  0  0  0
   -7.4090    4.5770  -15.4530 C   0  0  0  0  0  0  0  0  0  0  0  0
   -8.6620    4.3470  -15.9680 C   0  0  0  0  0  0  0  0  0  0  0  0
   -7.3400    3.3040  -10.7180 N   0  0  0  0  0  0  0  0  0  0  0  0
   -6.3320    8.3550  -11.1020 N   0  0  0  0  0  0  0  0  0  0  0  0
   -7.0900    4.5870  -14.0890 N   0  0  0  0  0  0  0  0  0  0  0  0
   -5.0760    5.0440  -15.8060 N   0  0  0  0  0  0  0  0  0  0  0  0
   -7.6210    2.3050   -8.7400 O   0  0  0  0  0  0  0  0  0  0  0  0
   -7.5090    2.4760  -13.3830 O   0  0  0  0  0  0  0  0  0  0  0  0
  3  2  2  0
  4  3  1  0
  5  4  2  0
  7  6  1  0
  8  4  1  0
  8  7  2  0
  9  1  1  0
 10 11  1  1
 12 11  1  0
 13 12  1  0
 14 10  1  0
 15  5  1  0
 16  2  1  0
 16 15  2  0
 17 10  1  0
 17  9  1  0
 18 13  1  0
 19 15  1  0
 19 14  1  0
 20  5  1  0
 20  6  2  0
 21  9  2  0
 22 14  2  0
M  END
>  <smiles>  (27) 
CC(=O)N[C@@H](CCCN)C(=O)Nc1cccc2cccnc12

>  <inchikey>  (27) 
XHHRODCTSKSZNG-AWEZNQCLSA-N

>  <alias>  (27) 
Z1752a

$$$$
Z1753a
     RDKit          3D

 21 23  0  0  0  0  0  0  0  0999 V2000
   -3.1580    5.4080  -15.3510 C   0  0  0  0  0  0  0  0  0  0  0  0
   -8.0460    2.7490  -11.7980 C   0  0  2  0  0  0  0  0  0  0  0  0
   -8.4390    4.0080  -11.0030 C   0  0  0  0  0  0  0  0  0  0  0  0
   -7.9080    3.2890   -9.7580 C   0  0  2  0  0  0  0  0  0  0  0  0
   -6.9870    2.5090  -10.7020 C   0  0  0  0  0  0  0  0  0  0  0  0
   -5.7030    5.1990  -18.1270 C   0  0  0  0  0  0  0  0  0  0  0  0
   -5.8100    5.3980  -19.6200 C   0  0  0  0  0  0  0  0  0  0  0  0
   -4.5230    5.3870  -17.4650 C   0  0  0  0  0  0  0  0  0  0  0  0
   -4.4530    5.1870  -16.0720 C   0  0  0  0  0  0  0  0  0  0  0  0
   -6.7020    4.6280  -15.9710 C   0  0  0  0  0  0  0  0  0  0  0  0
   -6.8510    4.8030  -17.3740 C   0  0  0  0  0  0  0  0  0  0  0  0
   -8.1210    4.5770  -17.9640 C   0  0  0  0  0  0  0  0  0  0  0  0
   -9.1840    4.1960  -17.2030 C   0  0  0  0  0  0  0  0  0  0  0  0
   -9.0500    4.0240  -15.8170 C   0  0  0  0  0  0  0  0  0  0  0  0
   -7.8440    4.2420  -15.1940 C   0  0  0  0  0  0  0  0  0  0  0  0
   -7.5360    2.8470  -13.2130 C   0  0  0  0  0  0  0  0  0  0  0  0
   -5.5030    4.8260  -15.3490 N   0  0  0  0  0  0  0  0  0  0  0  0
   -7.6430    4.0550  -13.8190 N   0  0  0  0  0  0  0  0  0  0  0  0
   -8.8360    2.5300   -8.9440 N   0  0  0  0  0  0  0  0  0  0  0  0
   -7.1110    1.8470  -13.7880 O   0  0  0  0  0  0  0  0  0  0  0  0
   -4.5650    5.6750  -20.2550 O   0  0  0  0  0  0  0  0  0  0  0  0
  3  2  1  0
  4  3  1  0
  5  2  1  0
  5  4  1  0
  7  6  1  0
  8  6  2  0
  9  8  1  0
  9  1  1  0
 11  6  1  0
 11 10  2  0
 12 11  1  0
 13 12  2  0
 14 13  1  0
 15 14  2  0
 15 10  1  0
  2 16  1  6
 17 10  1  0
 17  9  2  0
 18 16  1  0
 18 15  1  0
  4 19  1  6
 20 16  2  0
 21  7  1  0
M  END
>  <smiles>  (28) 
Cc1cc(CO)c2cccc(NC(=O)[C@H]3C[C@H](N)C3)c2n1

>  <inchikey>  (28) 
PWESDAOWBFUXFF-UMSPYCQHSA-N

>  <alias>  (28) 
Z1753a

$$$$
Z2094a
     RDKit          3D

 24 27  0  0  0  0  0  0  0  0999 V2000
   -7.6160    2.0880  -13.9940 O   0  0  0  0  0  0  0  0  0  0  0  0
   -7.5410    3.3030  -13.8360 C   0  0  0  0  0  0  0  0  0  0  0  0
   -7.7490    4.1880  -15.0130 C   0  0  0  0  0  0  0  0  0  0  0  0
   -8.7410    3.9930  -15.9280 C   0  0  0  0  0  0  0  0  0  0  0  0
   -8.4630    4.9260  -17.3390 S   0  0  0  0  0  0  0  0  0  0  0  0
   -7.0350    5.5710  -16.5800 C   0  0  0  0  0  0  0  0  0  0  0  0
   -6.0410    6.4570  -17.3090 C   0  0  1  0  0  0  0  0  0  0  0  0
   -4.5960    6.0800  -16.9310 C   0  0  0  0  0  0  0  0  0  0  0  0
   -3.5660    6.6090  -17.9480 C   0  0  0  0  0  0  0  0  0  0  0  0
   -3.8890    6.1390  -19.3570 C   0  0  0  0  0  0  0  0  0  0  0  0
   -5.2610    5.6310  -19.5170 N   0  0  0  0  0  0  0  0  0  0  0  0
   -6.2380    6.4890  -18.8260 C   0  0  0  0  0  0  0  0  0  0  0  0
   -6.8970    5.2350  -15.3310 N   0  0  0  0  0  0  0  0  0  0  0  0
   -7.2200    3.7910  -12.6320 N   0  0  0  0  0  0  0  0  0  0  0  0
   -5.9590    3.4510  -11.9550 C   0  0  0  0  0  0  0  0  0  0  0  0
   -5.8460    4.5190  -10.8960 C   0  0  0  0  0  0  0  0  0  0  0  0
   -7.2890    4.7160  -10.4550 C   0  0  2  0  0  0  0  0  0  0  0  0
   -7.7490    3.8950   -9.2660 C   0  0  0  0  0  0  0  0  0  0  0  0
   -7.4450    4.3020   -7.9750 C   0  0  0  0  0  0  0  0  0  0  0  0
   -7.8830    3.5660   -6.9020 C   0  0  0  0  0  0  0  0  0  0  0  0
   -8.6200    2.4440   -7.1450 C   0  0  0  0  0  0  0  0  0  0  0  0
   -8.9480    2.0290   -8.3740 N   0  0  0  0  0  0  0  0  0  0  0  0
   -8.5130    2.7550   -9.4200 C   0  0  0  0  0  0  0  0  0  0  0  0
   -8.1070    4.5760  -11.7530 C   0  0  0  0  0  0  0  0  0  0  0  0
  2  1  2  0
  3  2  1  0
  4  3  2  0
  5  4  1  0
  6  5  1  0
  7  6  1  1
  8  7  1  0
  9  8  1  0
 10  9  1  0
 11 10  1  0
 12  7  1  0
 12 11  1  0
 13  3  1  0
 13  6  2  0
 14  2  1  0
 15 14  1  0
 16 15  1  0
 17 16  1  0
 17 18  1  1
 19 18  2  0
 20 19  1  0
 21 20  2  0
 22 21  1  0
 23 22  2  0
 23 18  1  0
 24 14  1  0
 24 17  1  0
M  END
>  <smiles>  (29) 
O=C(c1csc([C@H]2CCCNC2)n1)N1CC[C@H](c2cccnc2)C1

>  <inchikey>  (29) 
HJDDUPBBJQPCON-GJZGRUSLSA-N

>  <alias>  (29) 
Z2094a

$$$$
Z2262a
     RDKit          3D

 21 23  0  0  0  0  0  0  0  0999 V2000
   -8.5160    7.8340  -11.7740 C   0  0  0  0  0  0  0  0  0  0  0  0
   -8.3650    6.3570  -11.6400 C   0  0  0  0  0  0  0  0  0  0  0  0
   -8.3480    5.8020  -10.4290 N   0  0  0  0  0  0  0  0  0  0  0  0
   -8.2210    4.4700  -10.5820 C   0  0  0  0  0  0  0  0  0  0  0  0
   -8.1560    3.5710   -9.3860 C   0  0  1  0  0  0  0  0  0  0  0  0
   -9.5150    3.0550   -8.9530 C   0  0  0  0  0  0  0  0  0  0  0  0
   -9.4500    2.3570   -7.5930 C   0  0  0  0  0  0  0  0  0  0  0  0
   -8.1130    1.6660   -7.4050 C   0  0  0  0  0  0  0  0  0  0  0  0
   -7.4910    1.2690   -8.6810 N   0  0  0  0  0  0  0  0  0  0  0  0
   -7.1780    2.4170   -9.5630 C   0  0  0  0  0  0  0  0  0  0  0  0
   -8.1600    4.1740  -11.9260 N   0  0  0  0  0  0  0  0  0  0  0  0
   -8.2260    5.3720  -12.6010 C   0  0  0  0  0  0  0  0  0  0  0  0
   -8.2090    5.5130  -14.0620 C   0  0  0  0  0  0  0  0  0  0  0  0
   -7.7160    6.5090  -14.5750 O   0  0  0  0  0  0  0  0  0  0  0  0
   -8.8390    4.5420  -14.7680 N   0  0  0  0  0  0  0  0  0  0  0  0
   -8.9440    4.4560  -16.1650 C   0  0  0  0  0  0  0  0  0  0  0  0
  -10.0090    3.8260  -16.8050 C   0  0  0  0  0  0  0  0  0  0  0  0
  -10.0290    3.8070  -18.1790 C   0  0  0  0  0  0  0  0  0  0  0  0
   -8.9760    4.3410  -18.8830 C   0  0  0  0  0  0  0  0  0  0  0  0
   -7.9580    4.9260  -18.1790 C   0  0  0  0  0  0  0  0  0  0  0  0
   -7.9130    4.9810  -16.8380 N   0  0  0  0  0  0  0  0  0  0  0  0
  2  1  1  0
  3  2  1  0
  4  3  2  0
  5  4  1  6
  6  5  1  0
  7  6  1  0
  8  7  1  0
  9  8  1  0
 10  9  1  0
 10  5  1  0
 11  4  1  0
 12 11  1  0
 12  2  2  0
 13 12  1  0
 14 13  2  0
 15 13  1  0
 16 15  1  0
 17 16  2  0
 18 17  1  0
 19 18  2  0
 20 19  1  0
 21 20  2  0
 21 16  1  0
M  END
>  <smiles>  (30) 
Cc1nc([C@H]2CCCNC2)[nH]c1C(=O)Nc1ccccn1

>  <inchikey>  (30) 
XCVYJDDLPGWFGF-NSHDSACASA-N

>  <alias>  (30) 
Z2262a

$$$$
Z2992a
     RDKit          3D

 29 31  0  0  0  0  0  0  0  0999 V2000
   -3.8120    5.2690  -17.6420 O   0  0  0  0  0  0  0  0  0  0  0  0
   -4.3500    5.1390  -18.7230 C   0  0  0  0  0  0  0  0  0  0  0  0
   -3.7070    5.2170  -19.9080 O   0  0  0  0  0  0  0  0  0  0  0  0
   -2.2860    5.5260  -19.8460 C   0  0  0  0  0  0  0  0  0  0  0  0
   -2.1210    6.9910  -20.1320 C   0  0  0  0  0  0  0  0  0  0  0  0
   -2.1780    7.9250  -19.1070 C   0  0  0  0  0  0  0  0  0  0  0  0
   -2.0920    9.2800  -19.3800 C   0  0  0  0  0  0  0  0  0  0  0  0
   -1.9360    9.7170  -20.6760 C   0  0  0  0  0  0  0  0  0  0  0  0
   -1.8680    8.8020  -21.7020 C   0  0  0  0  0  0  0  0  0  0  0  0
   -1.9600    7.4460  -21.4330 C   0  0  0  0  0  0  0  0  0  0  0  0
   -5.6740    4.9390  -18.9530 N   0  0  0  0  0  0  0  0  0  0  0  0
   -6.6990    4.7700  -17.9910 C   0  0  0  0  0  0  0  0  0  0  0  0
   -7.9450    4.4300  -18.5040 C   0  0  0  0  0  0  0  0  0  0  0  0
   -8.9910    4.2250  -17.6300 C   0  0  0  0  0  0  0  0  0  0  0  0
  -10.5830    3.9570  -18.2810 Cl  0  0  0  0  0  0  0  0  0  0  0  0
   -8.8290    4.3090  -16.2600 C   0  0  0  0  0  0  0  0  0  0  0  0
   -6.5240    4.8960  -16.6160 C   0  0  0  0  0  0  0  0  0  0  0  0
   -7.5870    4.6660  -15.7450 C   0  0  0  0  0  0  0  0  0  0  0  0
   -7.3390    4.8870  -14.2850 C   0  0  0  0  0  0  0  0  0  0  0  0
   -6.3350    5.4820  -13.9040 O   0  0  0  0  0  0  0  0  0  0  0  0
   -8.2910    4.4220  -13.4340 N   0  0  0  0  0  0  0  0  0  0  0  0
   -8.3430    4.5970  -12.0220 C   0  0  0  0  0  0  0  0  0  0  0  0
   -8.0810    5.8500  -11.4830 C   0  0  0  0  0  0  0  0  0  0  0  0
   -8.1520    6.0370  -10.1150 C   0  0  0  0  0  0  0  0  0  0  0  0
   -8.5040    4.9890   -9.2820 C   0  0  0  0  0  0  0  0  0  0  0  0
   -8.6930    3.5450  -11.1760 C   0  0  0  0  0  0  0  0  0  0  0  0
   -8.8010    3.7380   -9.8010 C   0  0  0  0  0  0  0  0  0  0  0  0
   -9.3570    2.6490   -8.9000 C   0  0  0  0  0  0  0  0  0  0  0  0
   -8.3160    1.7870   -8.3570 N   0  0  0  0  0  0  0  0  0  0  0  0
  2  1  2  0
  3  2  1  0
  4  3  1  0
  5  4  1  0
  6  5  2  0
  7  6  1  0
  8  7  2  0
  9  8  1  0
 10  9  2  0
 10  5  1  0
 11  2  1  0
 12 11  1  0
 13 12  2  0
 14 13  1  0
 15 14  1  0
 16 14  2  0
 17 12  1  0
 18 17  2  0
 18 16  1  0
 19 18  1  0
 20 19  2  0
 21 19  1  0
 22 21  1  0
 23 22  2  0
 24 23  1  0
 25 24  2  0
 26 22  1  0
 27 26  2  0
 27 25  1  0
 28 27  1  0
 29 28  1  0
M  END
>  <smiles>  (31) 
NCc1cccc(NC(=O)c2cc(Cl)cc(NC(=O)OCc3ccccc3)c2)c1

>  <inchikey>  (31) 
PEGKGNYEDPNPGK-UHFFFAOYSA-N

>  <alias>  (31) 
Z2992a

$$$$
Z3021a
     RDKit          3D

 30 32  0  0  0  0  0  0  0  0999 V2000
   -5.7940    4.8500  -20.8760 O   0  0  0  0  0  0  0  0  0  0  0  0
   -5.3290    5.2840  -19.8390 C   0  0  0  0  0  0  0  0  0  0  0  0
   -4.4920    6.3440  -19.7560 O   0  0  0  0  0  0  0  0  0  0  0  0
   -4.1090    6.9850  -21.0110 C   0  0  0  0  0  0  0  0  0  0  0  0
   -3.0670    8.0310  -20.7240 C   0  0  0  0  0  0  0  0  0  0  0  0
   -2.7730    9.0200  -21.6530 C   0  0  0  0  0  0  0  0  0  0  0  0
   -1.8190    9.9890  -21.3780 C   0  0  0  0  0  0  0  0  0  0  0  0
   -1.1470    9.9780  -20.1740 C   0  0  0  0  0  0  0  0  0  0  0  0
   -1.4250    8.9980  -19.2460 C   0  0  0  0  0  0  0  0  0  0  0  0
   -2.3790    8.0300  -19.5170 C   0  0  0  0  0  0  0  0  0  0  0  0
   -5.4930    4.7560  -18.6000 N   0  0  0  0  0  0  0  0  0  0  0  0
   -6.6720    4.7610  -17.8180 C   0  0  0  0  0  0  0  0  0  0  0  0
   -7.9040    4.5100  -18.4090 C   0  0  0  0  0  0  0  0  0  0  0  0
   -9.0120    4.3600  -17.6010 C   0  0  0  0  0  0  0  0  0  0  0  0
  -10.5640    4.1050  -18.3440 Cl  0  0  0  0  0  0  0  0  0  0  0  0
   -8.9330    4.4540  -16.2240 C   0  0  0  0  0  0  0  0  0  0  0  0
   -6.5810    4.8990  -16.4370 C   0  0  0  0  0  0  0  0  0  0  0  0
   -7.7100    4.7520  -15.6360 C   0  0  0  0  0  0  0  0  0  0  0  0
   -7.5400    5.0560  -14.1820 C   0  0  0  0  0  0  0  0  0  0  0  0
   -6.6160    5.7640  -13.7980 O   0  0  0  0  0  0  0  0  0  0  0  0
   -8.4480    4.5040  -13.3360 N   0  0  0  0  0  0  0  0  0  0  0  0
   -8.4810    4.6380  -11.9180 C   0  0  0  0  0  0  0  0  0  0  0  0
   -8.2460    5.8820  -11.3470 C   0  0  0  0  0  0  0  0  0  0  0  0
   -8.2760    6.0230   -9.9680 C   0  0  0  0  0  0  0  0  0  0  0  0
   -8.5710    4.9350   -9.1610 C   0  0  0  0  0  0  0  0  0  0  0  0
   -8.7620    3.5480  -11.0980 C   0  0  0  0  0  0  0  0  0  0  0  0
   -8.8490    3.6940   -9.7150 C   0  0  0  0  0  0  0  0  0  0  0  0
   -9.4130    2.5800   -8.8630 C   0  0  0  0  0  0  0  0  0  0  0  0
   -8.4910    2.1660   -7.7420 C   0  0  0  0  0  0  0  0  0  0  0  0
   -7.2270    1.7480   -8.3520 N   0  0  0  0  0  0  0  0  0  0  0  0
  2  1  2  0
  3  2  1  0
  4  3  1  0
  5  4  1  0
  6  5  2  0
  7  6  1  0
  8  7  2  0
  9  8  1  0
 10  9  2  0
 10  5  1  0
 11  2  1  0
 12 11  1  0
 13 12  2  0
 14 13  1  0
 15 14  1  0
 16 14  2  0
 17 12  1  0
 18 17  2  0
 18 16  1  0
 19 18  1  0
 20 19  2  0
 21 19  1  0
 22 21  1  0
 23 22  2  0
 24 23  1  0
 25 24  2  0
 26 22  1  0
 27 26  2  0
 27 25  1  0
 28 27  1  0
 29 28  1  0
 30 29  1  0
M  END
>  <smiles>  (32) 
NCCc1cccc(NC(=O)c2cc(Cl)cc(NC(=O)OCc3ccccc3)c2)c1

>  <inchikey>  (32) 
SZPWXNMMDXBSSA-UHFFFAOYSA-N

>  <alias>  (32) 
Z3021a

$$$$
Z3024a
     RDKit          3D

 30 32  0  0  0  0  0  0  0  0999 V2000
   -3.7840    4.8930  -17.0010 O   0  0  0  0  0  0  0  0  0  0  0  0
   -4.1530    4.8300  -18.1580 C   0  0  0  0  0  0  0  0  0  0  0  0
   -3.3250    4.8510  -19.2220 O   0  0  0  0  0  0  0  0  0  0  0  0
   -1.9270    5.1310  -18.9490 C   0  0  0  0  0  0  0  0  0  0  0  0
   -1.7670    6.5920  -19.2430 C   0  0  0  0  0  0  0  0  0  0  0  0
   -2.8010    7.4710  -18.9660 C   0  0  0  0  0  0  0  0  0  0  0  0
   -2.7480    8.7860  -19.3940 C   0  0  0  0  0  0  0  0  0  0  0  0
   -1.6580    9.2380  -20.0940 C   0  0  0  0  0  0  0  0  0  0  0  0
   -0.6100    8.3850  -20.3470 C   0  0  0  0  0  0  0  0  0  0  0  0
   -0.6580    7.0710  -19.9200 C   0  0  0  0  0  0  0  0  0  0  0  0
   -5.4350    4.8850  -18.6030 N   0  0  0  0  0  0  0  0  0  0  0  0
   -6.6110    4.8510  -17.8220 C   0  0  0  0  0  0  0  0  0  0  0  0
   -7.7950    4.4580  -18.4370 C   0  0  0  0  0  0  0  0  0  0  0  0
   -8.9150    4.2610  -17.6570 C   0  0  0  0  0  0  0  0  0  0  0  0
  -10.3980    3.7730  -18.4250 Cl  0  0  0  0  0  0  0  0  0  0  0  0
   -8.8950    4.4400  -16.2880 C   0  0  0  0  0  0  0  0  0  0  0  0
   -6.5820    5.0740  -16.4520 C   0  0  0  0  0  0  0  0  0  0  0  0
   -7.7160    4.8550  -15.6790 C   0  0  0  0  0  0  0  0  0  0  0  0
   -7.5960    5.0560  -14.2040 C   0  0  0  0  0  0  0  0  0  0  0  0
   -6.7950    5.8660  -13.7420 O   0  0  0  0  0  0  0  0  0  0  0  0
   -8.3860    4.2720  -13.4340 N   0  0  0  0  0  0  0  0  0  0  0  0
   -8.4240    4.2390  -12.0200 C   0  0  0  0  0  0  0  0  0  0  0  0
   -8.3030    5.4040  -11.2710 C   0  0  0  0  0  0  0  0  0  0  0  0
   -8.3040    5.3470   -9.8910 C   0  0  0  0  0  0  0  0  0  0  0  0
   -8.5570    3.0260  -11.3600 C   0  0  0  0  0  0  0  0  0  0  0  0
   -8.5560    2.9830   -9.9780 C   0  0  0  0  0  0  0  0  0  0  0  0
   -8.4310    4.1400   -9.2220 C   0  0  0  0  0  0  0  0  0  0  0  0
   -8.4260    4.0920   -7.7120 C   0  0  0  0  0  0  0  0  0  0  0  0
   -8.7150    2.6900   -7.1330 C   0  0  0  0  0  0  0  0  0  0  0  0
   -8.3300    2.6180   -5.7240 N   0  0  0  0  0  0  0  0  0  0  0  0
  2  1  2  0
  3  2  1  0
  4  3  1  0
  5  4  1  0
  6  5  2  0
  7  6  1  0
  8  7  2  0
  9  8  1  0
 10  9  2  0
 10  5  1  0
 11  2  1  0
 12 11  1  0
 13 12  2  0
 14 13  1  0
 15 14  1  0
 16 14  2  0
 17 12  1  0
 18 17  2  0
 18 16  1  0
 19 18  1  0
 20 19  2  0
 21 19  1  0
 22 21  1  0
 23 22  2  0
 24 23  1  0
 25 22  1  0
 26 25  2  0
 27 26  1  0
 27 24  2  0
 28 27  1  0
 29 28  1  0
 30 29  1  0
M  END
>  <smiles>  (33) 
NCCc1ccc(NC(=O)c2cc(Cl)cc(NC(=O)OCc3ccccc3)c2)cc1

>  <inchikey>  (33) 
QDSOVDRCRGAQAG-UHFFFAOYSA-N

>  <alias>  (33) 
Z3024a

$$$$
Z3028a
     RDKit          3D

 30 32  0  0  0  0  0  0  0  0999 V2000
   -3.5440    5.2080  -16.7820 O   0  0  0  0  0  0  0  0  0  0  0  0
   -4.0110    5.4670  -17.8720 C   0  0  0  0  0  0  0  0  0  0  0  0
   -3.2850    5.6840  -18.9850 O   0  0  0  0  0  0  0  0  0  0  0  0
   -1.8440    5.6240  -18.8600 C   0  0  0  0  0  0  0  0  0  0  0  0
   -1.3220    5.7140  -20.2620 C   0  0  0  0  0  0  0  0  0  0  0  0
   -0.0800    6.2690  -20.5370 C   0  0  0  0  0  0  0  0  0  0  0  0
    0.3980    6.3220  -21.8370 C   0  0  0  0  0  0  0  0  0  0  0  0
   -0.3590    5.8270  -22.8770 C   0  0  0  0  0  0  0  0  0  0  0  0
   -1.5990    5.2850  -22.6200 C   0  0  0  0  0  0  0  0  0  0  0  0
   -2.0780    5.2290  -21.3210 C   0  0  0  0  0  0  0  0  0  0  0  0
   -5.3220    5.6260  -18.1760 N   0  0  0  0  0  0  0  0  0  0  0  0
   -6.4300    5.1660  -17.4340 C   0  0  0  0  0  0  0  0  0  0  0  0
   -7.5360    4.7000  -18.1370 C   0  0  0  0  0  0  0  0  0  0  0  0
   -8.6810    4.3800  -17.4380 C   0  0  0  0  0  0  0  0  0  0  0  0
  -10.1090    3.9310  -18.3270 Cl  0  0  0  0  0  0  0  0  0  0  0  0
   -8.7470    4.4710  -16.0600 C   0  0  0  0  0  0  0  0  0  0  0  0
   -6.4780    5.2670  -16.0490 C   0  0  0  0  0  0  0  0  0  0  0  0
   -7.6340    4.9230  -15.3570 C   0  0  0  0  0  0  0  0  0  0  0  0
   -7.6140    5.0870  -13.8700 C   0  0  0  0  0  0  0  0  0  0  0  0
   -6.9380    5.9670  -13.3430 O   0  0  0  0  0  0  0  0  0  0  0  0
   -8.3200    4.1710  -13.1650 N   0  0  0  0  0  0  0  0  0  0  0  0
   -8.3570    4.0130  -11.7580 C   0  0  0  0  0  0  0  0  0  0  0  0
   -8.5080    5.0780  -10.8770 C   0  0  0  0  0  0  0  0  0  0  0  0
   -8.5570    4.8520   -9.5120 C   0  0  0  0  0  0  0  0  0  0  0  0
   -8.2530    2.7270  -11.2460 C   0  0  0  0  0  0  0  0  0  0  0  0
   -8.3090    2.5130   -9.8820 C   0  0  0  0  0  0  0  0  0  0  0  0
   -8.4650    3.5670   -8.9960 C   0  0  0  0  0  0  0  0  0  0  0  0
   -8.5160    3.3190   -7.4970 C   0  0  2  0  0  0  0  0  0  0  0  0
   -9.3400    2.1200   -7.2640 N   0  0  0  0  0  0  0  0  0  0  0  0
   -8.9960    4.5010   -6.6620 C   0  0  0  0  0  0  0  0  0  0  0  0
  2  1  2  0
  3  2  1  0
  4  3  1  0
  5  4  1  0
  6  5  2  0
  7  6  1  0
  8  7  2  0
  9  8  1  0
 10  9  2  0
 10  5  1  0
 11  2  1  0
 12 11  1  0
 13 12  2  0
 14 13  1  0
 15 14  1  0
 16 14  2  0
 17 12  1  0
 18 17  2  0
 18 16  1  0
 19 18  1  0
 20 19  2  0
 21 19  1  0
 22 21  1  0
 23 22  2  0
 24 23  1  0
 25 22  1  0
 26 25  2  0
 27 26  1  0
 27 24  2  0
 28 27  1  0
 29 28  1  0
 28 30  1  1
M  END
>  <smiles>  (34) 
C[C@@H](N)c1ccc(NC(=O)c2cc(Cl)cc(NC(=O)OCc3ccccc3)c2)cc1

>  <inchikey>  (34) 
APASUVIWXFRLJS-OAHLLOKOSA-N

>  <alias>  (34) 
Z3028a

$$$$
Z3059a
     RDKit          3D

 30 33  0  0  0  0  0  0  0  0999 V2000
   -6.5040    5.3570  -13.0810 O   0  0  0  0  0  0  0  0  0  0  0  0
   -7.4210    4.7230  -13.6000 C   0  0  0  0  0  0  0  0  0  0  0  0
   -8.3740    4.0780  -12.8780 N   0  0  0  0  0  0  0  0  0  0  0  0
   -8.4760    4.0460  -11.4590 C   0  0  0  0  0  0  0  0  0  0  0  0
   -8.7070    2.8510  -10.7790 C   0  0  0  0  0  0  0  0  0  0  0  0
   -8.7830    2.8390   -9.3880 C   0  0  0  0  0  0  0  0  0  0  0  0
   -9.0960    1.7030   -8.4610 C   0  0  0  0  0  0  0  0  0  0  0  0
   -8.8340    2.2960   -7.1570 N   0  0  0  0  0  0  0  0  0  0  0  0
   -8.6910    3.7530   -7.1970 C   0  0  0  0  0  0  0  0  0  0  0  0
   -8.6000    4.0140   -8.6710 C   0  0  0  0  0  0  0  0  0  0  0  0
   -8.3700    5.2050   -9.3500 C   0  0  0  0  0  0  0  0  0  0  0  0
   -8.3150    5.2250  -10.7340 C   0  0  0  0  0  0  0  0  0  0  0  0
   -7.5070    4.5960  -15.0890 C   0  0  0  0  0  0  0  0  0  0  0  0
   -8.6390    4.2220  -15.8070 C   0  0  0  0  0  0  0  0  0  0  0  0
   -8.5760    4.1840  -17.1890 C   0  0  0  0  0  0  0  0  0  0  0  0
  -10.0220    3.8260  -18.0910 Cl  0  0  0  0  0  0  0  0  0  0  0  0
   -7.4140    4.4740  -17.8790 C   0  0  0  0  0  0  0  0  0  0  0  0
   -6.3370    4.9120  -15.7700 C   0  0  0  0  0  0  0  0  0  0  0  0
   -6.2810    4.8370  -17.1590 C   0  0  0  0  0  0  0  0  0  0  0  0
   -5.0800    5.0700  -17.8700 N   0  0  0  0  0  0  0  0  0  0  0  0
   -3.8260    5.1920  -17.3590 C   0  0  0  0  0  0  0  0  0  0  0  0
   -3.5170    5.2070  -16.1840 O   0  0  0  0  0  0  0  0  0  0  0  0
   -2.9580    5.3890  -18.3730 O   0  0  0  0  0  0  0  0  0  0  0  0
   -1.5940    5.7430  -18.0010 C   0  0  0  0  0  0  0  0  0  0  0  0
   -1.3720    7.1560  -18.4590 C   0  0  0  0  0  0  0  0  0  0  0  0
   -0.3780    7.4590  -19.3790 C   0  0  0  0  0  0  0  0  0  0  0  0
   -0.3210    8.7110  -19.9680 C   0  0  0  0  0  0  0  0  0  0  0  0
   -1.2470    9.6750  -19.6390 C   0  0  0  0  0  0  0  0  0  0  0  0
   -2.2090    9.4030  -18.6910 C   0  0  0  0  0  0  0  0  0  0  0  0
   -2.2680    8.1530  -18.0990 C   0  0  0  0  0  0  0  0  0  0  0  0
  2  1  2  0
  3  2  1  0
  4  3  1  0
  5  4  2  0
  6  5  1  0
  7  6  1  0
  8  7  1  0
  9  8  1  0
 10  9  1  0
 10  6  2  0
 11 10  1  0
 12  4  1  0
 12 11  2  0
 13  2  1  0
 14 13  2  0
 15 14  1  0
 16 15  1  0
 17 15  2  0
 18 13  1  0
 19 17  1  0
 19 18  2  0
 20 19  1  0
 21 20  1  0
 22 21  2  0
 23 21  1  0
 24 23  1  0
 25 24  1  0
 26 25  2  0
 27 26  1  0
 28 27  2  0
 29 28  1  0
 30 29  2  0
 30 25  1  0
M  END
>  <smiles>  (35) 
O=C(Nc1cc(Cl)cc(C(=O)Nc2ccc3c(c2)CNC3)c1)OCc1ccccc1

>  <inchikey>  (35) 
KFKAFUTTZFLTOK-UHFFFAOYSA-N

>  <alias>  (35) 
Z3059a

$$$$
Z3060a
     RDKit          3D

 20 21  0  0  0  0  0  0  0  0999 V2000
  -10.8550    4.1170  -18.2370 Cl  0  0  0  0  0  0  0  0  0  0  0  0
   -9.2870    4.3680  -17.5220 C   0  0  0  0  0  0  0  0  0  0  0  0
   -9.1790    4.4590  -16.1490 C   0  0  0  0  0  0  0  0  0  0  0  0
   -8.1900    4.4910  -18.3470 C   0  0  0  0  0  0  0  0  0  0  0  0
   -6.9390    4.7310  -17.7940 C   0  0  0  0  0  0  0  0  0  0  0  0
   -5.7410    4.9500  -18.6770 C   0  0  0  0  0  0  0  0  0  0  0  0
   -6.1100    5.7730  -19.8280 N   0  0  0  0  0  0  0  0  0  0  0  0
   -6.8150    4.8170  -16.4110 C   0  0  0  0  0  0  0  0  0  0  0  0
   -7.9300    4.6920  -15.5860 C   0  0  0  0  0  0  0  0  0  0  0  0
   -7.7010    4.9370  -14.1280 C   0  0  0  0  0  0  0  0  0  0  0  0
   -6.7800    5.6610  -13.7540 O   0  0  0  0  0  0  0  0  0  0  0  0
   -8.5640    4.3380  -13.2680 N   0  0  0  0  0  0  0  0  0  0  0  0
   -8.5780    4.4650  -11.8460 C   0  0  0  0  0  0  0  0  0  0  0  0
   -8.2920    5.6920  -11.2550 C   0  0  0  0  0  0  0  0  0  0  0  0
   -8.3270    5.8170   -9.8760 C   0  0  0  0  0  0  0  0  0  0  0  0
   -8.6580    4.7310   -9.0830 C   0  0  0  0  0  0  0  0  0  0  0  0
   -8.8930    3.3750  -11.0380 C   0  0  0  0  0  0  0  0  0  0  0  0
   -8.9500    3.5010   -9.6540 C   0  0  0  0  0  0  0  0  0  0  0  0
   -9.3740    2.3580   -8.8050 C   0  0  0  0  0  0  0  0  0  0  0  0
   -8.2310    1.8380   -8.0650 N   0  0  0  0  0  0  0  0  0  0  0  0
  2  1  1  0
  3  2  2  0
  4  2  1  0
  5  4  2  0
  6  5  1  0
  7  6  1  0
  8  5  1  0
  9  8  2  0
  9  3  1  0
 10  9  1  0
 11 10  2  0
 12 10  1  0
 13 12  1  0
 14 13  2  0
 15 14  1  0
 16 15  2  0
 17 13  1  0
 18 17  2  0
 18 16  1  0
 19 18  1  0
 20 19  1  0
M  END
>  <smiles>  (36) 
NCc1cccc(NC(=O)c2cc(Cl)cc(CN)c2)c1

>  <inchikey>  (36) 
BAOPFONCQOHBOZ-UHFFFAOYSA-N

>  <alias>  (36) 
Z3060a

$$$$
Z3093a
     RDKit          3D

 26 29  0  0  0  0  0  0  0  0999 V2000
   -6.7170    5.7290  -13.8950 O   0  0  0  0  0  0  0  0  0  0  0  0
   -7.6080    4.9390  -14.2050 C   0  0  0  0  0  0  0  0  0  0  0  0
   -8.4010    4.2970  -13.2840 N   0  0  0  0  0  0  0  0  0  0  0  0
   -8.4090    4.4500  -11.8670 C   0  0  0  0  0  0  0  0  0  0  0  0
   -8.0650    5.6680  -11.2910 C   0  0  0  0  0  0  0  0  0  0  0  0
   -8.1020    5.8130   -9.9140 C   0  0  0  0  0  0  0  0  0  0  0  0
   -8.4920    4.7560   -9.1090 C   0  0  0  0  0  0  0  0  0  0  0  0
   -8.7970    3.3920  -11.0490 C   0  0  0  0  0  0  0  0  0  0  0  0
   -8.8630    3.5410   -9.6660 C   0  0  0  0  0  0  0  0  0  0  0  0
   -9.4240    2.4270   -8.7850 C   0  0  0  0  0  0  0  0  0  0  0  0
   -8.3390    1.5850   -8.3060 N   0  0  0  0  0  0  0  0  0  0  0  0
   -7.9180    4.6600  -15.6650 C   0  0  0  0  0  0  0  0  0  0  0  0
   -6.9790    4.8520  -16.7300 C   0  0  0  0  0  0  0  0  0  0  0  0
   -7.3770    4.5590  -18.0260 N   0  0  0  0  0  0  0  0  0  0  0  0
   -8.6470    4.1040  -18.3320 C   0  0  0  0  0  0  0  0  0  0  0  0
   -9.5410    3.9410  -17.3390 C   0  0  0  0  0  0  0  0  0  0  0  0
   -9.1790    4.2130  -15.9970 C   0  0  0  0  0  0  0  0  0  0  0  0
   -5.7270    5.2690  -16.7000 N   0  0  0  0  0  0  0  0  0  0  0  0
   -5.3010    5.2520  -18.0180 C   0  0  0  0  0  0  0  0  0  0  0  0
   -6.2960    4.8110  -18.8410 C   0  0  0  0  0  0  0  0  0  0  0  0
   -3.9200    5.7260  -18.3570 C   0  0  0  0  0  0  0  0  0  0  0  0
   -3.4780    6.8720  -17.5610 N   0  0  0  0  0  0  0  0  0  0  0  0
   -4.3810    8.0260  -17.6590 C   0  0  0  0  0  0  0  0  0  0  0  0
   -3.5780    9.1650  -17.0680 C   0  0  0  0  0  0  0  0  0  0  0  0
   -2.1250    8.7950  -17.3690 C   0  0  0  0  0  0  0  0  0  0  0  0
   -2.1770    7.4010  -17.9880 C   0  0  0  0  0  0  0  0  0  0  0  0
  2  1  2  0
  3  2  1  0
  4  3  1  0
  5  4  2  0
  6  5  1  0
  7  6  2  0
  8  4  1  0
  9  8  2  0
  9  7  1  0
 10  9  1  0
 11 10  1  0
 12  2  1  0
 13 12  1  0
 14 13  1  0
 15 14  1  0
 16 15  2  0
 17 16  1  0
 17 12  2  0
 18 13  2  0
 19 18  1  0
 20 14  1  0
 20 19  2  0
 21 19  1  0
 22 21  1  0
 23 22  1  0
 24 23  1  0
 25 24  1  0
 26 25  1  0
 26 22  1  0
M  END
>  <smiles>  (37) 
NCc1cccc(NC(=O)c2cccn3cc(CN4CCCC4)nc23)c1

>  <inchikey>  (37) 
CXFHCSHWVXWGOY-UHFFFAOYSA-N

>  <alias>  (37) 
Z3093a

$$$$
Z3094a
     RDKit          3D

 23 25  0  0  0  0  0  0  0  0999 V2000
   -6.4120    5.3630  -13.8710 O   0  0  0  0  0  0  0  0  0  0  0  0
   -7.4290    4.7820  -14.2430 C   0  0  0  0  0  0  0  0  0  0  0  0
   -8.3510    4.2820  -13.3770 N   0  0  0  0  0  0  0  0  0  0  0  0
   -8.3370    4.3590  -11.9580 C   0  0  0  0  0  0  0  0  0  0  0  0
   -8.7570    3.2780  -11.1900 C   0  0  0  0  0  0  0  0  0  0  0  0
   -8.7930    3.3570   -9.7990 C   0  0  0  0  0  0  0  0  0  0  0  0
   -9.3630    2.2410   -8.9830 C   0  0  0  0  0  0  0  0  0  0  0  0
   -8.2920    1.6480   -8.1930 N   0  0  0  0  0  0  0  0  0  0  0  0
   -8.3670    4.5250   -9.1880 C   0  0  0  0  0  0  0  0  0  0  0  0
   -7.9480    5.6060   -9.9440 C   0  0  0  0  0  0  0  0  0  0  0  0
   -7.9350    5.5310  -11.3270 C   0  0  0  0  0  0  0  0  0  0  0  0
   -7.7170    4.5950  -15.7080 C   0  0  0  0  0  0  0  0  0  0  0  0
   -8.9680    4.1110  -16.0930 C   0  0  0  0  0  0  0  0  0  0  0  0
   -9.3010    3.8940  -17.4260 C   0  0  0  0  0  0  0  0  0  0  0  0
   -8.3880    4.1430  -18.4380 C   0  0  0  0  0  0  0  0  0  0  0  0
   -7.1420    4.6310  -18.0670 C   0  0  0  0  0  0  0  0  0  0  0  0
   -6.7970    4.8670  -16.7340 C   0  0  0  0  0  0  0  0  0  0  0  0
   -5.5020    5.3750  -16.6800 N   0  0  0  0  0  0  0  0  0  0  0  0
   -6.0340    4.9980  -18.8130 N   0  0  0  0  0  0  0  0  0  0  0  0
   -5.0980    5.4270  -17.9320 C   0  0  0  0  0  0  0  0  0  0  0  0
   -3.7120    5.8860  -18.2920 C   0  0  2  0  0  0  0  0  0  0  0  0
   -3.6420    6.4700  -19.6850 C   0  0  0  0  0  0  0  0  0  0  0  0
   -2.6910    4.7860  -18.0830 C   0  0  0  0  0  0  0  0  0  0  0  0
  2  1  2  0
  3  2  1  0
  4  3  1  0
  5  4  2  0
  6  5  1  0
  7  6  1  0
  8  7  1  0
  9  6  2  0
 10  9  1  0
 11  4  1  0
 11 10  2  0
 12  2  1  0
 13 12  2  0
 14 13  1  0
 15 14  2  0
 16 15  1  0
 17 16  2  0
 17 12  1  0
 18 17  1  0
 19 16  1  0
 20 19  1  0
 20 18  2  0
 21 20  1  0
 21 22  1  6
 23 21  1  0
M  END
>  <smiles>  (38) 
CC(C)c1nc2c(C(=O)Nc3cccc(CN)c3)cccc2[nH]1

>  <inchikey>  (38) 
YESKCYOWTDUTOG-UHFFFAOYSA-N

>  <alias>  (38) 
Z3094a

$$$$
Z3264a
     RDKit          3D

 23 25  0  0  0  0  0  0  0  0999 V2000
   -6.8830    5.8620  -13.9120 O   0  0  0  0  0  0  0  0  0  0  0  0
   -7.6960    5.0380  -14.3230 C   0  0  0  0  0  0  0  0  0  0  0  0
   -7.8650    4.7900  -15.7870 C   0  0  0  0  0  0  0  0  0  0  0  0
   -9.1140    4.4640  -16.3040 C   0  0  0  0  0  0  0  0  0  0  0  0
   -9.2580    4.3180  -17.6690 C   0  0  0  0  0  0  0  0  0  0  0  0
  -10.8490    4.0330  -18.3270 Cl  0  0  0  0  0  0  0  0  0  0  0  0
   -8.1880    4.4520  -18.5290 C   0  0  0  0  0  0  0  0  0  0  0  0
   -6.7790    4.9360  -16.6480 C   0  0  0  0  0  0  0  0  0  0  0  0
   -6.9300    4.7610  -18.0180 C   0  0  0  0  0  0  0  0  0  0  0  0
   -5.7370    4.8910  -18.9330 C   0  0  0  0  0  0  0  0  0  0  0  0
   -5.8440    6.1160  -19.7320 N   0  0  0  0  0  0  0  0  0  0  0  0
   -8.4980    4.3170  -13.5040 N   0  0  0  0  0  0  0  0  0  0  0  0
   -8.5260    4.3810  -12.0850 C   0  0  0  0  0  0  0  0  0  0  0  0
   -8.4770    5.6160  -11.4440 C   0  0  0  0  0  0  0  0  0  0  0  0
   -8.4740    5.6900  -10.0550 C   0  0  0  0  0  0  0  0  0  0  0  0
   -8.4840    4.5120   -9.3100 C   0  0  0  0  0  0  0  0  0  0  0  0
   -8.5390    3.2840   -9.9470 C   0  0  0  0  0  0  0  0  0  0  0  0
   -8.5640    3.2140  -11.3320 C   0  0  0  0  0  0  0  0  0  0  0  0
   -8.6070    7.0040   -9.3880 C   0  0  0  0  0  0  0  0  0  0  0  0
   -8.5350    7.1440   -8.0680 N   0  0  0  0  0  0  0  0  0  0  0  0
   -8.8930    8.4160   -7.9350 N   0  0  0  0  0  0  0  0  0  0  0  0
   -9.1460    9.0270   -9.0690 N   0  0  0  0  0  0  0  0  0  0  0  0
   -8.9570    8.1410  -10.0260 N   0  0  0  0  0  0  0  0  0  0  0  0
  2  1  2  0
  3  2  1  0
  4  3  2  0
  5  4  1  0
  6  5  1  0
  7  5  2  0
  8  3  1  0
  9  8  2  0
  9  7  1  0
 10  9  1  0
 11 10  1  0
 12  2  1  0
 13 12  1  0
 14 13  2  0
 15 14  1  0
 16 15  2  0
 17 16  1  0
 18 13  1  0
 18 17  2  0
 19 15  1  0
 20 19  1  0
 21 20  2  0
 22 21  1  0
 23 22  1  0
 23 19  2  0
M  END
>  <smiles>  (39) 
NCc1cc(Cl)cc(C(=O)Nc2cccc(-c3nn[nH]n3)c2)c1

>  <inchikey>  (39) 
GXTYEIDOIJJIOR-UHFFFAOYSA-N

>  <alias>  (39) 
Z3264a

$$$$
Z3400a
     RDKit          3D

 22 25  0  0  0  0  0  0  0  0999 V2000
   -6.5720    5.2710  -13.0780 O   0  0  0  0  0  0  0  0  0  0  0  0
   -7.4470    4.6060  -13.6260 C   0  0  0  0  0  0  0  0  0  0  0  0
   -8.3590    3.8990  -12.9180 N   0  0  0  0  0  0  0  0  0  0  0  0
   -8.4860    3.8990  -11.4970 C   0  0  0  0  0  0  0  0  0  0  0  0
   -8.3430    5.0880  -10.7800 C   0  0  0  0  0  0  0  0  0  0  0  0
   -8.4360    5.0960   -9.3950 C   0  0  0  0  0  0  0  0  0  0  0  0
   -8.6500    3.8930   -8.7270 C   0  0  0  0  0  0  0  0  0  0  0  0
   -8.8280    2.7130   -9.4370 C   0  0  0  0  0  0  0  0  0  0  0  0
   -8.7040    2.6900  -10.8220 C   0  0  0  0  0  0  0  0  0  0  0  0
   -9.1290    1.5940   -8.4800 C   0  0  0  0  0  0  0  0  0  0  0  0
   -8.7060    2.1690   -7.1900 N   0  0  0  0  0  0  0  0  0  0  0  0
   -8.8570    3.6360   -7.2620 C   0  0  0  0  0  0  0  0  0  0  0  0
   -7.4680    4.5130  -15.1260 C   0  0  0  0  0  0  0  0  0  0  0  0
   -8.6090    4.1910  -15.8540 C   0  0  0  0  0  0  0  0  0  0  0  0
   -8.5830    4.1650  -17.2380 C   0  0  0  0  0  0  0  0  0  0  0  0
  -10.1990    3.8450  -18.1910 Br  0  0  0  0  0  0  0  0  0  0  0  0
   -7.4510    4.4290  -17.9710 C   0  0  0  0  0  0  0  0  0  0  0  0
   -6.2870    4.7250  -17.2700 C   0  0  0  0  0  0  0  0  0  0  0  0
   -5.0090    4.9580  -17.7160 N   0  0  0  0  0  0  0  0  0  0  0  0
   -4.1840    5.1110  -16.6310 C   0  0  0  0  0  0  0  0  0  0  0  0
   -4.9100    5.0170  -15.4800 C   0  0  0  0  0  0  0  0  0  0  0  0
   -6.2650    4.7500  -15.8600 C   0  0  0  0  0  0  0  0  0  0  0  0
  2  1  2  0
  3  2  1  0
  4  3  1  0
  5  4  2  0
  6  5  1  0
  7  6  2  0
  8  7  1  0
  9  4  1  0
  9  8  2  0
 10  8  1  0
 11 10  1  0
 12 11  1  0
 12  7  1  0
 13  2  1  0
 14 13  2  0
 15 14  1  0
 16 15  1  0
 17 15  2  0
 18 17  1  0
 19 18  1  0
 20 19  1  0
 21 20  2  0
 22 18  2  0
 22 13  1  0
 22 21  1  0
M  END
>  <smiles>  (40) 
O=C(Nc1ccc2c(c1)CNC2)c1cc(Br)cc2[nH]ccc12

>  <inchikey>  (40) 
BXMKAELKOMHUTP-UHFFFAOYSA-N

>  <alias>  (40) 
Z3400a

$$$$
Z3441a
     RDKit          3D

 22 25  0  0  0  0  0  0  0  0999 V2000
   -6.8080    5.6580  -13.3980 O   0  0  0  0  0  0  0  0  0  0  0  0
   -7.5970    4.8280  -13.8450 C   0  0  0  0  0  0  0  0  0  0  0  0
   -8.3040    3.9750  -13.0650 N   0  0  0  0  0  0  0  0  0  0  0  0
   -8.4340    4.0090  -11.6520 C   0  0  0  0  0  0  0  0  0  0  0  0
   -8.1980    5.1950  -10.9580 C   0  0  0  0  0  0  0  0  0  0  0  0
   -8.3010    5.2310   -9.5780 C   0  0  0  0  0  0  0  0  0  0  0  0
   -8.6090    4.0590   -8.8950 C   0  0  0  0  0  0  0  0  0  0  0  0
   -8.8660    2.8810   -9.5830 C   0  0  0  0  0  0  0  0  0  0  0  0
   -8.7390    2.8260  -10.9650 C   0  0  0  0  0  0  0  0  0  0  0  0
   -9.2220    1.8010   -8.6020 C   0  0  0  0  0  0  0  0  0  0  0  0
   -8.7110    2.3640   -7.3430 N   0  0  0  0  0  0  0  0  0  0  0  0
   -8.8050    3.8280   -7.4220 C   0  0  0  0  0  0  0  0  0  0  0  0
   -7.7620    4.6810  -15.3280 C   0  0  0  0  0  0  0  0  0  0  0  0
   -8.9570    4.2280  -15.8740 C   0  0  0  0  0  0  0  0  0  0  0  0
   -9.0970    4.1070  -17.2410 C   0  0  0  0  0  0  0  0  0  0  0  0
  -10.2950    3.7020  -17.7520 F   0  0  0  0  0  0  0  0  0  0  0  0
   -8.0830    4.3570  -18.1280 C   0  0  0  0  0  0  0  0  0  0  0  0
   -6.8690    4.7920  -17.6160 C   0  0  0  0  0  0  0  0  0  0  0  0
   -5.6860    5.0730  -18.2080 N   0  0  0  0  0  0  0  0  0  0  0  0
   -4.7510    5.4380  -17.2890 N   0  0  0  0  0  0  0  0  0  0  0  0
   -5.3270    5.3420  -16.1030 C   0  0  0  0  0  0  0  0  0  0  0  0
   -6.6790    4.9370  -16.2300 C   0  0  0  0  0  0  0  0  0  0  0  0
  2  1  2  0
  3  2  1  0
  4  3  1  0
  5  4  2  0
  6  5  1  0
  7  6  2  0
  8  7  1  0
  9  4  1  0
  9  8  2  0
 10  8  1  0
 11 10  1  0
 12 11  1  0
 12  7  1  0
 13  2  1  0
 14 13  2  0
 15 14  1  0
 16 15  1  0
 17 15  2  0
 18 17  1  0
 19 18  1  0
 20 19  1  0
 21 20  2  0
 22 18  2  0
 22 13  1  0
 22 21  1  0
M  END
>  <smiles>  (41) 
O=C(Nc1ccc2c(c1)CNC2)c1cc(F)cc2[nH]ncc12

>  <inchikey>  (41) 
UHVFGIOFMTYLJX-UHFFFAOYSA-N

>  <alias>  (41) 
Z3441a

$$$$
Z3452a
     RDKit          3D

 22 25  0  0  0  0  0  0  0  0999 V2000
   -6.7350    5.4690  -13.3770 O   0  0  0  0  0  0  0  0  0  0  0  0
   -7.5840    4.7080  -13.8370 C   0  0  0  0  0  0  0  0  0  0  0  0
   -8.3680    3.9240  -13.0590 N   0  0  0  0  0  0  0  0  0  0  0  0
   -8.4800    3.9640  -11.6400 C   0  0  0  0  0  0  0  0  0  0  0  0
   -8.2220    5.1430  -10.9420 C   0  0  0  0  0  0  0  0  0  0  0  0
   -8.3020    5.1730   -9.5590 C   0  0  0  0  0  0  0  0  0  0  0  0
   -8.5870    3.9960   -8.8770 C   0  0  0  0  0  0  0  0  0  0  0  0
   -8.8500    2.8210   -9.5660 C   0  0  0  0  0  0  0  0  0  0  0  0
   -8.7700    2.7800  -10.9510 C   0  0  0  0  0  0  0  0  0  0  0  0
   -9.1820    1.7310   -8.5860 C   0  0  0  0  0  0  0  0  0  0  0  0
   -8.6680    2.2970   -7.3320 N   0  0  0  0  0  0  0  0  0  0  0  0
   -8.7790    3.7600   -7.4050 C   0  0  0  0  0  0  0  0  0  0  0  0
   -7.7510    4.5900  -15.3240 C   0  0  0  0  0  0  0  0  0  0  0  0
   -8.9490    4.1630  -15.8890 C   0  0  0  0  0  0  0  0  0  0  0  0
   -9.0920    4.1060  -17.2610 C   0  0  0  0  0  0  0  0  0  0  0  0
  -10.2880    3.7280  -17.7950 F   0  0  0  0  0  0  0  0  0  0  0  0
   -8.0700    4.3850  -18.1300 C   0  0  0  0  0  0  0  0  0  0  0  0
   -6.8640    4.8000  -17.5850 C   0  0  0  0  0  0  0  0  0  0  0  0
   -5.6600    5.1390  -18.1030 N   0  0  0  0  0  0  0  0  0  0  0  0
   -4.7920    5.4360  -17.1290 N   0  0  0  0  0  0  0  0  0  0  0  0
   -5.3910    5.2850  -15.9750 N   0  0  0  0  0  0  0  0  0  0  0  0
   -6.6950    4.9010  -16.2010 C   0  0  0  0  0  0  0  0  0  0  0  0
  2  1  2  0
  3  2  1  0
  4  3  1  0
  5  4  2  0
  6  5  1  0
  7  6  2  0
  8  7  1  0
  9  4  1  0
  9  8  2  0
 10  8  1  0
 11 10  1  0
 12 11  1  0
 12  7  1  0
 13  2  1  0
 14 13  2  0
 15 14  1  0
 16 15  1  0
 17 15  2  0
 18 17  1  0
 19 18  1  0
 20 19  1  0
 21 20  2  0
 22 18  2  0
 22 13  1  0
 22 21  1  0
M  END
>  <smiles>  (42) 
O=C(Nc1ccc2c(c1)CNC2)c1cc(F)cc2[nH]nnc12

>  <inchikey>  (42) 
DHEAQALHKCHLOS-UHFFFAOYSA-N

>  <alias>  (42) 
Z3452a

$$$$
Z3466a
     RDKit          3D

 21 24  0  0  0  0  0  0  0  0999 V2000
   -6.6970    5.5610  -13.3410 O   0  0  0  0  0  0  0  0  0  0  0  0
   -7.5350    4.7780  -13.7830 C   0  0  0  0  0  0  0  0  0  0  0  0
   -8.2770    3.9510  -13.0040 N   0  0  0  0  0  0  0  0  0  0  0  0
   -8.4050    3.9330  -11.5890 C   0  0  0  0  0  0  0  0  0  0  0  0
   -8.1830    5.0990  -10.8620 C   0  0  0  0  0  0  0  0  0  0  0  0
   -8.3040    5.0980   -9.4820 C   0  0  0  0  0  0  0  0  0  0  0  0
   -8.5860    3.9040   -8.8300 C   0  0  0  0  0  0  0  0  0  0  0  0
   -8.7990    2.7370   -9.5490 C   0  0  0  0  0  0  0  0  0  0  0  0
   -8.6940    2.7270  -10.9340 C   0  0  0  0  0  0  0  0  0  0  0  0
   -9.1380    1.6290   -8.5930 C   0  0  0  0  0  0  0  0  0  0  0  0
   -8.6310    2.1690   -7.3240 N   0  0  0  0  0  0  0  0  0  0  0  0
   -8.7880    3.6300   -7.3680 C   0  0  0  0  0  0  0  0  0  0  0  0
   -7.7480    4.6670  -15.2630 C   0  0  0  0  0  0  0  0  0  0  0  0
   -8.9910    4.2870  -15.7480 C   0  0  0  0  0  0  0  0  0  0  0  0
   -9.2650    4.1970  -17.0580 N   0  0  0  0  0  0  0  0  0  0  0  0
   -8.2940    4.3790  -17.9530 C   0  0  0  0  0  0  0  0  0  0  0  0
   -7.0090    4.7250  -17.5710 C   0  0  0  0  0  0  0  0  0  0  0  0
   -5.8710    4.9850  -18.2560 N   0  0  0  0  0  0  0  0  0  0  0  0
   -4.8420    5.2630  -17.4060 N   0  0  0  0  0  0  0  0  0  0  0  0
   -5.3300    5.2040  -16.1790 C   0  0  0  0  0  0  0  0  0  0  0  0
   -6.7050    4.8710  -16.2060 C   0  0  0  0  0  0  0  0  0  0  0  0
  2  1  2  0
  3  2  1  0
  4  3  1  0
  5  4  2  0
  6  5  1  0
  7  6  2  0
  8  7  1  0
  9  4  1  0
  9  8  2  0
 10  8  1  0
 11 10  1  0
 12 11  1  0
 12  7  1  0
 13  2  1  0
 14 13  2  0
 15 14  1  0
 16 15  2  0
 17 16  1  0
 18 17  1  0
 19 18  1  0
 20 19  2  0
 21 17  2  0
 21 13  1  0
 21 20  1  0
M  END
>  <smiles>  (43) 
O=C(Nc1ccc2c(c1)CNC2)c1cncc2[nH]ncc12

>  <inchikey>  (43) 
FSWBAJPFWVZQJQ-UHFFFAOYSA-N

>  <alias>  (43) 
Z3466a

$$$$
Z3468a
     RDKit          3D

 29 34  0  0  0  0  0  0  0  0999 V2000
   -5.0320    6.7320  -19.3280 C   0  0  0  0  0  0  0  0  0  0  0  0
   -4.0560    5.9160  -18.4970 C   0  0  2  0  0  0  0  0  0  0  0  0
   -3.5670    4.6700  -19.1750 C   0  0  1  0  0  0  0  0  0  0  0  0
   -2.5140    4.8660  -20.2180 C   0  0  0  0  0  0  0  0  0  0  0  0
   -2.1570    4.2540  -18.9030 C   0  0  0  0  0  0  0  0  0  0  0  0
   -4.6080    5.6040  -17.1710 N   0  0  0  0  0  0  0  0  0  0  0  0
   -3.8480    5.7490  -16.0430 N   0  0  0  0  0  0  0  0  0  0  0  0
   -4.6100    5.4350  -15.0150 C   0  0  0  0  0  0  0  0  0  0  0  0
   -5.8970    5.0410  -15.4560 C   0  0  0  0  0  0  0  0  0  0  0  0
   -7.0970    4.5510  -14.8600 C   0  0  0  0  0  0  0  0  0  0  0  0
   -7.1860    4.5670  -13.3610 C   0  0  0  0  0  0  0  0  0  0  0  0
   -6.4220    5.2910  -12.7240 O   0  0  0  0  0  0  0  0  0  0  0  0
   -8.0760    3.7570  -12.7470 N   0  0  0  0  0  0  0  0  0  0  0  0
   -8.3050    3.7510  -11.3470 C   0  0  0  0  0  0  0  0  0  0  0  0
   -8.0900    4.9260  -10.6290 C   0  0  0  0  0  0  0  0  0  0  0  0
   -8.2360    4.9460   -9.2530 C   0  0  0  0  0  0  0  0  0  0  0  0
   -8.5570    3.7640   -8.5970 C   0  0  0  0  0  0  0  0  0  0  0  0
   -8.7600    2.5870   -9.3050 C   0  0  0  0  0  0  0  0  0  0  0  0
   -8.6030    2.5530  -10.6840 C   0  0  0  0  0  0  0  0  0  0  0  0
   -9.1150    1.4860   -8.3480 C   0  0  0  0  0  0  0  0  0  0  0  0
   -8.6750    2.0590   -7.0680 N   0  0  0  0  0  0  0  0  0  0  0  0
   -8.8240    3.5190   -7.1400 C   0  0  0  0  0  0  0  0  0  0  0  0
   -8.1540    4.2760  -15.7270 C   0  0  0  0  0  0  0  0  0  0  0  0
   -7.9780    4.4120  -17.1440 C   0  0  0  0  0  0  0  0  0  0  0  0
   -9.0450    4.1410  -18.1430 C   0  0  1  0  0  0  0  0  0  0  0  0
   -9.2120    2.7610  -18.6910 C   0  0  0  0  0  0  0  0  0  0  0  0
  -10.2440    3.3190  -17.8100 C   0  0  0  0  0  0  0  0  0  0  0  0
   -6.8320    4.8040  -17.6800 N   0  0  0  0  0  0  0  0  0  0  0  0
   -5.8300    5.1270  -16.8570 C   0  0  0  0  0  0  0  0  0  0  0  0
  2  1  1  6
  3  2  1  0
  3  4  1  6
  5  4  1  0
  5  3  1  0
  6  2  1  0
  7  6  1  0
  8  7  2  0
  9  8  1  0
 10  9  2  0
 11 10  1  0
 12 11  2  0
 13 11  1  0
 14 13  1  0
 15 14  2  0
 16 15  1  0
 17 16  2  0
 18 17  1  0
 19 14  1  0
 19 18  2  0
 20 18  1  0
 21 20  1  0
 22 21  1  0
 22 17  1  0
 23 10  1  0
 24 23  2  0
 25 24  1  1
 26 25  1  0
 27 26  1  0
 27 25  1  0
 28 24  1  0
 29 28  2  0
 29  9  1  0
 29  6  1  0
M  END
>  <smiles>  (44) 
C[C@H](C1CC1)n1ncc2c(C(=O)Nc3ccc4c(c3)CNC4)cc(C3CC3)nc21

>  <inchikey>  (44) 
LQGYSQDYHUVOGH-CYBMUJFWSA-N

>  <alias>  (44) 
Z3468a

$$$$
Z3473a
     RDKit          3D

 21 23  0  0  0  0  0  0  0  0999 V2000
   -6.8680    3.7710  -20.4910 N   0  0  0  0  0  0  0  0  0  0  0  0
   -6.9930    3.9770  -19.3630 C   0  0  0  0  0  0  0  0  0  0  0  0
   -7.1370    4.1830  -17.9390 C   0  0  0  0  0  0  0  0  0  0  0  0
   -6.0330    4.5840  -17.1940 C   0  0  0  0  0  0  0  0  0  0  0  0
   -6.1490    4.7470  -15.8260 C   0  0  0  0  0  0  0  0  0  0  0  0
   -7.3630    4.5330  -15.1850 C   0  0  0  0  0  0  0  0  0  0  0  0
   -7.4420    4.8000  -13.7120 C   0  0  0  0  0  0  0  0  0  0  0  0
   -6.6280    5.5500  -13.1830 O   0  0  0  0  0  0  0  0  0  0  0  0
   -8.3500    4.0820  -13.0060 N   0  0  0  0  0  0  0  0  0  0  0  0
   -8.4940    4.0390  -11.5880 C   0  0  0  0  0  0  0  0  0  0  0  0
   -8.2480    5.1860  -10.8330 C   0  0  0  0  0  0  0  0  0  0  0  0
   -8.3720    5.1630   -9.4540 C   0  0  0  0  0  0  0  0  0  0  0  0
   -8.6670    3.9600   -8.8250 C   0  0  0  0  0  0  0  0  0  0  0  0
   -8.9070    2.8120   -9.5690 C   0  0  0  0  0  0  0  0  0  0  0  0
   -8.7650    2.8200  -10.9510 C   0  0  0  0  0  0  0  0  0  0  0  0
   -9.2290    1.6760   -8.6380 C   0  0  0  0  0  0  0  0  0  0  0  0
   -8.7330    2.1900   -7.3570 N   0  0  0  0  0  0  0  0  0  0  0  0
   -8.8520    3.6590   -7.3650 C   0  0  0  0  0  0  0  0  0  0  0  0
   -8.4810    4.1910  -15.9370 C   0  0  0  0  0  0  0  0  0  0  0  0
   -8.3650    3.9780  -17.3030 C   0  0  0  0  0  0  0  0  0  0  0  0
   -9.7920    3.5730  -18.2140 Cl  0  0  0  0  0  0  0  0  0  0  0  0
  2  1  3  0
  3  2  1  0
  4  3  2  0
  5  4  1  0
  6  5  2  0
  7  6  1  0
  8  7  2  0
  9  7  1  0
 10  9  1  0
 11 10  2  0
 12 11  1  0
 13 12  2  0
 14 13  1  0
 15 10  1  0
 15 14  2  0
 16 14  1  0
 17 16  1  0
 18 17  1  0
 18 13  1  0
 19  6  1  0
 20  3  1  0
 20 19  2  0
 21 20  1  0
M  END
>  <smiles>  (45) 
N#Cc1ccc(C(=O)Nc2ccc3c(c2)CNC3)cc1Cl

>  <inchikey>  (45) 
ATDUWAOTGSLZQW-UHFFFAOYSA-N

>  <alias>  (45) 
Z3473a

$$$$
Z3476a
     RDKit          3D

 21 24  0  0  0  0  0  0  0  0999 V2000
   -6.5980    5.2280  -13.2810 O   0  0  0  0  0  0  0  0  0  0  0  0
   -7.5730    4.6190  -13.7080 C   0  0  0  0  0  0  0  0  0  0  0  0
   -8.4670    3.9920  -12.9100 N   0  0  0  0  0  0  0  0  0  0  0  0
   -8.5620    4.0230  -11.4920 C   0  0  0  0  0  0  0  0  0  0  0  0
   -8.3210    5.1950  -10.7750 C   0  0  0  0  0  0  0  0  0  0  0  0
   -8.4210    5.2020   -9.3910 C   0  0  0  0  0  0  0  0  0  0  0  0
   -8.6930    4.0110   -8.7300 C   0  0  0  0  0  0  0  0  0  0  0  0
   -8.9160    2.8400   -9.4400 C   0  0  0  0  0  0  0  0  0  0  0  0
   -8.8030    2.8170  -10.8230 C   0  0  0  0  0  0  0  0  0  0  0  0
   -9.2040    1.7200   -8.4810 C   0  0  0  0  0  0  0  0  0  0  0  0
   -8.7030    2.2820   -7.2180 N   0  0  0  0  0  0  0  0  0  0  0  0
   -8.8640    3.7450   -7.2620 C   0  0  0  0  0  0  0  0  0  0  0  0
   -7.7880    4.5030  -15.1860 C   0  0  0  0  0  0  0  0  0  0  0  0
   -9.0160    4.1220  -15.7030 C   0  0  0  0  0  0  0  0  0  0  0  0
   -9.2440    4.0220  -17.0730 C   0  0  0  0  0  0  0  0  0  0  0  0
   -8.2410    4.2630  -17.9890 C   0  0  0  0  0  0  0  0  0  0  0  0
   -7.0020    4.6410  -17.4820 C   0  0  0  0  0  0  0  0  0  0  0  0
   -5.8160    4.9570  -18.0950 N   0  0  0  0  0  0  0  0  0  0  0  0
   -4.9430    5.2550  -17.1230 C   0  0  0  0  0  0  0  0  0  0  0  0
   -5.4330    5.1250  -15.9120 N   0  0  0  0  0  0  0  0  0  0  0  0
   -6.7650    4.7680  -16.1100 C   0  0  0  0  0  0  0  0  0  0  0  0
  2  1  2  0
  3  2  1  0
  4  3  1  0
  5  4  2  0
  6  5  1  0
  7  6  2  0
  8  7  1  0
  9  4  1  0
  9  8  2  0
 10  8  1  0
 11 10  1  0
 12 11  1  0
 12  7  1  0
 13  2  1  0
 14 13  2  0
 15 14  1  0
 16 15  2  0
 17 16  1  0
 18 17  1  0
 19 18  1  0
 20 19  2  0
 21 17  2  0
 21 13  1  0
 21 20  1  0
M  END
>  <smiles>  (46) 
O=C(Nc1ccc2c(c1)CNC2)c1cccc2[nH]cnc12

>  <inchikey>  (46) 
CACCFMCUTIQAGX-UHFFFAOYSA-N

>  <alias>  (46) 
Z3476a

$$$$
Z3477a
     RDKit          3D

 24 27  0  0  0  0  0  0  0  0999 V2000
   -5.8390    6.7550  -18.7130 C   0  0  0  0  0  0  0  0  0  0  0  0
   -5.9120    5.2370  -18.4610 C   0  0  2  0  0  0  0  0  0  0  0  0
   -4.5190    4.6340  -18.2080 C   0  0  0  0  0  0  0  0  0  0  0  0
   -6.5560    4.5590  -19.6820 C   0  0  0  0  0  0  0  0  0  0  0  0
   -6.0580    4.4710  -20.7880 O   0  0  0  0  0  0  0  0  0  0  0  0
   -7.7930    4.1540  -19.3240 N   0  0  0  0  0  0  0  0  0  0  0  0
   -7.9960    4.2820  -17.9370 C   0  0  0  0  0  0  0  0  0  0  0  0
   -9.0750    3.8700  -17.1830 C   0  0  0  0  0  0  0  0  0  0  0  0
   -9.0040    4.0520  -15.8170 C   0  0  0  0  0  0  0  0  0  0  0  0
   -7.9230    4.6910  -15.2230 C   0  0  0  0  0  0  0  0  0  0  0  0
   -7.8150    4.9250  -13.7490 C   0  0  0  0  0  0  0  0  0  0  0  0
   -6.9390    5.6630  -13.3110 O   0  0  0  0  0  0  0  0  0  0  0  0
   -8.6450    4.2020  -12.9590 N   0  0  0  0  0  0  0  0  0  0  0  0
   -8.6830    4.1700  -11.5380 C   0  0  0  0  0  0  0  0  0  0  0  0
   -8.3900    5.3220  -10.8140 C   0  0  0  0  0  0  0  0  0  0  0  0
   -8.4430    5.3130   -9.4310 C   0  0  0  0  0  0  0  0  0  0  0  0
   -8.7030    4.1170   -8.7760 C   0  0  0  0  0  0  0  0  0  0  0  0
   -8.9880    2.9620   -9.4920 C   0  0  0  0  0  0  0  0  0  0  0  0
   -8.9380    2.9590  -10.8780 C   0  0  0  0  0  0  0  0  0  0  0  0
   -9.2740    1.8370   -8.5360 C   0  0  0  0  0  0  0  0  0  0  0  0
   -8.7270    2.3670   -7.2780 N   0  0  0  0  0  0  0  0  0  0  0  0
   -8.8040    3.8360   -7.3040 C   0  0  0  0  0  0  0  0  0  0  0  0
   -6.8420    5.0980  -16.0100 C   0  0  0  0  0  0  0  0  0  0  0  0
   -6.8850    4.8870  -17.3740 C   0  0  0  0  0  0  0  0  0  0  0  0
  2  1  1  6
  3  2  1  0
  4  2  1  0
  5  4  2  0
  6  4  1  0
  7  6  1  0
  8  7  2  0
  9  8  1  0
 10  9  2  0
 11 10  1  0
 12 11  2  0
 13 11  1  0
 14 13  1  0
 15 14  2  0
 16 15  1  0
 17 16  2  0
 18 17  1  0
 19 14  1  0
 19 18  2  0
 20 18  1  0
 21 20  1  0
 22 21  1  0
 22 17  1  0
 23 10  1  0
 24  7  1  0
 24  2  1  0
 24 23  2  0
M  END
>  <smiles>  (47) 
CC1(C)C(=O)Nc2ccc(C(=O)Nc3ccc4c(c3)CNC4)cc21

>  <inchikey>  (47) 
WHUUMKMADJLIFG-UHFFFAOYSA-N

>  <alias>  (47) 
Z3477a

$$$$
Z3480a
     RDKit          3D

 22 24  0  0  0  0  0  0  0  0999 V2000
   -3.7550    5.9110  -19.0060 C   0  0  0  0  0  0  0  0  0  0  0  0
   -4.6580    5.5600  -17.8590 C   0  0  0  0  0  0  0  0  0  0  0  0
   -4.2270    5.4460  -16.7080 O   0  0  0  0  0  0  0  0  0  0  0  0
   -5.9570    5.3730  -18.2070 N   0  0  0  0  0  0  0  0  0  0  0  0
   -7.0360    4.9220  -17.4210 C   0  0  0  0  0  0  0  0  0  0  0  0
   -8.2400    4.4680  -17.9680 C   0  0  0  0  0  0  0  0  0  0  0  0
   -9.2250    4.0640  -17.0980 C   0  0  0  0  0  0  0  0  0  0  0  0
   -9.0050    4.1220  -15.7300 C   0  0  0  0  0  0  0  0  0  0  0  0
   -7.7990    4.6120  -15.2770 C   0  0  0  0  0  0  0  0  0  0  0  0
   -7.5060    4.7000  -13.7970 C   0  0  0  0  0  0  0  0  0  0  0  0
   -6.5930    5.4120  -13.3880 O   0  0  0  0  0  0  0  0  0  0  0  0
   -8.2840    3.9110  -13.0090 N   0  0  0  0  0  0  0  0  0  0  0  0
   -8.4290    3.9360  -11.5930 C   0  0  0  0  0  0  0  0  0  0  0  0
   -8.1990    5.1170  -10.8860 C   0  0  0  0  0  0  0  0  0  0  0  0
   -8.3440    5.1530   -9.5100 C   0  0  0  0  0  0  0  0  0  0  0  0
   -8.6490    3.9790   -8.8330 C   0  0  0  0  0  0  0  0  0  0  0  0
   -8.8760    2.8020   -9.5260 C   0  0  0  0  0  0  0  0  0  0  0  0
   -8.7520    2.7550  -10.9100 C   0  0  0  0  0  0  0  0  0  0  0  0
   -9.2370    1.7200   -8.5490 C   0  0  0  0  0  0  0  0  0  0  0  0
   -8.7240    2.2810   -7.2910 N   0  0  0  0  0  0  0  0  0  0  0  0
   -8.8720    3.7410   -7.3680 C   0  0  0  0  0  0  0  0  0  0  0  0
   -6.8230    5.0140  -16.1080 N   0  0  0  0  0  0  0  0  0  0  0  0
  2  1  1  0
  3  2  2  0
  4  2  1  0
  5  4  1  0
  6  5  2  0
  7  6  1  0
  8  7  2  0
  9  8  1  0
 10  9  1  0
 11 10  2  0
 12 10  1  0
 13 12  1  0
 14 13  2  0
 15 14  1  0
 16 15  2  0
 17 16  1  0
 18 13  1  0
 18 17  2  0
 19 17  1  0
 20 19  1  0
 21 20  1  0
 21 16  1  0
 22  5  1  0
 22  9  2  0
M  END
>  <smiles>  (48) 
CC(=O)Nc1cccc(C(=O)Nc2ccc3c(c2)CNC3)n1

>  <inchikey>  (48) 
KQBMXRREZCCFEX-UHFFFAOYSA-N

>  <alias>  (48) 
Z3480a

$$$$
Z3485a
     RDKit          3D

 23 26  0  0  0  0  0  0  0  0999 V2000
   -6.5800    5.2370  -13.1980 O   0  0  0  0  0  0  0  0  0  0  0  0
   -7.4780    4.5830  -13.7230 C   0  0  0  0  0  0  0  0  0  0  0  0
   -8.3710    3.8590  -13.0100 N   0  0  0  0  0  0  0  0  0  0  0  0
   -8.4960    3.8750  -11.5940 C   0  0  0  0  0  0  0  0  0  0  0  0
   -8.2410    5.0590  -10.9030 C   0  0  0  0  0  0  0  0  0  0  0  0
   -8.3690    5.1120   -9.5260 C   0  0  0  0  0  0  0  0  0  0  0  0
   -8.6300    3.9380   -8.8350 C   0  0  0  0  0  0  0  0  0  0  0  0
   -8.8630    2.7500   -9.5150 C   0  0  0  0  0  0  0  0  0  0  0  0
   -8.7600    2.6890  -10.8970 C   0  0  0  0  0  0  0  0  0  0  0  0
   -9.1630    1.6630   -8.5230 C   0  0  0  0  0  0  0  0  0  0  0  0
   -8.6590    2.2500   -7.2700 N   0  0  0  0  0  0  0  0  0  0  0  0
   -8.7960    3.7120   -7.3590 C   0  0  0  0  0  0  0  0  0  0  0  0
   -7.5520    4.5200  -15.2180 C   0  0  0  0  0  0  0  0  0  0  0  0
   -8.7220    4.2290  -15.9250 C   0  0  0  0  0  0  0  0  0  0  0  0
   -8.7240    4.2220  -17.3030 C   0  0  0  0  0  0  0  0  0  0  0  0
  -10.3540    3.8510  -18.2170 Br  0  0  0  0  0  0  0  0  0  0  0  0
   -7.5950    4.4660  -18.0490 C   0  0  0  0  0  0  0  0  0  0  0  0
   -6.4360    4.7740  -17.3730 C   0  0  0  0  0  0  0  0  0  0  0  0
   -5.1550    5.0660  -17.8120 N   0  0  0  0  0  0  0  0  0  0  0  0
   -4.3390    5.2430  -16.7300 C   0  0  0  0  0  0  0  0  0  0  0  0
   -3.1310    5.5030  -16.7580 O   0  0  0  0  0  0  0  0  0  0  0  0
   -5.0960    5.0610  -15.6090 N   0  0  0  0  0  0  0  0  0  0  0  0
   -6.3970    4.7940  -15.9730 C   0  0  0  0  0  0  0  0  0  0  0  0
  2  1  2  0
  3  2  1  0
  4  3  1  0
  5  4  2  0
  6  5  1  0
  7  6  2  0
  8  7  1  0
  9  4  1  0
  9  8  2  0
 10  8  1  0
 11 10  1  0
 12 11  1  0
 12  7  1  0
 13  2  1  0
 14 13  2  0
 15 14  1  0
 16 15  1  0
 17 15  2  0
 18 17  1  0
 19 18  1  0
 20 19  1  0
 21 20  2  0
 22 20  1  0
 23 18  2  0
 23 13  1  0
 23 22  1  0
M  END
>  <smiles>  (49) 
O=C(Nc1ccc2c(c1)CNC2)c1cc(Br)cc2[nH]c(=O)[nH]c12

>  <inchikey>  (49) 
ICDGBAJYMSURGO-UHFFFAOYSA-N

>  <alias>  (49) 
Z3485a

$$$$
Z3495a
     RDKit          3D

 24 27  0  0  0  0  0  0  0  0999 V2000
   -7.1080    5.9290  -13.2370 O   0  0  0  0  0  0  0  0  0  0  0  0
   -7.6410    4.9300  -13.7030 C   0  0  0  0  0  0  0  0  0  0  0  0
   -8.2070    3.9690  -12.9360 N   0  0  0  0  0  0  0  0  0  0  0  0
   -8.3580    3.9950  -11.5230 C   0  0  0  0  0  0  0  0  0  0  0  0
   -8.1910    5.1910  -10.8260 C   0  0  0  0  0  0  0  0  0  0  0  0
   -8.3480    5.2320   -9.4490 C   0  0  0  0  0  0  0  0  0  0  0  0
   -8.6260    4.0540   -8.7700 C   0  0  0  0  0  0  0  0  0  0  0  0
   -8.7760    2.8560   -9.4560 C   0  0  0  0  0  0  0  0  0  0  0  0
   -8.6260    2.8040  -10.8350 C   0  0  0  0  0  0  0  0  0  0  0  0
   -9.1030    1.7590   -8.4800 C   0  0  0  0  0  0  0  0  0  0  0  0
   -8.7070    2.3660   -7.2000 N   0  0  0  0  0  0  0  0  0  0  0  0
   -8.8480    3.8260   -7.3000 C   0  0  0  0  0  0  0  0  0  0  0  0
   -7.5930    4.6890  -15.1810 C   0  0  0  0  0  0  0  0  0  0  0  0
   -8.7740    4.4040  -15.8720 C   0  0  0  0  0  0  0  0  0  0  0  0
   -8.7580    4.2830  -17.2420 C   0  0  0  0  0  0  0  0  0  0  0  0
  -10.2370    3.9120  -18.0850 Cl  0  0  0  0  0  0  0  0  0  0  0  0
   -7.5850    4.4290  -17.9600 C   0  0  0  0  0  0  0  0  0  0  0  0
   -6.4140    4.7470  -17.2970 C   0  0  0  0  0  0  0  0  0  0  0  0
   -6.4120    4.8590  -15.9170 C   0  0  0  0  0  0  0  0  0  0  0  0
   -5.1650    5.1590  -15.2560 N   0  0  0  0  0  0  0  0  0  0  0  0
   -4.0660    5.7990  -15.6960 C   0  0  0  0  0  0  0  0  0  0  0  0
   -3.1300    5.8030  -14.7720 N   0  0  0  0  0  0  0  0  0  0  0  0
   -3.6970    5.0900  -13.7750 C   0  0  0  0  0  0  0  0  0  0  0  0
   -4.9120    4.6470  -14.0100 N   0  0  0  0  0  0  0  0  0  0  0  0
  2  1  2  0
  3  2  1  0
  4  3  1  0
  5  4  2  0
  6  5  1  0
  7  6  2  0
  8  7  1  0
  9  4  1  0
  9  8  2  0
 10  8  1  0
 11 10  1  0
 12 11  1  0
 12  7  1  0
 13  2  1  0
 14 13  2  0
 15 14  1  0
 16 15  1  0
 17 15  2  0
 18 17  1  0
 19 18  2  0
 19 13  1  0
 20 19  1  0
 21 20  1  0
 22 21  2  0
 23 22  1  0
 24 23  2  0
 24 20  1  0
M  END
>  <smiles>  (50) 
O=C(Nc1ccc2c(c1)CNC2)c1cc(Cl)ccc1-n1cncn1

>  <inchikey>  (50) 
LLQKJCZAMTUJAP-UHFFFAOYSA-N

>  <alias>  (50) 
Z3495a

$$$$
Z3501a
     RDKit          3D

 25 28  0  0  0  0  0  0  0  0999 V2000
   -6.5980    5.2620  -13.2530 O   0  0  0  0  0  0  0  0  0  0  0  0
   -7.5390    4.6180  -13.7060 C   0  0  0  0  0  0  0  0  0  0  0  0
   -8.3910    3.9090  -12.9330 N   0  0  0  0  0  0  0  0  0  0  0  0
   -8.5000    3.9420  -11.5150 C   0  0  0  0  0  0  0  0  0  0  0  0
   -8.3120    5.1340  -10.8200 C   0  0  0  0  0  0  0  0  0  0  0  0
   -8.4510    5.1690   -9.4430 C   0  0  0  0  0  0  0  0  0  0  0  0
   -8.6750    3.9790   -8.7610 C   0  0  0  0  0  0  0  0  0  0  0  0
   -8.8390    2.7850   -9.4480 C   0  0  0  0  0  0  0  0  0  0  0  0
   -8.7040    2.7410  -10.8280 C   0  0  0  0  0  0  0  0  0  0  0  0
   -9.1070    1.6740   -8.4730 C   0  0  0  0  0  0  0  0  0  0  0  0
   -8.6730    2.2790   -7.2090 N   0  0  0  0  0  0  0  0  0  0  0  0
   -8.8580    3.7360   -7.2890 C   0  0  0  0  0  0  0  0  0  0  0  0
   -7.7390    4.5430  -15.1870 C   0  0  0  0  0  0  0  0  0  0  0  0
   -8.9440    4.1450  -15.7620 C   0  0  0  0  0  0  0  0  0  0  0  0
   -9.1070    4.0770  -17.1420 C   0  0  0  0  0  0  0  0  0  0  0  0
   -8.0620    4.3370  -17.9940 C   0  0  0  0  0  0  0  0  0  0  0  0
   -6.8400    4.7250  -17.4400 C   0  0  0  0  0  0  0  0  0  0  0  0
   -5.6420    5.0620  -18.0590 N   0  0  0  0  0  0  0  0  0  0  0  0
   -4.7990    5.3470  -17.0870 C   0  0  0  0  0  0  0  0  0  0  0  0
   -3.3790    5.7100  -17.3120 C   0  0  2  0  0  0  0  0  0  0  0  0
   -2.8430    5.0280  -18.3180 F   0  0  0  0  0  0  0  0  0  0  0  0
   -2.6320    5.4630  -16.2480 F   0  0  0  0  0  0  0  0  0  0  0  0
   -3.2250    6.9970  -17.5980 F   0  0  0  0  0  0  0  0  0  0  0  0
   -5.3690    5.1970  -15.8710 N   0  0  0  0  0  0  0  0  0  0  0  0
   -6.6740    4.8350  -16.0580 C   0  0  0  0  0  0  0  0  0  0  0  0
  2  1  2  0
  3  2  1  0
  4  3  1  0
  5  4  2  0
  6  5  1  0
  7  6  2  0
  8  7  1  0
  9  4  1  0
  9  8  2  0
 10  8  1  0
 11 10  1  0
 12 11  1  0
 12  7  1  0
 13  2  1  0
 14 13  2  0
 15 14  1  0
 16 15  2  0
 17 16  1  0
 18 17  1  0
 19 18  2  0
 20 19  1  0
 20 21  1  6
 22 20  1  0
 23 20  1  0
 24 19  1  0
 25 17  2  0
 25 13  1  0
 25 24  1  0
M  END
>  <smiles>  (51) 
O=C(Nc1ccc2c(c1)CNC2)c1cccc2nc(C(F)(F)F)[nH]c12

>  <inchikey>  (51) 
MCVXKGRMYLXFIV-UHFFFAOYSA-N

>  <alias>  (51) 
Z3501a

$$$$
Z3502a
     RDKit          3D

 23 26  0  0  0  0  0  0  0  0999 V2000
   -3.0040    5.6930  -16.9590 C   0  0  0  0  0  0  0  0  0  0  0  0
   -4.4590    5.4110  -16.8270 C   0  0  0  0  0  0  0  0  0  0  0  0
   -5.1220    5.3130  -15.6910 N   0  0  0  0  0  0  0  0  0  0  0  0
   -6.4460    5.0680  -16.0490 C   0  0  0  0  0  0  0  0  0  0  0  0
   -7.5750    4.7890  -15.2530 C   0  0  0  0  0  0  0  0  0  0  0  0
   -7.5280    4.9160  -13.7560 C   0  0  0  0  0  0  0  0  0  0  0  0
   -6.7420    5.7090  -13.2420 O   0  0  0  0  0  0  0  0  0  0  0  0
   -8.3290    4.0940  -13.0300 N   0  0  0  0  0  0  0  0  0  0  0  0
   -8.4890    4.0670  -11.6120 C   0  0  0  0  0  0  0  0  0  0  0  0
   -8.2340    5.2240  -10.8750 C   0  0  0  0  0  0  0  0  0  0  0  0
   -8.3560    5.2240   -9.4960 C   0  0  0  0  0  0  0  0  0  0  0  0
   -8.6570    4.0330   -8.8470 C   0  0  0  0  0  0  0  0  0  0  0  0
   -8.9000    2.8750   -9.5700 C   0  0  0  0  0  0  0  0  0  0  0  0
   -8.7970    2.8650  -10.9570 C   0  0  0  0  0  0  0  0  0  0  0  0
   -9.2500    1.7720   -8.6130 C   0  0  0  0  0  0  0  0  0  0  0  0
   -8.7130    2.2950   -7.3470 N   0  0  0  0  0  0  0  0  0  0  0  0
   -8.8580    3.7580   -7.3830 C   0  0  0  0  0  0  0  0  0  0  0  0
   -8.7810    4.5830  -15.9110 C   0  0  0  0  0  0  0  0  0  0  0  0
   -8.8380    4.5360  -17.2900 C   0  0  0  0  0  0  0  0  0  0  0  0
  -10.3680    4.2180  -18.0710 Cl  0  0  0  0  0  0  0  0  0  0  0  0
   -7.7240    4.7220  -18.0880 C   0  0  0  0  0  0  0  0  0  0  0  0
   -6.5300    5.0000  -17.4410 C   0  0  0  0  0  0  0  0  0  0  0  0
   -5.2580    5.2370  -17.9120 N   0  0  0  0  0  0  0  0  0  0  0  0
  2  1  1  0
  3  2  2  0
  4  3  1  0
  5  4  2  0
  6  5  1  0
  7  6  2  0
  8  6  1  0
  9  8  1  0
 10  9  2  0
 11 10  1  0
 12 11  2  0
 13 12  1  0
 14  9  1  0
 14 13  2  0
 15 13  1  0
 16 15  1  0
 17 16  1  0
 17 12  1  0
 18  5  1  0
 19 18  2  0
 20 19  1  0
 21 19  1  0
 22 21  2  0
 22  4  1  0
 23 22  1  0
 23  2  1  0
M  END
>  <smiles>  (52) 
Cc1nc2c(C(=O)Nc3ccc4c(c3)CNC4)cc(Cl)cc2[nH]1

>  <inchikey>  (52) 
UDLJCSBFJHWTRB-UHFFFAOYSA-N

>  <alias>  (52) 
Z3502a

$$$$
Z3503a
     RDKit          3D

 22 25  0  0  0  0  0  0  0  0999 V2000
   -6.7790    5.3720  -13.4320 O   0  0  0  0  0  0  0  0  0  0  0  0
   -7.6740    4.6310  -13.8330 C   0  0  0  0  0  0  0  0  0  0  0  0
   -8.4490    3.8810  -13.0170 N   0  0  0  0  0  0  0  0  0  0  0  0
   -8.5100    3.9040  -11.5990 C   0  0  0  0  0  0  0  0  0  0  0  0
   -8.0890    5.0420  -10.9180 C   0  0  0  0  0  0  0  0  0  0  0  0
   -8.1570    5.0950   -9.5370 C   0  0  0  0  0  0  0  0  0  0  0  0
   -8.5650    3.9650   -8.8390 C   0  0  0  0  0  0  0  0  0  0  0  0
   -8.9790    2.8260   -9.5140 C   0  0  0  0  0  0  0  0  0  0  0  0
   -8.9510    2.7720  -10.9010 C   0  0  0  0  0  0  0  0  0  0  0  0
   -9.4380    1.7960   -8.5240 C   0  0  0  0  0  0  0  0  0  0  0  0
   -8.8930    2.3220   -7.2640 N   0  0  0  0  0  0  0  0  0  0  0  0
   -8.7600    3.7790   -7.3600 C   0  0  0  0  0  0  0  0  0  0  0  0
   -7.8890    4.4680  -15.3030 C   0  0  0  0  0  0  0  0  0  0  0  0
   -9.0760    4.0220  -15.8740 C   0  0  0  0  0  0  0  0  0  0  0  0
   -9.2220    3.8960  -17.2510 C   0  0  0  0  0  0  0  0  0  0  0  0
   -8.1770    4.1380  -18.1150 C   0  0  0  0  0  0  0  0  0  0  0  0
   -6.9820    4.5730  -17.5650 C   0  0  0  0  0  0  0  0  0  0  0  0
   -5.7660    4.9200  -18.1370 N   0  0  0  0  0  0  0  0  0  0  0  0
   -4.8810    5.2410  -17.1440 C   0  0  0  0  0  0  0  0  0  0  0  0
   -3.6910    5.5400  -17.2850 O   0  0  0  0  0  0  0  0  0  0  0  0
   -5.5300    5.1170  -15.9520 N   0  0  0  0  0  0  0  0  0  0  0  0
   -6.8270    4.7260  -16.1790 C   0  0  0  0  0  0  0  0  0  0  0  0
  2  1  2  0
  3  2  1  0
  4  3  1  0
  5  4  2  0
  6  5  1  0
  7  6  2  0
  8  7  1  0
  9  4  1  0
  9  8  2  0
 10  8  1  0
 11 10  1  0
 12 11  1  0
 12  7  1  0
 13  2  1  0
 14 13  2  0
 15 14  1  0
 16 15  2  0
 17 16  1  0
 18 17  1  0
 19 18  1  0
 20 19  2  0
 21 19  1  0
 22 17  2  0
 22 21  1  0
 22 13  1  0
M  END
>  <smiles>  (53) 
O=C(Nc1ccc2c(c1)CNC2)c1cccc2[nH]c(=O)[nH]c12

>  <inchikey>  (53) 
HEIBORWUUKURSH-UHFFFAOYSA-N

>  <alias>  (53) 
Z3503a

$$$$
Z3507a
     RDKit          3D

 23 26  0  0  0  0  0  0  0  0999 V2000
   -9.6970    7.2040  -13.4460 N   0  0  0  0  0  0  0  0  0  0  0  0
   -8.9970    6.2960  -13.4900 C   0  0  0  0  0  0  0  0  0  0  0  0
   -8.0870    5.1150  -13.4920 C   0  0  2  0  0  0  0  0  0  0  0  0
   -7.3860    5.0350  -12.2170 N   0  0  0  0  0  0  0  0  0  0  0  0
   -7.8670    4.2430  -11.1870 C   0  0  0  0  0  0  0  0  0  0  0  0
   -8.3710    2.9770  -11.4960 C   0  0  0  0  0  0  0  0  0  0  0  0
   -8.8820    2.1700  -10.4980 C   0  0  0  0  0  0  0  0  0  0  0  0
   -8.9060    2.6460   -9.1970 C   0  0  0  0  0  0  0  0  0  0  0  0
   -8.4860    3.9350   -8.9010 C   0  0  0  0  0  0  0  0  0  0  0  0
   -7.9580    4.7560   -9.8910 C   0  0  0  0  0  0  0  0  0  0  0  0
   -8.6420    4.1750   -7.4260 C   0  0  0  0  0  0  0  0  0  0  0  0
   -8.7490    2.7940   -6.9240 N   0  0  0  0  0  0  0  0  0  0  0  0
   -9.4220    1.9890   -7.9520 C   0  0  0  0  0  0  0  0  0  0  0  0
   -7.1690    5.1120  -14.7030 C   0  0  0  0  0  0  0  0  0  0  0  0
   -5.8320    5.4640  -14.5990 C   0  0  0  0  0  0  0  0  0  0  0  0
   -4.9970    5.4820  -15.6550 N   0  0  0  0  0  0  0  0  0  0  0  0
   -5.4780    5.2010  -16.8550 C   0  0  0  0  0  0  0  0  0  0  0  0
   -6.8190    4.8130  -17.1070 C   0  0  0  0  0  0  0  0  0  0  0  0
   -7.3120    4.4580  -18.3810 C   0  0  0  0  0  0  0  0  0  0  0  0
   -8.6230    4.1120  -18.5350 C   0  0  0  0  0  0  0  0  0  0  0  0
   -9.4990    4.0930  -17.4380 C   0  0  0  0  0  0  0  0  0  0  0  0
   -9.0440    4.3920  -16.1870 C   0  0  0  0  0  0  0  0  0  0  0  0
   -7.6960    4.7770  -15.9860 C   0  0  0  0  0  0  0  0  0  0  0  0
  2  1  3  0
  3  2  1  1
  4  3  1  0
  5  4  1  0
  6  5  2  0
  7  6  1  0
  8  7  2  0
  9  8  1  0
 10  5  1  0
 10  9  2  0
 11  9  1  0
 12 11  1  0
 13 12  1  0
 13  8  1  0
 14  3  1  0
 15 14  2  0
 16 15  1  0
 17 16  2  0
 18 17  1  0
 19 18  1  0
 20 19  2  0
 21 20  1  0
 22 21  2  0
 23 18  2  0
 23 22  1  0
 23 14  1  0
M  END
>  <smiles>  (54) 
N#C[C@H](Nc1ccc2c(c1)CNC2)c1cncc2ccccc12

>  <inchikey>  (54) 
PZWUNEFUBRWUPG-IBGZPJMESA-N

>  <alias>  (54) 
Z3507a

$$$$
Z3519a
     RDKit          3D

 22 25  0  0  0  0  0  0  0  0999 V2000
   -6.5830    5.5890  -12.9210 O   0  0  0  0  0  0  0  0  0  0  0  0
   -7.3520    4.8140  -13.4860 C   0  0  0  0  0  0  0  0  0  0  0  0
   -8.2110    4.0070  -12.8220 N   0  0  0  0  0  0  0  0  0  0  0  0
   -8.4030    3.9910  -11.4190 C   0  0  0  0  0  0  0  0  0  0  0  0
   -8.1800    5.1570  -10.6900 C   0  0  0  0  0  0  0  0  0  0  0  0
   -8.3160    5.1640   -9.3140 C   0  0  0  0  0  0  0  0  0  0  0  0
   -8.6110    3.9710   -8.6660 C   0  0  0  0  0  0  0  0  0  0  0  0
   -8.8190    2.8010   -9.3870 C   0  0  0  0  0  0  0  0  0  0  0  0
   -8.6840    2.7830  -10.7680 C   0  0  0  0  0  0  0  0  0  0  0  0
   -9.1310    1.6860   -8.4290 C   0  0  0  0  0  0  0  0  0  0  0  0
   -8.5920    2.2360   -7.1760 N   0  0  0  0  0  0  0  0  0  0  0  0
   -8.8110    3.6920   -7.2050 C   0  0  0  0  0  0  0  0  0  0  0  0
   -7.3050    4.6840  -14.9760 C   0  0  0  0  0  0  0  0  0  0  0  0
   -8.3950    4.2420  -15.7060 C   0  0  0  0  0  0  0  0  0  0  0  0
   -8.3230    4.1630  -17.1270 C   0  0  0  0  0  0  0  0  0  0  0  0
   -9.6750    3.6060  -18.0640 Cl  0  0  0  0  0  0  0  0  0  0  0  0
   -7.2320    4.4710  -17.8220 N   0  0  0  0  0  0  0  0  0  0  0  0
   -6.1630    4.8640  -17.1130 C   0  0  0  0  0  0  0  0  0  0  0  0
   -4.9290    5.1750  -17.6060 N   0  0  0  0  0  0  0  0  0  0  0  0
   -4.1140    5.5120  -16.5490 C   0  0  0  0  0  0  0  0  0  0  0  0
   -4.7930    5.3860  -15.3760 C   0  0  0  0  0  0  0  0  0  0  0  0
   -6.1240    4.9840  -15.7120 C   0  0  0  0  0  0  0  0  0  0  0  0
  2  1  2  0
  3  2  1  0
  4  3  1  0
  5  4  2  0
  6  5  1  0
  7  6  2  0
  8  7  1  0
  9  4  1  0
  9  8  2  0
 10  8  1  0
 11 10  1  0
 12 11  1  0
 12  7  1  0
 13  2  1  0
 14 13  2  0
 15 14  1  0
 16 15  1  0
 17 15  2  0
 18 17  1  0
 19 18  1  0
 20 19  1  0
 21 20  2  0
 22 18  2  0
 22 13  1  0
 22 21  1  0
M  END
>  <smiles>  (55) 
O=C(Nc1ccc2c(c1)CNC2)c1cc(Cl)nc2[nH]ccc12

>  <inchikey>  (55) 
RKXOVTZDXJDKEO-UHFFFAOYSA-N

>  <alias>  (55) 
Z3519a

$$$$
Z3522a
     RDKit          3D

 21 24  0  0  0  0  0  0  0  0999 V2000
   -6.6000    5.7260  -12.5990 O   0  0  0  0  0  0  0  0  0  0  0  0
   -7.3950    4.9560  -13.1280 C   0  0  0  0  0  0  0  0  0  0  0  0
   -8.2350    4.1430  -12.4460 N   0  0  0  0  0  0  0  0  0  0  0  0
   -8.4270    4.0430  -11.0530 C   0  0  0  0  0  0  0  0  0  0  0  0
   -8.2130    5.1430  -10.2270 C   0  0  0  0  0  0  0  0  0  0  0  0
   -8.3460    5.0120   -8.8570 C   0  0  0  0  0  0  0  0  0  0  0  0
   -8.6730    3.7690   -8.3290 C   0  0  0  0  0  0  0  0  0  0  0  0
   -8.8810    2.6730   -9.1530 C   0  0  0  0  0  0  0  0  0  0  0  0
   -8.7330    2.7840  -10.5260 C   0  0  0  0  0  0  0  0  0  0  0  0
   -9.2160    1.4770   -8.3110 C   0  0  0  0  0  0  0  0  0  0  0  0
   -8.7090    1.9040   -6.9980 N   0  0  0  0  0  0  0  0  0  0  0  0
   -8.9080    3.3610   -6.9050 C   0  0  0  0  0  0  0  0  0  0  0  0
   -7.4070    4.7800  -14.6090 C   0  0  0  0  0  0  0  0  0  0  0  0
   -6.2730    5.0460  -15.3650 C   0  0  0  0  0  0  0  0  0  0  0  0
   -6.2860    4.9080  -16.7470 C   0  0  0  0  0  0  0  0  0  0  0  0
   -7.4740    4.4990  -17.3430 C   0  0  0  0  0  0  0  0  0  0  0  0
   -7.7890    4.2350  -19.0070 S   0  0  0  0  0  0  0  0  0  0  0  0
   -9.3910    3.8460  -18.7480 N   0  0  0  0  0  0  0  0  0  0  0  0
   -9.7400    3.8610  -17.4810 C   0  0  0  0  0  0  0  0  0  0  0  0
   -8.6340    4.2450  -16.5930 C   0  0  0  0  0  0  0  0  0  0  0  0
   -8.5970    4.3950  -15.2120 C   0  0  0  0  0  0  0  0  0  0  0  0
  2  1  2  0
  3  2  1  0
  4  3  1  0
  5  4  2  0
  6  5  1  0
  7  6  2  0
  8  7  1  0
  9  4  1  0
  9  8  2  0
 10  8  1  0
 11 10  1  0
 12 11  1  0
 12  7  1  0
 13  2  1  0
 14 13  2  0
 15 14  1  0
 16 15  2  0
 17 16  1  0
 18 17  1  0
 19 18  2  0
 20 19  1  0
 20 16  1  0
 21 20  2  0
 21 13  1  0
M  END
>  <smiles>  (56) 
O=C(Nc1ccc2c(c1)CNC2)c1ccc2sncc2c1

>  <inchikey>  (56) 
DYBYRVCDONHDBA-UHFFFAOYSA-N

>  <alias>  (56) 
Z3522a

$$$$
Z3546a
     RDKit          3D

 24 27  0  0  0  0  0  0  0  0999 V2000
   -6.9810    5.8580  -13.1790 O   0  0  0  0  0  0  0  0  0  0  0  0
   -7.6220    4.9480  -13.6940 C   0  0  0  0  0  0  0  0  0  0  0  0
   -8.3270    4.0520  -12.9620 N   0  0  0  0  0  0  0  0  0  0  0  0
   -8.4510    4.0460  -11.5390 C   0  0  0  0  0  0  0  0  0  0  0  0
   -8.2450    5.2170  -10.8080 C   0  0  0  0  0  0  0  0  0  0  0  0
   -8.3590    5.2180   -9.4270 C   0  0  0  0  0  0  0  0  0  0  0  0
   -8.6220    4.0220   -8.7720 C   0  0  0  0  0  0  0  0  0  0  0  0
   -8.8200    2.8510   -9.4900 C   0  0  0  0  0  0  0  0  0  0  0  0
   -8.6980    2.8370  -10.8740 C   0  0  0  0  0  0  0  0  0  0  0  0
   -9.1350    1.7280   -8.5420 C   0  0  0  0  0  0  0  0  0  0  0  0
   -8.6890    2.2820   -7.2570 N   0  0  0  0  0  0  0  0  0  0  0  0
   -8.8010    3.7490   -7.3040 C   0  0  0  0  0  0  0  0  0  0  0  0
   -7.5890    4.7560  -15.1860 C   0  0  0  0  0  0  0  0  0  0  0  0
   -8.7600    4.4000  -15.8630 C   0  0  0  0  0  0  0  0  0  0  0  0
   -8.7630    4.2820  -17.2360 C   0  0  0  0  0  0  0  0  0  0  0  0
  -10.2400    3.8800  -18.0690 Cl  0  0  0  0  0  0  0  0  0  0  0  0
   -7.6160    4.5130  -17.9740 C   0  0  0  0  0  0  0  0  0  0  0  0
   -6.4490    4.8680  -17.3230 C   0  0  0  0  0  0  0  0  0  0  0  0
   -6.4240    4.9590  -15.9330 C   0  0  0  0  0  0  0  0  0  0  0  0
   -5.1940    5.3310  -15.3130 N   0  0  0  0  0  0  0  0  0  0  0  0
   -4.5880    4.7150  -14.2440 C   0  0  0  0  0  0  0  0  0  0  0  0
   -3.4310    5.3680  -14.0320 C   0  0  0  0  0  0  0  0  0  0  0  0
   -3.2770    6.3760  -14.9460 N   0  0  0  0  0  0  0  0  0  0  0  0
   -4.3510    6.3200  -15.6980 C   0  0  0  0  0  0  0  0  0  0  0  0
  2  1  2  0
  3  2  1  0
  4  3  1  0
  5  4  2  0
  6  5  1  0
  7  6  2  0
  8  7  1  0
  9  4  1  0
  9  8  2  0
 10  8  1  0
 11 10  1  0
 12 11  1  0
 12  7  1  0
 13  2  1  0
 14 13  2  0
 15 14  1  0
 16 15  1  0
 17 15  2  0
 18 17  1  0
 19 18  2  0
 19 13  1  0
 20 19  1  0
 21 20  1  0
 22 21  2  0
 23 22  1  0
 24 20  1  0
 24 23  2  0
M  END
>  <smiles>  (57) 
O=C(Nc1ccc2c(c1)CNC2)c1cc(Cl)ccc1-n1ccnc1

>  <inchikey>  (57) 
KYVJOSVEUDQHNK-UHFFFAOYSA-N

>  <alias>  (57) 
Z3546a

$$$$
Z3556a
     RDKit          3D

 23 26  0  0  0  0  0  0  0  0999 V2000
   -9.3870    3.9810  -18.1180 C   0  0  0  0  0  0  0  0  0  0  0  0
   -8.2270    4.3640  -17.2500 C   0  0  0  0  0  0  0  0  0  0  0  0
   -8.3710    4.4780  -15.8420 C   0  0  0  0  0  0  0  0  0  0  0  0
   -7.2890    4.8350  -15.0490 C   0  0  0  0  0  0  0  0  0  0  0  0
   -7.4070    5.0230  -13.5670 C   0  0  0  0  0  0  0  0  0  0  0  0
   -6.7040    5.8660  -13.0180 O   0  0  0  0  0  0  0  0  0  0  0  0
   -8.2390    4.1900  -12.8930 N   0  0  0  0  0  0  0  0  0  0  0  0
   -8.4390    4.1450  -11.4850 C   0  0  0  0  0  0  0  0  0  0  0  0
   -8.2730    5.3160  -10.7470 C   0  0  0  0  0  0  0  0  0  0  0  0
   -8.3920    5.2990   -9.3670 C   0  0  0  0  0  0  0  0  0  0  0  0
   -8.6390    4.0900   -8.7280 C   0  0  0  0  0  0  0  0  0  0  0  0
   -8.8130    2.9210   -9.4570 C   0  0  0  0  0  0  0  0  0  0  0  0
   -8.6780    2.9230  -10.8410 C   0  0  0  0  0  0  0  0  0  0  0  0
   -9.0780    1.7840   -8.5100 C   0  0  0  0  0  0  0  0  0  0  0  0
   -8.6080    2.3420   -7.2300 N   0  0  0  0  0  0  0  0  0  0  0  0
   -8.8270    3.7980   -7.2650 C   0  0  0  0  0  0  0  0  0  0  0  0
   -6.0460    5.0240  -15.7140 C   0  0  0  0  0  0  0  0  0  0  0  0
   -4.7130    5.3570  -15.3670 C   0  0  0  0  0  0  0  0  0  0  0  0
   -3.9240    5.4070  -16.4230 N   0  0  0  0  0  0  0  0  0  0  0  0
   -4.7220    5.0970  -17.5010 N   0  0  0  0  0  0  0  0  0  0  0  0
   -4.1550    5.0330  -18.8520 C   0  0  0  0  0  0  0  0  0  0  0  0
   -6.0150    4.8880  -17.1050 C   0  0  0  0  0  0  0  0  0  0  0  0
   -7.0660    4.5530  -17.8750 N   0  0  0  0  0  0  0  0  0  0  0  0
  2  1  1  0
  3  2  2  0
  4  3  1  0
  5  4  1  0
  6  5  2  0
  7  5  1  0
  8  7  1  0
  9  8  2  0
 10  9  1  0
 11 10  2  0
 12 11  1  0
 13  8  1  0
 13 12  2  0
 14 12  1  0
 15 14  1  0
 16 15  1  0
 16 11  1  0
 17  4  2  0
 18 17  1  0
 19 18  2  0
 20 19  1  0
 21 20  1  0
 22 17  1  0
 22 20  1  0
 23 22  2  0
 23  2  1  0
M  END
>  <smiles>  (58) 
Cc1cc(C(=O)Nc2ccc3c(c2)CNC3)c2cnn(C)c2n1

>  <inchikey>  (58) 
DPWWBACUAHQOAR-UHFFFAOYSA-N

>  <alias>  (58) 
Z3556a

$$$$
Z3559a
     RDKit          3D

 25 29  0  0  0  0  0  0  0  0999 V2000
   -4.8480    5.4580  -19.1380 C   0  0  0  0  0  0  0  0  0  0  0  0
   -5.2130    5.4330  -17.7310 N   0  0  0  0  0  0  0  0  0  0  0  0
   -4.3320    5.8450  -16.7730 N   0  0  0  0  0  0  0  0  0  0  0  0
   -4.9130    5.6620  -15.6050 C   0  0  0  0  0  0  0  0  0  0  0  0
   -6.2250    5.1560  -15.7790 C   0  0  0  0  0  0  0  0  0  0  0  0
   -7.3170    4.7560  -14.9500 C   0  0  0  0  0  0  0  0  0  0  0  0
   -7.3130    4.9410  -13.4660 C   0  0  0  0  0  0  0  0  0  0  0  0
   -6.5110    5.7150  -12.9490 O   0  0  0  0  0  0  0  0  0  0  0  0
   -8.1840    4.1820  -12.7600 N   0  0  0  0  0  0  0  0  0  0  0  0
   -8.3470    4.1420  -11.3540 C   0  0  0  0  0  0  0  0  0  0  0  0
   -8.0400    5.2560  -10.5750 C   0  0  0  0  0  0  0  0  0  0  0  0
   -8.1830    5.2100   -9.1970 C   0  0  0  0  0  0  0  0  0  0  0  0
   -8.5500    4.0110   -8.6010 C   0  0  0  0  0  0  0  0  0  0  0  0
   -8.8400    2.8920   -9.3720 C   0  0  0  0  0  0  0  0  0  0  0  0
   -8.7120    2.9290  -10.7540 C   0  0  0  0  0  0  0  0  0  0  0  0
   -9.2500    1.7620   -8.4740 C   0  0  0  0  0  0  0  0  0  0  0  0
   -8.7490    2.2250   -7.1730 N   0  0  0  0  0  0  0  0  0  0  0  0
   -8.7940    3.6940   -7.1520 C   0  0  0  0  0  0  0  0  0  0  0  0
   -8.4560    4.2990  -15.5960 C   0  0  0  0  0  0  0  0  0  0  0  0
   -8.4860    4.1850  -17.0050 C   0  0  0  0  0  0  0  0  0  0  0  0
   -9.6810    3.6510  -17.7020 C   0  0  1  0  0  0  0  0  0  0  0  0
   -9.9290    3.9710  -19.1400 C   0  0  0  0  0  0  0  0  0  0  0  0
   -9.5130    2.6140  -18.7610 C   0  0  0  0  0  0  0  0  0  0  0  0
   -7.4530    4.5220  -17.7720 N   0  0  0  0  0  0  0  0  0  0  0  0
   -6.3650    5.0160  -17.1690 C   0  0  0  0  0  0  0  0  0  0  0  0
  2  1  1  0
  3  2  1  0
  4  3  2  0
  5  4  1  0
  6  5  2  0
  7  6  1  0
  8  7  2  0
  9  7  1  0
 10  9  1  0
 11 10  2  0
 12 11  1  0
 13 12  2  0
 14 13  1  0
 15 10  1  0
 15 14  2  0
 16 14  1  0
 17 16  1  0
 18 17  1  0
 18 13  1  0
 19  6  1  0
 20 19  2  0
 21 20  1  6
 22 21  1  0
 23 22  1  0
 23 21  1  0
 24 20  1  0
 25 24  2  0
 25  5  1  0
 25  2  1  0
M  END
>  <smiles>  (59) 
Cn1ncc2c(C(=O)Nc3ccc4c(c3)CNC4)cc(C3CC3)nc21

>  <inchikey>  (59) 
LNYJGWJCZZHSQQ-UHFFFAOYSA-N

>  <alias>  (59) 
Z3559a

$$$$
Z3622a
     RDKit          3D

 28 32  0  0  0  0  0  0  0  0999 V2000
  -10.4440    4.0130  -17.6120 F   0  0  0  0  0  0  0  0  0  0  0  0
   -9.2060    4.2320  -17.0970 C   0  0  0  0  0  0  0  0  0  0  0  0
   -9.0670    4.2750  -15.7260 C   0  0  0  0  0  0  0  0  0  0  0  0
   -8.1760    4.4550  -17.9770 C   0  0  0  0  0  0  0  0  0  0  0  0
   -6.9290    4.7640  -17.4480 C   0  0  0  0  0  0  0  0  0  0  0  0
   -6.7450    4.8350  -16.0660 C   0  0  0  0  0  0  0  0  0  0  0  0
   -5.4110    5.1390  -15.7940 N   0  0  0  0  0  0  0  0  0  0  0  0
   -4.8310    5.2420  -16.9890 C   0  0  0  0  0  0  0  0  0  0  0  0
   -3.4050    5.5420  -17.2060 C   0  0  0  0  0  0  0  0  0  0  0  0
   -2.8470    5.4200  -18.4750 C   0  0  0  0  0  0  0  0  0  0  0  0
   -1.5230    5.7620  -18.6960 C   0  0  0  0  0  0  0  0  0  0  0  0
   -0.7400    6.2190  -17.6580 C   0  0  0  0  0  0  0  0  0  0  0  0
   -1.2780    6.3310  -16.3930 C   0  0  0  0  0  0  0  0  0  0  0  0
   -2.6020    5.9950  -16.1630 C   0  0  0  0  0  0  0  0  0  0  0  0
   -5.6990    5.0260  -18.0100 N   0  0  0  0  0  0  0  0  0  0  0  0
   -7.8180    4.6010  -15.1950 C   0  0  0  0  0  0  0  0  0  0  0  0
   -7.6910    4.7830  -13.7120 C   0  0  0  0  0  0  0  0  0  0  0  0
   -6.9650    5.6600  -13.2480 O   0  0  0  0  0  0  0  0  0  0  0  0
   -8.4290    3.9400  -12.9460 N   0  0  0  0  0  0  0  0  0  0  0  0
   -8.5150    3.9250  -11.5310 C   0  0  0  0  0  0  0  0  0  0  0  0
   -8.7560    2.7320  -10.8520 C   0  0  0  0  0  0  0  0  0  0  0  0
   -8.8690    2.7290   -9.4650 C   0  0  0  0  0  0  0  0  0  0  0  0
   -9.2120    1.6010   -8.5370 C   0  0  0  0  0  0  0  0  0  0  0  0
   -8.8600    2.1910   -7.2520 N   0  0  0  0  0  0  0  0  0  0  0  0
   -8.8260    3.6490   -7.2790 C   0  0  0  0  0  0  0  0  0  0  0  0
   -8.7070    3.9080   -8.7510 C   0  0  0  0  0  0  0  0  0  0  0  0
   -8.4630    5.0970   -9.4310 C   0  0  0  0  0  0  0  0  0  0  0  0
   -8.3760    5.1090  -10.8110 C   0  0  0  0  0  0  0  0  0  0  0  0
  2  1  1  0
  3  2  2  0
  4  2  1  0
  5  4  2  0
  6  5  1  0
  7  6  1  0
  8  7  2  0
  9  8  1  0
 10  9  2  0
 11 10  1  0
 12 11  2  0
 13 12  1  0
 14 13  2  0
 14  9  1  0
 15  5  1  0
 15  8  1  0
 16  6  2  0
 16  3  1  0
 17 16  1  0
 18 17  2  0
 19 17  1  0
 20 19  1  0
 21 20  2  0
 22 21  1  0
 23 22  1  0
 24 23  1  0
 25 24  1  0
 26 25  1  0
 26 22  2  0
 27 26  1  0
 28 20  1  0
 28 27  2  0
M  END
>  <smiles>  (60) 
O=C(Nc1ccc2c(c1)CNC2)c1cc(F)cc2[nH]c(-c3ccccc3)nc12

>  <inchikey>  (60) 
DWEGWCUYPPIYDT-UHFFFAOYSA-N

>  <alias>  (60) 
Z3622a

$$$$
Z3665a
     RDKit          3D

 27 31  0  0  0  0  0  0  0  0999 V2000
   -6.5450    5.4170  -12.8880 O   0  0  0  0  0  0  0  0  0  0  0  0
   -7.4190    4.7530  -13.4360 C   0  0  0  0  0  0  0  0  0  0  0  0
   -7.4800    4.6510  -14.9320 C   0  0  0  0  0  0  0  0  0  0  0  0
   -6.3890    5.0600  -15.7060 C   0  0  0  0  0  0  0  0  0  0  0  0
   -6.4640    5.0140  -17.1020 C   0  0  0  0  0  0  0  0  0  0  0  0
   -5.5570    5.3520  -18.1750 C   0  0  0  0  0  0  0  0  0  0  0  0
   -4.1760    5.9440  -18.0640 C   0  0  1  0  0  0  0  0  0  0  0  0
   -4.1360    7.4160  -17.6420 C   0  0  0  0  0  0  0  0  0  0  0  0
   -2.7360    7.9540  -17.9110 C   0  0  0  0  0  0  0  0  0  0  0  0
   -1.6970    7.1480  -17.1910 N   0  0  0  0  0  0  0  0  0  0  0  0
   -1.7760    5.6820  -17.4990 C   0  0  0  0  0  0  0  0  0  0  0  0
   -3.1740    5.1350  -17.2370 C   0  0  0  0  0  0  0  0  0  0  0  0
   -6.2180    5.0600  -19.3340 C   0  0  0  0  0  0  0  0  0  0  0  0
   -7.4670    4.5760  -19.0600 N   0  0  0  0  0  0  0  0  0  0  0  0
   -7.6450    4.5380  -17.6990 C   0  0  0  0  0  0  0  0  0  0  0  0
   -8.7280    4.1160  -16.9410 C   0  0  0  0  0  0  0  0  0  0  0  0
   -8.6380    4.1820  -15.5620 C   0  0  0  0  0  0  0  0  0  0  0  0
   -8.3670    4.0700  -12.7380 N   0  0  0  0  0  0  0  0  0  0  0  0
   -8.4890    3.9910  -11.3140 C   0  0  0  0  0  0  0  0  0  0  0  0
   -8.7340    2.7880  -10.6470 C   0  0  0  0  0  0  0  0  0  0  0  0
   -8.7930    2.7550   -9.2530 C   0  0  0  0  0  0  0  0  0  0  0  0
   -9.0750    1.6020   -8.3340 C   0  0  0  0  0  0  0  0  0  0  0  0
   -8.7960    2.1710   -6.9990 N   0  0  0  0  0  0  0  0  0  0  0  0
   -8.6750    3.6350   -7.0500 C   0  0  0  0  0  0  0  0  0  0  0  0
   -8.5960    3.9170   -8.5220 C   0  0  0  0  0  0  0  0  0  0  0  0
   -8.3600    5.1160   -9.1880 C   0  0  0  0  0  0  0  0  0  0  0  0
   -8.3180    5.1570  -10.5720 C   0  0  0  0  0  0  0  0  0  0  0  0
  2  1  2  0
  3  2  1  0
  4  3  2  0
  5  4  1  0
  6  5  1  0
  7  6  1  1
  8  7  1  0
  9  8  1  0
 10  9  1  0
 11 10  1  0
 12 11  1  0
 12  7  1  0
 13  6  2  0
 14 13  1  0
 15 14  1  0
 15  5  2  0
 16 15  1  0
 17 16  2  0
 17  3  1  0
 18  2  1  0
 19 18  1  0
 20 19  2  0
 21 20  1  0
 22 21  1  0
 23 22  1  0
 24 23  1  0
 25 24  1  0
 25 21  2  0
 26 25  1  0
 27 19  1  0
 27 26  2  0
M  END
>  <smiles>  (61) 
O=C(Nc1ccc2c(c1)CNC2)c1ccc2[nH]cc(C3CCNCC3)c2c1

>  <inchikey>  (61) 
WUVCHUBJGOBPOQ-UHFFFAOYSA-N

>  <alias>  (61) 
Z3665a

$$$$
Z3677a
     RDKit          3D

 22 25  0  0  0  0  0  0  0  0999 V2000
   -6.6760    5.4760  -13.3230 O   0  0  0  0  0  0  0  0  0  0  0  0
   -7.4490    4.6330  -13.7660 C   0  0  0  0  0  0  0  0  0  0  0  0
   -7.5860    4.4200  -15.2410 C   0  0  0  0  0  0  0  0  0  0  0  0
   -6.5230    4.7070  -16.0990 C   0  0  0  0  0  0  0  0  0  0  0  0
   -8.8050    3.9970  -15.7870 C   0  0  0  0  0  0  0  0  0  0  0  0
   -8.9710    3.8670  -17.1590 C   0  0  0  0  0  0  0  0  0  0  0  0
   -7.8870    4.1310  -17.9900 C   0  0  0  0  0  0  0  0  0  0  0  0
   -6.6690    4.5610  -17.4750 C   0  0  0  0  0  0  0  0  0  0  0  0
   -5.7210    4.7590  -18.6220 C   0  0  0  0  0  0  0  0  0  0  0  0
   -7.7670    3.9570  -19.3730 N   0  0  0  0  0  0  0  0  0  0  0  0
   -6.5220    4.2820  -19.8150 C   0  0  0  0  0  0  0  0  0  0  0  0
   -6.1220    4.1650  -20.9770 O   0  0  0  0  0  0  0  0  0  0  0  0
   -8.2690    3.8850  -12.9760 N   0  0  0  0  0  0  0  0  0  0  0  0
   -8.4190    3.9490  -11.5640 C   0  0  0  0  0  0  0  0  0  0  0  0
   -8.6720    2.7870  -10.8330 C   0  0  0  0  0  0  0  0  0  0  0  0
   -8.7520    2.8380   -9.4420 C   0  0  0  0  0  0  0  0  0  0  0  0
   -9.0670    1.7450   -8.4630 C   0  0  0  0  0  0  0  0  0  0  0  0
   -8.7330    2.3870   -7.1900 N   0  0  0  0  0  0  0  0  0  0  0  0
   -8.6300    3.8390   -7.2920 C   0  0  0  0  0  0  0  0  0  0  0  0
   -8.5640    4.0420   -8.7770 C   0  0  0  0  0  0  0  0  0  0  0  0
   -8.3360    5.2040   -9.5090 C   0  0  0  0  0  0  0  0  0  0  0  0
   -8.2730    5.1610  -10.8920 C   0  0  0  0  0  0  0  0  0  0  0  0
  2  1  2  0
  3  2  1  0
  4  3  2  0
  5  3  1  0
  6  5  2  0
  7  6  1  0
  8  7  2  0
  8  4  1  0
  9  8  1  0
 10  7  1  0
 11 10  1  0
 11  9  1  0
 12 11  2  0
 13  2  1  0
 14 13  1  0
 15 14  2  0
 16 15  1  0
 17 16  1  0
 18 17  1  0
 19 18  1  0
 20 19  1  0
 20 16  2  0
 21 20  1  0
 22 14  1  0
 22 21  2  0
M  END
>  <smiles>  (62) 
O=C1Cc2cc(C(=O)Nc3ccc4c(c3)CNC4)ccc2N1

>  <inchikey>  (62) 
QDANXSJPLDZYDO-UHFFFAOYSA-N

>  <alias>  (62) 
Z3677a

$$$$
Z3729a
     RDKit          3D

 21 24  0  0  0  0  0  0  0  0999 V2000
   -6.5150    5.3060  -12.8210 O   0  0  0  0  0  0  0  0  0  0  0  0
   -7.3630    4.6120  -13.3790 C   0  0  0  0  0  0  0  0  0  0  0  0
   -7.4250    4.5300  -14.8750 C   0  0  0  0  0  0  0  0  0  0  0  0
   -8.5950    4.1960  -15.5590 C   0  0  0  0  0  0  0  0  0  0  0  0
   -8.6050    4.1790  -16.9610 C   0  0  0  0  0  0  0  0  0  0  0  0
   -9.5910    3.8710  -17.9580 C   0  0  0  0  0  0  0  0  0  0  0  0
   -8.9840    3.9930  -19.1670 C   0  0  0  0  0  0  0  0  0  0  0  0
   -7.6710    4.3590  -18.9990 N   0  0  0  0  0  0  0  0  0  0  0  0
   -7.4190    4.4990  -17.6530 C   0  0  0  0  0  0  0  0  0  0  0  0
   -6.2540    4.8570  -16.9830 C   0  0  0  0  0  0  0  0  0  0  0  0
   -6.2620    4.8570  -15.5960 C   0  0  0  0  0  0  0  0  0  0  0  0
   -8.2920    3.9030  -12.6930 N   0  0  0  0  0  0  0  0  0  0  0  0
   -8.4550    3.8820  -11.2770 C   0  0  0  0  0  0  0  0  0  0  0  0
   -8.6640    2.6870  -10.5890 C   0  0  0  0  0  0  0  0  0  0  0  0
   -8.7590    2.6850   -9.1940 C   0  0  0  0  0  0  0  0  0  0  0  0
   -9.0730    1.5490   -8.2660 C   0  0  0  0  0  0  0  0  0  0  0  0
   -8.8700    2.1610   -6.9410 N   0  0  0  0  0  0  0  0  0  0  0  0
   -8.8200    3.6310   -7.0150 C   0  0  0  0  0  0  0  0  0  0  0  0
   -8.6450    3.8720   -8.4860 C   0  0  0  0  0  0  0  0  0  0  0  0
   -8.4430    5.0650   -9.1760 C   0  0  0  0  0  0  0  0  0  0  0  0
   -8.3560    5.0730  -10.5610 C   0  0  0  0  0  0  0  0  0  0  0  0
  2  1  2  0
  3  2  1  0
  4  3  2  0
  5  4  1  0
  6  5  1  0
  7  6  2  0
  8  7  1  0
  9  8  1  0
  9  5  2  0
 10  9  1  0
 11 10  2  0
 11  3  1  0
 12  2  1  0
 13 12  1  0
 14 13  2  0
 15 14  1  0
 16 15  1  0
 17 16  1  0
 18 17  1  0
 19 18  1  0
 19 15  2  0
 20 19  1  0
 21 13  1  0
 21 20  2  0
M  END
>  <smiles>  (63) 
O=C(Nc1ccc2c(c1)CNC2)c1ccc2[nH]ccc2c1

>  <inchikey>  (63) 
HPSOSXRYCXJEKK-UHFFFAOYSA-N

>  <alias>  (63) 
Z3729a

$$$$
Z3733a
     RDKit          3D

 21 24  0  0  0  0  0  0  0  0999 V2000
   -6.5920    5.3560  -13.2270 O   0  0  0  0  0  0  0  0  0  0  0  0
   -7.5580    4.7500  -13.6800 C   0  0  0  0  0  0  0  0  0  0  0  0
   -7.7280    4.5970  -15.1590 C   0  0  0  0  0  0  0  0  0  0  0  0
   -6.7170    4.9990  -16.0530 C   0  0  0  0  0  0  0  0  0  0  0  0
   -5.4500    5.4310  -15.8510 N   0  0  0  0  0  0  0  0  0  0  0  0
   -4.7910    5.6210  -17.0320 N   0  0  0  0  0  0  0  0  0  0  0  0
   -5.6510    5.3220  -17.9860 C   0  0  0  0  0  0  0  0  0  0  0  0
   -6.8970    4.9100  -17.4470 C   0  0  0  0  0  0  0  0  0  0  0  0
   -8.1050    4.4130  -17.9420 C   0  0  0  0  0  0  0  0  0  0  0  0
   -9.0950    3.9960  -17.0670 C   0  0  0  0  0  0  0  0  0  0  0  0
   -8.9120    4.0810  -15.6910 C   0  0  0  0  0  0  0  0  0  0  0  0
   -8.5030    4.1610  -12.9060 N   0  0  0  0  0  0  0  0  0  0  0  0
   -8.5400    4.1100  -11.4900 C   0  0  0  0  0  0  0  0  0  0  0  0
   -8.8570    2.9240  -10.8290 C   0  0  0  0  0  0  0  0  0  0  0  0
   -8.8900    2.8880   -9.4380 C   0  0  0  0  0  0  0  0  0  0  0  0
   -9.2760    1.7640   -8.5220 C   0  0  0  0  0  0  0  0  0  0  0  0
   -8.9510    2.3120   -7.2050 N   0  0  0  0  0  0  0  0  0  0  0  0
   -8.6310    3.7330   -7.2330 C   0  0  0  0  0  0  0  0  0  0  0  0
   -8.5780    4.0230   -8.7050 C   0  0  0  0  0  0  0  0  0  0  0  0
   -8.2660    5.2060   -9.3670 C   0  0  0  0  0  0  0  0  0  0  0  0
   -8.2530    5.2530  -10.7490 C   0  0  0  0  0  0  0  0  0  0  0  0
  2  1  2  0
  3  2  1  0
  4  3  2  0
  5  4  1  0
  6  5  1  0
  7  6  2  0
  8  7  1  0
  8  4  1  0
  9  8  2  0
 10  9  1  0
 11 10  2  0
 11  3  1  0
 12  2  1  0
 13 12  1  0
 14 13  2  0
 15 14  1  0
 16 15  1  0
 17 16  1  0
 18 17  1  0
 19 18  1  0
 19 15  2  0
 20 19  1  0
 21 13  1  0
 21 20  2  0
M  END
>  <smiles>  (64) 
O=C(Nc1ccc2c(c1)CNC2)c1cccc2cn[nH]c12

>  <inchikey>  (64) 
NUNDPDNYDUMFHN-UHFFFAOYSA-N

>  <alias>  (64) 
Z3733a

$$$$
Z3746a
     RDKit          3D

 21 23  0  0  0  0  0  0  0  0999 V2000
   -4.0040    5.3120  -18.8110 O   0  0  0  0  0  0  0  0  0  0  0  0
   -5.1100    5.1470  -18.3000 C   0  0  0  0  0  0  0  0  0  0  0  0
   -6.2470    4.8190  -18.9700 N   0  0  0  0  0  0  0  0  0  0  0  0
   -7.3090    4.5870  -18.0990 C   0  0  0  0  0  0  0  0  0  0  0  0
   -8.5980    4.1520  -18.3840 C   0  0  0  0  0  0  0  0  0  0  0  0
   -9.4860    3.9730  -17.3340 C   0  0  0  0  0  0  0  0  0  0  0  0
   -9.0950    4.2190  -16.0240 C   0  0  0  0  0  0  0  0  0  0  0  0
   -5.4470    5.2010  -16.8250 C   0  0  0  0  0  0  0  0  0  0  0  0
   -6.8980    4.8280  -16.7930 C   0  0  0  0  0  0  0  0  0  0  0  0
   -7.8010    4.6490  -15.7350 C   0  0  0  0  0  0  0  0  0  0  0  0
   -7.4310    4.9180  -14.3010 C   0  0  0  0  0  0  0  0  0  0  0  0
   -6.4110    5.5360  -14.0080 O   0  0  0  0  0  0  0  0  0  0  0  0
   -8.3100    4.4560  -13.3780 N   0  0  0  0  0  0  0  0  0  0  0  0
   -8.2470    4.5940  -11.9720 C   0  0  0  0  0  0  0  0  0  0  0  0
   -7.8160    5.7790  -11.3970 C   0  0  0  0  0  0  0  0  0  0  0  0
   -7.8240    5.9160  -10.0210 C   0  0  0  0  0  0  0  0  0  0  0  0
   -8.2630    4.8750   -9.2170 C   0  0  0  0  0  0  0  0  0  0  0  0
   -8.6890    3.5540  -11.1590 C   0  0  0  0  0  0  0  0  0  0  0  0
   -8.7180    3.6910   -9.7760 C   0  0  0  0  0  0  0  0  0  0  0  0
   -9.3550    2.6320   -8.9110 C   0  0  0  0  0  0  0  0  0  0  0  0
   -8.3970    1.6150   -8.5050 N   0  0  0  0  0  0  0  0  0  0  0  0
  2  1  2  0
  3  2  1  0
  4  3  1  0
  5  4  2  0
  6  5  1  0
  7  6  2  0
  8  2  1  0
  9  4  1  0
  9  8  1  0
 10  9  2  0
 10  7  1  0
 11 10  1  0
 12 11  2  0
 13 11  1  0
 14 13  1  0
 15 14  2  0
 16 15  1  0
 17 16  2  0
 18 14  1  0
 19 18  2  0
 19 17  1  0
 20 19  1  0
 21 20  1  0
M  END
>  <smiles>  (65) 
NCc1cccc(NC(=O)c2cccc3c2CC(=O)N3)c1

>  <inchikey>  (65) 
HQSWEWUQCXVKEY-UHFFFAOYSA-N

>  <alias>  (65) 
Z3746a

$$$$
Z3758a
     RDKit          3D

 22 24  0  0  0  0  0  0  0  0999 V2000
   -4.0450    5.3030  -19.1240 O   0  0  0  0  0  0  0  0  0  0  0  0
   -5.1210    5.0800  -18.5750 C   0  0  0  0  0  0  0  0  0  0  0  0
   -6.2540    4.6660  -19.2010 N   0  0  0  0  0  0  0  0  0  0  0  0
   -7.3070    4.4980  -18.3050 C   0  0  0  0  0  0  0  0  0  0  0  0
   -8.6120    4.0920  -18.5520 C   0  0  0  0  0  0  0  0  0  0  0  0
   -9.4780    3.9510  -17.4790 C   0  0  0  0  0  0  0  0  0  0  0  0
   -9.0520    4.2100  -16.1810 C   0  0  0  0  0  0  0  0  0  0  0  0
   -5.4370    5.2180  -17.1010 C   0  0  0  0  0  0  0  0  0  0  0  0
   -6.8650    4.7730  -17.0150 C   0  0  0  0  0  0  0  0  0  0  0  0
   -7.7460    4.6270  -15.9320 C   0  0  0  0  0  0  0  0  0  0  0  0
   -7.3390    4.9500  -14.5220 C   0  0  0  0  0  0  0  0  0  0  0  0
   -6.4050    5.7140  -14.2950 O   0  0  0  0  0  0  0  0  0  0  0  0
   -8.1500    4.4640  -13.5480 N   0  0  0  0  0  0  0  0  0  0  0  0
   -8.1720    4.8590  -12.1870 C   0  0  0  0  0  0  0  0  0  0  0  0
   -7.9750    6.2080  -11.9240 C   0  0  0  0  0  0  0  0  0  0  0  0
   -8.0150    6.6650  -10.6210 C   0  0  0  0  0  0  0  0  0  0  0  0
   -8.2570    5.7880   -9.5790 C   0  0  0  0  0  0  0  0  0  0  0  0
   -8.4050    3.9790  -11.1330 C   0  0  0  0  0  0  0  0  0  0  0  0
   -8.4520    4.4350   -9.8180 C   0  0  0  0  0  0  0  0  0  0  0  0
   -8.6810    3.4880   -8.6620 C   0  0  0  0  0  0  0  0  0  0  0  0
   -9.0810    2.0610   -9.0490 C   0  0  0  0  0  0  0  0  0  0  0  0
   -8.9910    1.2580   -7.8240 N   0  0  0  0  0  0  0  0  0  0  0  0
  2  1  2  0
  3  2  1  0
  4  3  1  0
  5  4  2  0
  6  5  1  0
  7  6  2  0
  8  2  1  0
  9  4  1  0
  9  8  1  0
 10  9  2  0
 10  7  1  0
 11 10  1  0
 12 11  2  0
 13 11  1  0
 14 13  1  0
 15 14  2  0
 16 15  1  0
 17 16  2  0
 18 14  1  0
 19 18  2  0
 19 17  1  0
 20 19  1  0
 21 20  1  0
 22 21  1  0
M  END
>  <smiles>  (66) 
NCCc1cccc(NC(=O)c2cccc3c2CC(=O)N3)c1

>  <inchikey>  (66) 
SHWUFEVHIVZGKD-UHFFFAOYSA-N

>  <alias>  (66) 
Z3758a

$$$$
Z3792a
     RDKit          3D

 24 28  0  0  0  0  0  0  0  0999 V2000
   -6.4630    5.2860  -13.2410 O   0  0  0  0  0  0  0  0  0  0  0  0
   -7.4060    4.6500  -13.7070 C   0  0  0  0  0  0  0  0  0  0  0  0
   -7.5810    4.5070  -15.1910 C   0  0  0  0  0  0  0  0  0  0  0  0
   -6.5660    4.8660  -16.0940 C   0  0  0  0  0  0  0  0  0  0  0  0
   -5.2630    5.2650  -15.8670 N   0  0  0  0  0  0  0  0  0  0  0  0
   -4.6370    5.4320  -17.0880 C   0  0  0  0  0  0  0  0  0  0  0  0
   -3.2360    5.6500  -17.5750 C   0  0  0  0  0  0  0  0  0  0  0  0
   -3.3560    5.5320  -19.1030 C   0  0  0  0  0  0  0  0  0  0  0  0
   -4.8490    5.4240  -19.4410 C   0  0  0  0  0  0  0  0  0  0  0  0
   -5.5190    5.1900  -18.0990 C   0  0  0  0  0  0  0  0  0  0  0  0
   -6.7600    4.7970  -17.4880 C   0  0  0  0  0  0  0  0  0  0  0  0
   -7.9770    4.3340  -17.9810 C   0  0  0  0  0  0  0  0  0  0  0  0
   -8.9780    3.9610  -17.0950 C   0  0  0  0  0  0  0  0  0  0  0  0
   -8.7860    4.0450  -15.7210 C   0  0  0  0  0  0  0  0  0  0  0  0
   -8.3290    4.0180  -12.9380 N   0  0  0  0  0  0  0  0  0  0  0  0
   -8.3810    3.9870  -11.5220 C   0  0  0  0  0  0  0  0  0  0  0  0
   -8.6720    2.8020  -10.8500 C   0  0  0  0  0  0  0  0  0  0  0  0
   -8.7630    2.7930   -9.4610 C   0  0  0  0  0  0  0  0  0  0  0  0
   -9.0910    1.6590   -8.5360 C   0  0  0  0  0  0  0  0  0  0  0  0
   -8.7660    2.2410   -7.2370 N   0  0  0  0  0  0  0  0  0  0  0  0
   -8.6570    3.7010   -7.2670 C   0  0  0  0  0  0  0  0  0  0  0  0
   -8.5370    3.9580   -8.7390 C   0  0  0  0  0  0  0  0  0  0  0  0
   -8.2390    5.1390   -9.4150 C   0  0  0  0  0  0  0  0  0  0  0  0
   -8.1680    5.1560  -10.7960 C   0  0  0  0  0  0  0  0  0  0  0  0
  2  1  2  0
  3  2  1  0
  4  3  2  0
  5  4  1  0
  6  5  1  0
  7  6  1  0
  8  7  1  0
  9  8  1  0
 10  9  1  0
 10  6  2  0
 11 10  1  0
 11  4  1  0
 12 11  2  0
 13 12  1  0
 14 13  2  0
 14  3  1  0
 15  2  1  0
 16 15  1  0
 17 16  2  0
 18 17  1  0
 19 18  1  0
 20 19  1  0
 21 20  1  0
 22 21  1  0
 22 18  2  0
 23 22  1  0
 24 16  1  0
 24 23  2  0
M  END
>  <smiles>  (67) 
O=C(Nc1ccc2c(c1)CNC2)c1cccc2c3c([nH]c12)CCC3

>  <inchikey>  (67) 
JWOQOAUDGHYUDO-UHFFFAOYSA-N

>  <alias>  (67) 
Z3792a

$$$$
Z3799a
     RDKit          3D

 24 27  0  0  0  0  0  0  0  0999 V2000
   -6.7270    6.0510  -14.3340 O   0  0  0  0  0  0  0  0  0  0  0  0
   -7.2850    4.9770  -14.5480 C   0  0  0  0  0  0  0  0  0  0  0  0
   -7.7530    4.6160  -15.9270 C   0  0  0  0  0  0  0  0  0  0  0  0
   -6.9300    4.7890  -17.0450 C   0  0  0  0  0  0  0  0  0  0  0  0
   -5.5180    5.2640  -17.1850 C   0  0  0  0  0  0  0  0  0  0  0  0
   -9.0420    4.1200  -16.1130 C   0  0  0  0  0  0  0  0  0  0  0  0
   -9.5040    3.8080  -17.3850 C   0  0  0  0  0  0  0  0  0  0  0  0
   -8.6930    3.9800  -18.4970 C   0  0  0  0  0  0  0  0  0  0  0  0
   -7.4040    4.4680  -18.3110 C   0  0  0  0  0  0  0  0  0  0  0  0
   -6.3960    4.6710  -19.2480 N   0  0  0  0  0  0  0  0  0  0  0  0
   -5.2550    5.1270  -18.6680 C   0  0  0  0  0  0  0  0  0  0  0  0
   -4.2090    5.3820  -19.2590 O   0  0  0  0  0  0  0  0  0  0  0  0
   -7.4890    4.0700  -13.5800 N   0  0  0  0  0  0  0  0  0  0  0  0
   -8.4140    4.3010  -12.4700 C   0  0  1  0  0  0  0  0  0  0  0  0
   -8.3460    3.1960  -11.4030 C   0  0  0  0  0  0  0  0  0  0  0  0
   -8.0950    3.9210  -10.1590 N   0  0  0  0  0  0  0  0  0  0  0  0
   -7.4900    5.2220  -10.4320 C   0  0  0  0  0  0  0  0  0  0  0  0
   -8.1540    5.6330  -11.7320 C   0  0  0  0  0  0  0  0  0  0  0  0
   -8.3920    3.4690   -8.8900 C   0  0  0  0  0  0  0  0  0  0  0  0
   -8.6590    2.1600   -8.7720 N   0  0  0  0  0  0  0  0  0  0  0  0
   -8.9320    1.6970   -7.5440 C   0  0  0  0  0  0  0  0  0  0  0  0
   -8.9440    2.4830   -6.4150 C   0  0  0  0  0  0  0  0  0  0  0  0
   -8.6780    3.8220   -6.5520 C   0  0  0  0  0  0  0  0  0  0  0  0
   -8.3960    4.3470   -7.7990 C   0  0  0  0  0  0  0  0  0  0  0  0
  2  1  2  0
  3  2  1  0
  4  3  2  0
  5  4  1  0
  6  3  1  0
  7  6  2  0
  8  7  1  0
  9  8  2  0
  9  4  1  0
 10  9  1  0
 11 10  1  0
 11  5  1  0
 12 11  2  0
 13  2  1  0
 14 13  1  6
 15 14  1  0
 16 15  1  0
 17 16  1  0
 18 14  1  0
 18 17  1  0
 19 16  1  0
 20 19  2  0
 21 20  1  0
 22 21  2  0
 23 22  1  0
 24 23  2  0
 24 19  1  0
M  END
>  <smiles>  (68) 
O=C1Cc2c(cccc2C(=O)N[C@@H]2CCN(c3ccccn3)C2)N1

>  <inchikey>  (68) 
HAZUYGZWRQNNJE-GFCCVEGCSA-N

>  <alias>  (68) 
Z3799a

$$$$
Z3813a
     RDKit          3D

 22 24  0  0  0  0  0  0  0  0999 V2000
   -3.7970    5.0910  -18.5530 O   0  0  0  0  0  0  0  0  0  0  0  0
   -4.9550    5.0130  -18.1560 C   0  0  0  0  0  0  0  0  0  0  0  0
   -6.0310    4.6890  -18.9220 N   0  0  0  0  0  0  0  0  0  0  0  0
   -7.1910    4.5700  -18.1560 C   0  0  0  0  0  0  0  0  0  0  0  0
   -8.4630    4.1660  -18.5440 C   0  0  0  0  0  0  0  0  0  0  0  0
   -9.4300    3.9820  -17.5670 C   0  0  0  0  0  0  0  0  0  0  0  0
   -9.1380    4.2010  -16.2270 C   0  0  0  0  0  0  0  0  0  0  0  0
   -5.4420    5.1940  -16.7350 C   0  0  0  0  0  0  0  0  0  0  0  0
   -6.8900    4.8180  -16.8220 C   0  0  0  0  0  0  0  0  0  0  0  0
   -7.8710    4.6360  -15.8420 C   0  0  0  0  0  0  0  0  0  0  0  0
   -7.5870    4.9120  -14.3960 C   0  0  0  0  0  0  0  0  0  0  0  0
   -6.7460    5.7450  -14.0620 O   0  0  0  0  0  0  0  0  0  0  0  0
   -8.3380    4.2180  -13.5100 N   0  0  0  0  0  0  0  0  0  0  0  0
   -8.3320    4.3730  -12.1070 C   0  0  0  0  0  0  0  0  0  0  0  0
   -7.9800    5.6070  -11.5710 C   0  0  0  0  0  0  0  0  0  0  0  0
   -8.0090    5.8230  -10.2030 C   0  0  0  0  0  0  0  0  0  0  0  0
   -7.6490    7.1720   -9.6300 C   0  0  0  0  0  0  0  0  0  0  0  0
   -8.7180    3.3440  -11.2630 C   0  0  0  0  0  0  0  0  0  0  0  0
   -8.7790    3.5410   -9.8910 C   0  0  0  0  0  0  0  0  0  0  0  0
   -8.4030    4.7760   -9.3770 C   0  0  0  0  0  0  0  0  0  0  0  0
   -9.3490    2.4730   -8.9940 C   0  0  0  0  0  0  0  0  0  0  0  0
   -8.2980    1.5970   -8.4850 N   0  0  0  0  0  0  0  0  0  0  0  0
  2  1  2  0
  3  2  1  0
  4  3  1  0
  5  4  2  0
  6  5  1  0
  7  6  2  0
  8  2  1  0
  9  4  1  0
  9  8  1  0
 10  9  2  0
 10  7  1  0
 11 10  1  0
 12 11  2  0
 13 11  1  0
 14 13  1  0
 15 14  2  0
 16 15  1  0
 17 16  1  0
 18 14  1  0
 19 18  2  0
 20 19  1  0
 20 16  2  0
 21 19  1  0
 22 21  1  0
M  END
>  <smiles>  (69) 
Cc1cc(CN)cc(NC(=O)c2cccc3c2CC(=O)N3)c1

>  <inchikey>  (69) 
ACLYMOZSBKAVNS-UHFFFAOYSA-N

>  <alias>  (69) 
Z3813a

$$$$
Z3817a
     RDKit          3D

 23 26  0  0  0  0  0  0  0  0999 V2000
   -6.7800    5.3810  -13.2760 O   0  0  0  0  0  0  0  0  0  0  0  0
   -7.6520    4.6450  -13.7360 C   0  0  0  0  0  0  0  0  0  0  0  0
   -7.8650    4.5620  -15.2170 C   0  0  0  0  0  0  0  0  0  0  0  0
   -9.0990    4.2120  -15.7650 C   0  0  0  0  0  0  0  0  0  0  0  0
   -9.2830    4.1630  -17.1440 C   0  0  0  0  0  0  0  0  0  0  0  0
   -8.2440    4.4550  -18.0150 C   0  0  0  0  0  0  0  0  0  0  0  0
   -6.9970    4.8070  -17.5010 C   0  0  0  0  0  0  0  0  0  0  0  0
   -6.8220    4.8570  -16.1050 C   0  0  0  0  0  0  0  0  0  0  0  0
   -5.5150    5.2100  -15.8480 N   0  0  0  0  0  0  0  0  0  0  0  0
   -5.7330    5.1450  -18.0970 C   0  0  0  0  0  0  0  0  0  0  0  0
   -5.4510    5.1650  -19.5700 C   0  0  0  0  0  0  0  0  0  0  0  0
   -4.8650    5.3860  -17.0420 C   0  0  0  0  0  0  0  0  0  0  0  0
   -3.4190    5.7640  -17.0510 C   0  0  0  0  0  0  0  0  0  0  0  0
   -8.4650    3.8800  -12.9640 N   0  0  0  0  0  0  0  0  0  0  0  0
   -8.4990    3.8520  -11.5480 C   0  0  0  0  0  0  0  0  0  0  0  0
   -8.7460    2.6750  -10.8430 C   0  0  0  0  0  0  0  0  0  0  0  0
   -8.8030    2.6910   -9.4510 C   0  0  0  0  0  0  0  0  0  0  0  0
   -9.0930    1.5730   -8.4950 C   0  0  0  0  0  0  0  0  0  0  0  0
   -8.9040    2.2100   -7.1930 N   0  0  0  0  0  0  0  0  0  0  0  0
   -8.7280    3.6580   -7.2830 C   0  0  0  0  0  0  0  0  0  0  0  0
   -8.5950    3.8760   -8.7610 C   0  0  0  0  0  0  0  0  0  0  0  0
   -8.3310    5.0460   -9.4670 C   0  0  0  0  0  0  0  0  0  0  0  0
   -8.2940    5.0370  -10.8480 C   0  0  0  0  0  0  0  0  0  0  0  0
  2  1  2  0
  3  2  1  0
  4  3  2  0
  5  4  1  0
  6  5  2  0
  7  6  1  0
  8  7  2  0
  8  3  1  0
  9  8  1  0
 10  7  1  0
 11 10  1  0
 12 10  2  0
 12  9  1  0
 13 12  1  0
 14  2  1  0
 15 14  1  0
 16 15  2  0
 17 16  1  0
 18 17  1  0
 19 18  1  0
 20 19  1  0
 21 20  1  0
 21 17  2  0
 22 21  1  0
 23 15  1  0
 23 22  2  0
M  END
>  <smiles>  (70) 
Cc1[nH]c2c(C(=O)Nc3ccc4c(c3)CNC4)cccc2c1C

>  <inchikey>  (70) 
QQFQXOCLGVFGFB-UHFFFAOYSA-N

>  <alias>  (70) 
Z3817a

$$$$
Z3831a
     RDKit          3D

 22 25  0  0  0  0  0  0  0  0999 V2000
   -6.8020    5.5060  -13.3510 O   0  0  0  0  0  0  0  0  0  0  0  0
   -7.6710    4.7530  -13.7830 C   0  0  0  0  0  0  0  0  0  0  0  0
   -7.8530    4.5650  -15.2580 C   0  0  0  0  0  0  0  0  0  0  0  0
   -6.7700    4.7220  -16.1300 C   0  0  0  0  0  0  0  0  0  0  0  0
   -5.2970    4.8300  -15.8780 C   0  0  0  0  0  0  0  0  0  0  0  0
   -9.1210    4.3620  -15.7940 C   0  0  0  0  0  0  0  0  0  0  0  0
   -9.3160    4.3620  -17.1700 C   0  0  0  0  0  0  0  0  0  0  0  0
   -8.2510    4.5590  -18.0390 C   0  0  0  0  0  0  0  0  0  0  0  0
   -6.9750    4.7300  -17.5040 C   0  0  0  0  0  0  0  0  0  0  0  0
   -5.7560    4.9270  -18.1510 N   0  0  0  0  0  0  0  0  0  0  0  0
   -4.7210    4.9820  -17.2690 C   0  0  0  0  0  0  0  0  0  0  0  0
   -3.5340    5.1020  -17.5680 O   0  0  0  0  0  0  0  0  0  0  0  0
   -8.4930    4.0400  -12.9770 N   0  0  0  0  0  0  0  0  0  0  0  0
   -8.5200    4.0730  -11.5740 C   0  0  0  0  0  0  0  0  0  0  0  0
   -8.7330    2.8920  -10.9750 N   0  0  0  0  0  0  0  0  0  0  0  0
   -8.8290    2.8910   -9.6370 C   0  0  0  0  0  0  0  0  0  0  0  0
   -9.1530    1.7730   -8.7020 C   0  0  0  0  0  0  0  0  0  0  0  0
   -8.8850    2.2840   -7.3670 N   0  0  0  0  0  0  0  0  0  0  0  0
   -8.8440    3.7450   -7.3680 C   0  0  0  0  0  0  0  0  0  0  0  0
   -8.6900    4.0300   -8.8330 C   0  0  0  0  0  0  0  0  0  0  0  0
   -8.4470    5.2360   -9.4820 C   0  0  0  0  0  0  0  0  0  0  0  0
   -8.3650    5.2750  -10.8610 C   0  0  0  0  0  0  0  0  0  0  0  0
  2  1  2  0
  3  2  1  0
  4  3  2  0
  5  4  1  0
  6  3  1  0
  7  6  2  0
  8  7  1  0
  9  8  2  0
  9  4  1  0
 10  9  1  0
 11 10  1  0
 11  5  1  0
 12 11  2  0
 13  2  1  0
 14 13  1  0
 15 14  2  0
 16 15  1  0
 17 16  1  0
 18 17  1  0
 19 18  1  0
 20 19  1  0
 20 16  2  0
 21 20  1  0
 22 14  1  0
 22 21  2  0
M  END
>  <smiles>  (71) 
O=C1Cc2c(cccc2C(=O)Nc2ccc3c(n2)CNC3)N1

>  <inchikey>  (71) 
MGCAZFAVYBYTMO-UHFFFAOYSA-N

>  <alias>  (71) 
Z3831a

$$$$
Z3834a
     RDKit          3D

 24 28  0  0  0  0  0  0  0  0999 V2000
   -6.6110    5.4790  -13.5840 O   0  0  0  0  0  0  0  0  0  0  0  0
   -7.4440    4.6720  -13.9910 C   0  0  0  0  0  0  0  0  0  0  0  0
   -7.6960    4.5130  -15.4590 C   0  0  0  0  0  0  0  0  0  0  0  0
   -6.7220    4.8540  -16.4130 C   0  0  0  0  0  0  0  0  0  0  0  0
   -5.4100    5.2570  -16.2510 N   0  0  0  0  0  0  0  0  0  0  0  0
   -4.8390    5.4120  -17.4950 C   0  0  0  0  0  0  0  0  0  0  0  0
   -3.4880    5.7210  -18.0630 C   0  0  0  0  0  0  0  0  0  0  0  0
   -3.6270    5.3510  -19.5400 C   0  0  0  0  0  0  0  0  0  0  0  0
   -5.1240    5.2840  -19.8340 C   0  0  0  0  0  0  0  0  0  0  0  0
   -5.7600    5.1360  -18.4640 C   0  0  0  0  0  0  0  0  0  0  0  0
   -6.9810    4.7720  -17.7940 C   0  0  0  0  0  0  0  0  0  0  0  0
   -8.2340    4.3400  -18.2240 C   0  0  0  0  0  0  0  0  0  0  0  0
   -9.1970    3.9890  -17.2890 C   0  0  0  0  0  0  0  0  0  0  0  0
   -8.9340    4.0690  -15.9260 C   0  0  0  0  0  0  0  0  0  0  0  0
   -8.2210    3.9170  -13.1740 N   0  0  0  0  0  0  0  0  0  0  0  0
   -8.2840    3.9630  -11.7580 C   0  0  0  0  0  0  0  0  0  0  0  0
   -8.6390    2.8260  -11.0330 C   0  0  0  0  0  0  0  0  0  0  0  0
   -8.7260    2.8830   -9.6430 C   0  0  0  0  0  0  0  0  0  0  0  0
   -9.1110    1.8120   -8.6660 C   0  0  0  0  0  0  0  0  0  0  0  0
   -8.6970    2.4230   -7.4010 N   0  0  0  0  0  0  0  0  0  0  0  0
   -8.5520    3.8750   -7.4930 C   0  0  0  0  0  0  0  0  0  0  0  0
   -8.4470    4.0680   -8.9770 C   0  0  0  0  0  0  0  0  0  0  0  0
   -8.0990    5.2020   -9.7030 C   0  0  0  0  0  0  0  0  0  0  0  0
   -8.0190    5.1520  -11.0830 C   0  0  0  0  0  0  0  0  0  0  0  0
  2  1  2  0
  3  2  1  0
  4  3  2  0
  5  4  1  0
  6  5  1  0
  7  6  1  0
  8  7  1  0
  9  8  1  0
 10  9  1  0
 10  6  2  0
 11 10  1  0
 11  4  1  0
 12 11  2  0
 13 12  1  0
 14 13  2  0
 14  3  1  0
 15  2  1  0
 16 15  1  0
 17 16  2  0
 18 17  1  0
 19 18  1  0
 20 19  1  0
 21 20  1  0
 22 21  1  0
 22 18  2  0
 23 22  1  0
 24 16  1  0
 24 23  2  0
M  END
>  <smiles>  (72) 
O=C(Nc1ccc2c(c1)CNC2)c1cccc2c3c([nH]c12)CCC3

>  <inchikey>  (72) 
JWOQOAUDGHYUDO-UHFFFAOYSA-N

>  <alias>  (72) 
Z3834a

$$$$
Z3837a
     RDKit          3D

 23 26  0  0  0  0  0  0  0  0999 V2000
   -6.4670    5.4060  -13.3120 O   0  0  0  0  0  0  0  0  0  0  0  0
   -7.3860    4.7230  -13.7570 C   0  0  0  0  0  0  0  0  0  0  0  0
   -7.5900    4.5660  -15.2360 C   0  0  0  0  0  0  0  0  0  0  0  0
   -6.5480    4.7340  -16.1580 C   0  0  0  0  0  0  0  0  0  0  0  0
   -5.0880    5.0220  -15.9850 C   0  0  0  0  0  0  0  0  0  0  0  0
   -8.8660    4.2720  -15.7140 C   0  0  0  0  0  0  0  0  0  0  0  0
   -9.1040    4.1650  -17.0780 C   0  0  0  0  0  0  0  0  0  0  0  0
   -8.0810    4.3420  -17.9960 C   0  0  0  0  0  0  0  0  0  0  0  0
   -6.8010    4.6120  -17.5200 C   0  0  0  0  0  0  0  0  0  0  0  0
   -5.6060    4.7330  -18.2290 N   0  0  0  0  0  0  0  0  0  0  0  0
   -4.5510    4.9500  -17.3990 C   0  0  0  0  0  0  0  0  0  0  0  0
   -3.3760    5.0320  -17.7480 O   0  0  0  0  0  0  0  0  0  0  0  0
   -8.3040    4.1070  -12.9680 N   0  0  0  0  0  0  0  0  0  0  0  0
   -8.3980    4.1590  -11.5530 C   0  0  0  0  0  0  0  0  0  0  0  0
   -8.6630    3.0110  -10.8120 C   0  0  0  0  0  0  0  0  0  0  0  0
   -8.6950    3.0480   -9.4170 C   0  0  0  0  0  0  0  0  0  0  0  0
   -9.0350    1.8090   -8.6260 C   0  0  0  0  0  0  0  0  0  0  0  0
   -8.5970    1.9000   -7.2340 N   0  0  0  0  0  0  0  0  0  0  0  0
   -9.0800    3.1420   -6.6210 C   0  0  0  0  0  0  0  0  0  0  0  0
   -8.4090    4.3410   -7.2480 C   0  0  0  0  0  0  0  0  0  0  0  0
   -8.4390    4.2630   -8.7570 C   0  0  0  0  0  0  0  0  0  0  0  0
   -8.1920    5.4050   -9.5140 C   0  0  0  0  0  0  0  0  0  0  0  0
   -8.1820    5.3610  -10.8950 C   0  0  0  0  0  0  0  0  0  0  0  0
  2  1  2  0
  3  2  1  0
  4  3  2  0
  5  4  1  0
  6  3  1  0
  7  6  2  0
  8  7  1  0
  9  8  2  0
  9  4  1  0
 10  9  1  0
 11 10  1  0
 11  5  1  0
 12 11  2  0
 13  2  1  0
 14 13  1  0
 15 14  2  0
 16 15  1  0
 17 16  1  0
 18 17  1  0
 19 18  1  0
 20 19  1  0
 21 20  1  0
 21 16  2  0
 22 21  1  0
 23 14  1  0
 23 22  2  0
M  END
>  <smiles>  (73) 
O=C1Cc2c(cccc2C(=O)Nc2ccc3c(c2)CNCC3)N1

>  <inchikey>  (73) 
UXCUTWMWRWDNCZ-UHFFFAOYSA-N

>  <alias>  (73) 
Z3837a

$$$$
Z3856a
     RDKit          3D

 23 26  0  0  0  0  0  0  0  0999 V2000
   -6.6090    5.2920  -13.5130 O   0  0  0  0  0  0  0  0  0  0  0  0
   -7.5480    4.5960  -13.8900 C   0  0  0  0  0  0  0  0  0  0  0  0
   -7.8260    4.4200  -15.3520 C   0  0  0  0  0  0  0  0  0  0  0  0
   -9.0930    4.0400  -15.7930 C   0  0  0  0  0  0  0  0  0  0  0  0
   -9.3800    3.9390  -17.1490 C   0  0  0  0  0  0  0  0  0  0  0  0
   -8.4110    4.2040  -18.1060 C   0  0  0  0  0  0  0  0  0  0  0  0
   -7.1320    4.5780  -17.7060 C   0  0  0  0  0  0  0  0  0  0  0  0
   -6.8500    4.6800  -16.3290 C   0  0  0  0  0  0  0  0  0  0  0  0
   -5.5280    5.0410  -16.1880 N   0  0  0  0  0  0  0  0  0  0  0  0
   -4.9740    5.1810  -17.4310 C   0  0  0  0  0  0  0  0  0  0  0  0
   -5.9140    4.8980  -18.3940 C   0  0  0  0  0  0  0  0  0  0  0  0
   -5.7080    4.8810  -19.8160 C   0  0  0  0  0  0  0  0  0  0  0  0
   -5.5040    4.8970  -20.9480 N   0  0  0  0  0  0  0  0  0  0  0  0
   -8.4000    3.9600  -13.0440 N   0  0  0  0  0  0  0  0  0  0  0  0
   -8.4020    3.9870  -11.6240 C   0  0  0  0  0  0  0  0  0  0  0  0
   -8.6650    2.8200  -10.9090 C   0  0  0  0  0  0  0  0  0  0  0  0
   -8.7370    2.8530   -9.5190 C   0  0  0  0  0  0  0  0  0  0  0  0
   -9.0910    1.7550   -8.5600 C   0  0  0  0  0  0  0  0  0  0  0  0
   -8.9430    2.4080   -7.2680 N   0  0  0  0  0  0  0  0  0  0  0  0
   -8.6580    3.8380   -7.3590 C   0  0  0  0  0  0  0  0  0  0  0  0
   -8.5170    4.0430   -8.8380 C   0  0  0  0  0  0  0  0  0  0  0  0
   -8.2330    5.2010   -9.5520 C   0  0  0  0  0  0  0  0  0  0  0  0
   -8.1830    5.1780  -10.9350 C   0  0  0  0  0  0  0  0  0  0  0  0
  2  1  2  0
  3  2  1  0
  4  3  2  0
  5  4  1  0
  6  5  2  0
  7  6  1  0
  8  7  2  0
  8  3  1  0
  9  8  1  0
 10  9  1  0
 11  7  1  0
 11 10  2  0
 12 11  1  0
 13 12  3  0
 14  2  1  0
 15 14  1  0
 16 15  2  0
 17 16  1  0
 18 17  1  0
 19 18  1  0
 20 19  1  0
 21 20  1  0
 21 17  2  0
 22 21  1  0
 23 15  1  0
 23 22  2  0
M  END
>  <smiles>  (74) 
N#Cc1c[nH]c2c(C(=O)Nc3ccc4c(c3)CNC4)cccc12

>  <inchikey>  (74) 
LFCFADNCZRJYKM-UHFFFAOYSA-N

>  <alias>  (74) 
Z3856a

$$$$
Z3858a
     RDKit          3D

 24 27  0  0  0  0  0  0  0  0999 V2000
   -6.7120    5.4410  -13.8770 O   0  0  0  0  0  0  0  0  0  0  0  0
   -7.6830    4.7760  -14.2340 C   0  0  0  0  0  0  0  0  0  0  0  0
   -7.9830    4.5530  -15.6910 C   0  0  0  0  0  0  0  0  0  0  0  0
   -7.0120    4.7500  -16.6830 C   0  0  0  0  0  0  0  0  0  0  0  0
   -5.5640    5.1220  -16.5990 C   0  0  0  0  0  0  0  0  0  0  0  0
   -9.2530    4.1320  -16.0820 C   0  0  0  0  0  0  0  0  0  0  0  0
   -9.5520    3.9190  -17.4220 C   0  0  0  0  0  0  0  0  0  0  0  0
   -8.5960    4.1190  -18.4070 C   0  0  0  0  0  0  0  0  0  0  0  0
   -7.3280    4.5380  -18.0210 C   0  0  0  0  0  0  0  0  0  0  0  0
   -6.2060    4.7920  -18.8060 N   0  0  0  0  0  0  0  0  0  0  0  0
   -5.1230    5.1140  -18.0470 C   0  0  0  0  0  0  0  0  0  0  0  0
   -3.9910    5.3280  -18.4760 O   0  0  0  0  0  0  0  0  0  0  0  0
   -8.5460    4.2100  -13.3570 N   0  0  0  0  0  0  0  0  0  0  0  0
   -8.4920    4.2980  -11.9420 C   0  0  0  0  0  0  0  0  0  0  0  0
   -8.7970    3.1950  -11.1530 C   0  0  0  0  0  0  0  0  0  0  0  0
   -8.8420    3.3010   -9.7660 C   0  0  0  0  0  0  0  0  0  0  0  0
   -9.2230    2.1110   -8.9500 C   0  0  0  0  0  0  0  0  0  0  0  0
   -8.1120    1.8550   -8.0390 N   0  0  0  0  0  0  0  0  0  0  0  0
   -8.2480    2.5850   -6.7670 C   0  0  0  0  0  0  0  0  0  0  0  0
   -7.8000    4.0100   -6.9620 C   0  0  0  0  0  0  0  0  0  0  0  0
   -8.6830    4.7490   -7.8270 O   0  0  0  0  0  0  0  0  0  0  0  0
   -8.5470    4.5370   -9.1860 C   0  0  0  0  0  0  0  0  0  0  0  0
   -8.2080    5.6320   -9.9630 C   0  0  0  0  0  0  0  0  0  0  0  0
   -8.1910    5.5130  -11.3400 C   0  0  0  0  0  0  0  0  0  0  0  0
  2  1  2  0
  3  2  1  0
  4  3  2  0
  5  4  1  0
  6  3  1  0
  7  6  2  0
  8  7  1  0
  9  8  2  0
  9  4  1  0
 10  9  1  0
 11 10  1  0
 11  5  1  0
 12 11  2  0
 13  2  1  0
 14 13  1  0
 15 14  2  0
 16 15  1  0
 17 16  1  0
 18 17  1  0
 19 18  1  0
 20 19  1  0
 21 20  1  0
 22 21  1  0
 22 16  2  0
 23 22  1  0
 24 14  1  0
 24 23  2  0
M  END
>  <smiles>  (75) 
O=C1Cc2c(cccc2C(=O)Nc2ccc3c(c2)CNCCO3)N1

>  <inchikey>  (75) 
KDMYRCNDTBSQHQ-UHFFFAOYSA-N

>  <alias>  (75) 
Z3858a

$$$$
Z3936a
     RDKit          3D

 23 26  0  0  0  0  0  0  0  0999 V2000
   -8.5450    4.8230   -6.6710 O   0  0  0  0  0  0  0  0  0  0  0  0
   -8.6730    4.0170   -7.5900 C   0  0  0  0  0  0  0  0  0  0  0  0
   -8.5330    4.2530   -9.0390 C   0  0  0  0  0  0  0  0  0  0  0  0
   -8.2270    5.4060   -9.7590 C   0  0  0  0  0  0  0  0  0  0  0  0
   -8.1440    5.3550  -11.1400 C   0  0  0  0  0  0  0  0  0  0  0  0
   -8.9800    2.7140   -7.4510 N   0  0  0  0  0  0  0  0  0  0  0  0
   -9.0770    1.9860   -8.7080 C   0  0  0  0  0  0  0  0  0  0  0  0
   -8.7500    3.0600   -9.7040 C   0  0  0  0  0  0  0  0  0  0  0  0
   -8.6590    3.0060  -11.0900 C   0  0  0  0  0  0  0  0  0  0  0  0
   -8.3670    4.1580  -11.8160 C   0  0  0  0  0  0  0  0  0  0  0  0
   -8.3650    4.1150  -13.2340 N   0  0  0  0  0  0  0  0  0  0  0  0
   -7.5330    4.7800  -14.0750 C   0  0  0  0  0  0  0  0  0  0  0  0
   -6.6220    5.5040  -13.6890 O   0  0  0  0  0  0  0  0  0  0  0  0
   -7.7960    4.6010  -15.5410 C   0  0  0  0  0  0  0  0  0  0  0  0
   -6.7820    4.7980  -16.4850 C   0  0  0  0  0  0  0  0  0  0  0  0
   -5.3410    5.1800  -16.3410 C   0  0  0  0  0  0  0  0  0  0  0  0
   -9.0670    4.2420  -15.9860 C   0  0  0  0  0  0  0  0  0  0  0  0
   -9.3200    4.0730  -17.3420 C   0  0  0  0  0  0  0  0  0  0  0  0
   -8.3170    4.2600  -18.2820 C   0  0  0  0  0  0  0  0  0  0  0  0
   -7.0490    4.6270  -17.8390 C   0  0  0  0  0  0  0  0  0  0  0  0
   -5.8900    4.8690  -18.5730 N   0  0  0  0  0  0  0  0  0  0  0  0
   -4.8380    5.1740  -17.7680 C   0  0  0  0  0  0  0  0  0  0  0  0
   -3.6830    5.3700  -18.1440 O   0  0  0  0  0  0  0  0  0  0  0  0
  2  1  2  0
  3  2  1  0
  4  3  2  0
  5  4  1  0
  6  2  1  0
  7  6  1  0
  8  7  1  0
  8  3  1  0
  9  8  2  0
 10  9  1  0
 10  5  2  0
 11 10  1  0
 12 11  1  0
 13 12  2  0
 14 12  1  0
 15 14  2  0
 16 15  1  0
 17 14  1  0
 18 17  2  0
 19 18  1  0
 20 19  2  0
 20 15  1  0
 21 20  1  0
 22 21  1  0
 22 16  1  0
 23 22  2  0
M  END
>  <smiles>  (76) 
O=C1Cc2c(cccc2C(=O)Nc2ccc3c(c2)CNC3=O)N1

>  <inchikey>  (76) 
YKUMRMVLZPSRBN-UHFFFAOYSA-N

>  <alias>  (76) 
Z3936a

$$$$
Z3970a
     RDKit          3D

 22 25  0  0  0  0  0  0  0  0999 V2000
   -6.8410    5.5900  -13.3130 O   0  0  0  0  0  0  0  0  0  0  0  0
   -7.6790    4.8080  -13.7590 C   0  0  0  0  0  0  0  0  0  0  0  0
   -7.7960    4.5740  -15.2290 C   0  0  0  0  0  0  0  0  0  0  0  0
   -6.6940    4.8450  -16.0360 C   0  0  0  0  0  0  0  0  0  0  0  0
   -8.9770    4.1100  -15.8160 C   0  0  0  0  0  0  0  0  0  0  0  0
   -9.0730    3.9290  -17.1880 C   0  0  0  0  0  0  0  0  0  0  0  0
   -7.9590    4.2090  -17.9720 C   0  0  0  0  0  0  0  0  0  0  0  0
   -6.7720    4.6620  -17.4070 C   0  0  0  0  0  0  0  0  0  0  0  0
   -5.7780    4.8660  -18.5100 C   0  0  0  0  0  0  0  0  0  0  0  0
   -7.8040    4.1140  -19.3570 N   0  0  0  0  0  0  0  0  0  0  0  0
   -6.5490    4.4580  -19.7470 C   0  0  0  0  0  0  0  0  0  0  0  0
   -6.1260    4.4170  -20.8980 O   0  0  0  0  0  0  0  0  0  0  0  0
   -8.5030    4.0650  -12.9800 N   0  0  0  0  0  0  0  0  0  0  0  0
   -8.5280    4.0270  -11.5630 C   0  0  0  0  0  0  0  0  0  0  0  0
   -8.7320    2.8420  -10.8720 C   0  0  0  0  0  0  0  0  0  0  0  0
   -8.8140    2.8610   -9.4840 C   0  0  0  0  0  0  0  0  0  0  0  0
   -9.0880    1.7510   -8.5130 C   0  0  0  0  0  0  0  0  0  0  0  0
   -8.8320    2.3710   -7.2250 N   0  0  0  0  0  0  0  0  0  0  0  0
   -8.8000    3.8150   -7.3560 C   0  0  0  0  0  0  0  0  0  0  0  0
   -8.6600    4.0860   -8.8180 C   0  0  0  0  0  0  0  0  0  0  0  0
   -8.4450    5.2330   -9.4790 N   0  0  0  0  0  0  0  0  0  0  0  0
   -8.3840    5.1910  -10.8160 C   0  0  0  0  0  0  0  0  0  0  0  0
  2  1  2  0
  3  2  1  0
  4  3  2  0
  5  3  1  0
  6  5  2  0
  7  6  1  0
  8  7  2  0
  8  4  1  0
  9  8  1  0
 10  7  1  0
 11 10  1  0
 11  9  1  0
 12 11  2  0
 13  2  1  0
 14 13  1  0
 15 14  2  0
 16 15  1  0
 17 16  1  0
 18 17  1  0
 19 18  1  0
 20 19  1  0
 20 16  2  0
 21 20  1  0
 22 14  1  0
 22 21  2  0
M  END
>  <smiles>  (77) 
O=C1Cc2cc(C(=O)Nc3cnc4c(c3)CNC4)ccc2N1

>  <inchikey>  (77) 
QMPZYBMNQVTYSC-UHFFFAOYSA-N

>  <alias>  (77) 
Z3970a

$$$$
Z4017a
     RDKit          3D

 23 26  0  0  0  0  0  0  0  0999 V2000
   -6.5820    5.3400  -12.8530 O   0  0  0  0  0  0  0  0  0  0  0  0
   -7.4620    4.6700  -13.3860 C   0  0  0  0  0  0  0  0  0  0  0  0
   -7.5230    4.5290  -14.8750 C   0  0  0  0  0  0  0  0  0  0  0  0
   -8.7130    4.3000  -15.5600 C   0  0  0  0  0  0  0  0  0  0  0  0
   -6.3340    4.6830  -15.5990 C   0  0  0  0  0  0  0  0  0  0  0  0
   -6.3260    4.5980  -16.9800 C   0  0  0  0  0  0  0  0  0  0  0  0
   -7.5040    4.3600  -17.6820 C   0  0  0  0  0  0  0  0  0  0  0  0
   -8.7020    4.2330  -16.9500 C   0  0  0  0  0  0  0  0  0  0  0  0
  -10.0660    4.0170  -18.0040 S   0  0  0  0  0  0  0  0  0  0  0  0
   -9.0460    4.0400  -19.3910 C   0  0  0  0  0  0  0  0  0  0  0  0
   -7.7300    4.2150  -19.0920 C   0  0  0  0  0  0  0  0  0  0  0  0
   -6.7150    4.1520  -20.1050 C   0  0  0  0  0  0  0  0  0  0  0  0
   -5.8720    4.0830  -20.8690 N   0  0  0  0  0  0  0  0  0  0  0  0
   -8.3930    3.9900  -12.6710 N   0  0  0  0  0  0  0  0  0  0  0  0
   -8.4880    3.9570  -11.2470 C   0  0  0  0  0  0  0  0  0  0  0  0
   -8.7310    2.7520  -10.5930 C   0  0  0  0  0  0  0  0  0  0  0  0
   -8.7680    2.7060   -9.1980 C   0  0  0  0  0  0  0  0  0  0  0  0
   -9.0410    1.5410   -8.2940 C   0  0  0  0  0  0  0  0  0  0  0  0
   -8.7970    2.1090   -6.9550 N   0  0  0  0  0  0  0  0  0  0  0  0
   -8.6340    3.5700   -6.9870 C   0  0  0  0  0  0  0  0  0  0  0  0
   -8.5770    3.8670   -8.4570 C   0  0  0  0  0  0  0  0  0  0  0  0
   -8.3520    5.0740   -9.1120 C   0  0  0  0  0  0  0  0  0  0  0  0
   -8.3020    5.1180  -10.4990 C   0  0  0  0  0  0  0  0  0  0  0  0
  2  1  2  0
  3  2  1  0
  4  3  2  0
  5  3  1  0
  6  5  2  0
  7  6  1  0
  8  7  2  0
  8  4  1  0
  9  8  1  0
 10  9  1  0
 11 10  2  0
 11  7  1  0
 12 11  1  0
 13 12  3  0
 14  2  1  0
 15 14  1  0
 16 15  2  0
 17 16  1  0
 18 17  1  0
 19 18  1  0
 20 19  1  0
 21 20  1  0
 21 17  2  0
 22 21  1  0
 23 15  1  0
 23 22  2  0
M  END
>  <smiles>  (78) 
N#Cc1csc2cc(C(=O)Nc3ccc4c(c3)CNC4)ccc12

>  <inchikey>  (78) 
PWVXJLXKWPJFRW-UHFFFAOYSA-N

>  <alias>  (78) 
Z4017a

$$$$
Z4020a
     RDKit          3D

 24 28  0  0  0  0  0  0  0  0999 V2000
   -5.9980    4.3610  -20.7150 O   0  0  0  0  0  0  0  0  0  0  0  0
   -6.4930    4.4880  -19.6060 C   0  0  0  0  0  0  0  0  0  0  0  0
   -7.6750    3.9750  -19.1830 N   0  0  0  0  0  0  0  0  0  0  0  0
   -7.8880    4.2170  -17.8140 C   0  0  0  0  0  0  0  0  0  0  0  0
   -8.9420    3.8200  -17.0000 C   0  0  0  0  0  0  0  0  0  0  0  0
   -8.8550    4.0620  -15.6400 C   0  0  0  0  0  0  0  0  0  0  0  0
   -5.8680    5.1850  -18.4130 C   0  0  1  0  0  0  0  0  0  0  0  0
   -4.3480    5.2770  -18.3010 C   0  0  0  0  0  0  0  0  0  0  0  0
   -5.1290    6.5020  -18.6280 C   0  0  0  0  0  0  0  0  0  0  0  0
   -6.7860    4.8830  -17.2840 C   0  0  0  0  0  0  0  0  0  0  0  0
   -6.7060    5.1220  -15.9220 C   0  0  0  0  0  0  0  0  0  0  0  0
   -7.7380    4.6970  -15.0900 C   0  0  0  0  0  0  0  0  0  0  0  0
   -7.5950    4.8840  -13.6140 C   0  0  0  0  0  0  0  0  0  0  0  0
   -6.7850    5.6880  -13.1570 O   0  0  0  0  0  0  0  0  0  0  0  0
   -8.4050    4.1160  -12.8450 N   0  0  0  0  0  0  0  0  0  0  0  0
   -8.4920    4.1110  -11.4320 C   0  0  0  0  0  0  0  0  0  0  0  0
   -8.7740    2.9220  -10.7670 C   0  0  0  0  0  0  0  0  0  0  0  0
   -8.8810    2.9090   -9.3820 C   0  0  0  0  0  0  0  0  0  0  0  0
   -9.2110    1.7680   -8.4670 C   0  0  0  0  0  0  0  0  0  0  0  0
   -8.9780    2.3630   -7.1530 N   0  0  0  0  0  0  0  0  0  0  0  0
   -8.8670    3.8230   -7.1870 C   0  0  0  0  0  0  0  0  0  0  0  0
   -8.6930    4.0780   -8.6560 C   0  0  0  0  0  0  0  0  0  0  0  0
   -8.4030    5.2620   -9.3220 C   0  0  0  0  0  0  0  0  0  0  0  0
   -8.3070    5.2820  -10.7020 C   0  0  0  0  0  0  0  0  0  0  0  0
  2  1  2  0
  3  2  1  0
  4  3  1  0
  5  4  2  0
  6  5  1  0
  7  2  1  0
  7  8  1  1
  9  7  1  0
  9  8  1  0
 10  7  1  0
 10  4  1  0
 11 10  2  0
 12 11  1  0
 12  6  2  0
 13 12  1  0
 14 13  2  0
 15 13  1  0
 16 15  1  0
 17 16  2  0
 18 17  1  0
 19 18  1  0
 20 19  1  0
 21 20  1  0
 22 21  1  0
 22 18  2  0
 23 22  1  0
 24 16  1  0
 24 23  2  0
M  END
>  <smiles>  (79) 
O=C(Nc1ccc2c(c1)CNC2)c1ccc2c(c1)C1(CC1)C(=O)N2

>  <inchikey>  (79) 
HNQCLDOLKLVJSE-UHFFFAOYSA-N

>  <alias>  (79) 
Z4020a

$$$$
Z4025a
     RDKit          3D

 25 28  0  0  0  0  0  0  0  0999 V2000
   -6.8960    5.6760  -14.1020 O   0  0  0  0  0  0  0  0  0  0  0  0
   -7.6930    4.8330  -14.4970 C   0  0  0  0  0  0  0  0  0  0  0  0
   -7.9170    4.5910  -15.9650 C   0  0  0  0  0  0  0  0  0  0  0  0
   -6.9200    4.8310  -16.9260 C   0  0  0  0  0  0  0  0  0  0  0  0
   -5.4900    5.2600  -16.7990 C   0  0  0  0  0  0  0  0  0  0  0  0
   -9.1530    4.1070  -16.3930 C   0  0  0  0  0  0  0  0  0  0  0  0
   -9.3950    3.8680  -17.7390 C   0  0  0  0  0  0  0  0  0  0  0  0
   -8.4110    4.0970  -18.6900 C   0  0  0  0  0  0  0  0  0  0  0  0
   -7.1790    4.5860  -18.2690 C   0  0  0  0  0  0  0  0  0  0  0  0
   -6.0310    4.8490  -19.0170 N   0  0  0  0  0  0  0  0  0  0  0  0
   -4.9830    5.1960  -18.2240 C   0  0  0  0  0  0  0  0  0  0  0  0
   -3.8220    5.3480  -18.6020 O   0  0  0  0  0  0  0  0  0  0  0  0
   -8.4370    4.0720  -13.6240 N   0  0  0  0  0  0  0  0  0  0  0  0
   -8.3760    4.1430  -12.2200 C   0  0  0  0  0  0  0  0  0  0  0  0
   -8.0520    5.1920  -11.3960 C   0  0  0  0  0  0  0  0  0  0  0  0
   -8.1540    4.7310  -10.1370 N   0  0  0  0  0  0  0  0  0  0  0  0
   -8.5380    3.4310  -10.0910 N   0  0  0  0  0  0  0  0  0  0  0  0
   -8.6660    3.0810  -11.3600 C   0  0  0  0  0  0  0  0  0  0  0  0
   -7.8870    5.4520   -8.8830 C   0  0  0  0  0  0  0  0  0  0  0  0
   -6.4710    5.2690   -8.3820 C   0  0  0  0  0  0  0  0  0  0  0  0
   -5.6170    4.3440   -8.9540 C   0  0  0  0  0  0  0  0  0  0  0  0
   -4.3330    4.2140   -8.4600 C   0  0  0  0  0  0  0  0  0  0  0  0
   -3.8530    4.9370   -7.4430 N   0  0  0  0  0  0  0  0  0  0  0  0
   -4.6870    5.8290   -6.8970 C   0  0  0  0  0  0  0  0  0  0  0  0
   -5.9850    6.0230   -7.3260 C   0  0  0  0  0  0  0  0  0  0  0  0
  2  1  2  0
  3  2  1  0
  4  3  2  0
  5  4  1  0
  6  3  1  0
  7  6  2  0
  8  7  1  0
  9  8  2  0
  9  4  1  0
 10  9  1  0
 11 10  1  0
 11  5  1  0
 12 11  2  0
 13  2  1  0
 14 13  1  0
 15 14  2  0
 16 15  1  0
 17 16  1  0
 18 14  1  0
 18 17  2  0
 19 16  1  0
 20 19  1  0
 21 20  2  0
 22 21  1  0
 23 22  2  0
 24 23  1  0
 25 20  1  0
 25 24  2  0
M  END
>  <smiles>  (80) 
O=C1Cc2c(cccc2C(=O)Nc2cnn(Cc3ccncc3)c2)N1

>  <inchikey>  (80) 
MBDWRZYGZSFUAL-UHFFFAOYSA-N

>  <alias>  (80) 
Z4025a

$$$$
Z4103a
     RDKit          3D

 26 30  0  0  0  0  0  0  0  0999 V2000
  -10.4020    4.0060  -17.9890 Cl  0  0  0  0  0  0  0  0  0  0  0  0
   -8.8750    4.2770  -17.1900 C   0  0  0  0  0  0  0  0  0  0  0  0
   -8.8270    4.2840  -15.8020 C   0  0  0  0  0  0  0  0  0  0  0  0
   -7.7540    4.4970  -17.9640 C   0  0  0  0  0  0  0  0  0  0  0  0
   -6.5530    4.7400  -17.3150 C   0  0  0  0  0  0  0  0  0  0  0  0
   -5.3020    4.9840  -17.8000 N   0  0  0  0  0  0  0  0  0  0  0  0
   -4.9010    5.0770  -19.2070 C   0  0  1  0  0  0  0  0  0  0  0  0
   -4.7560    6.4860  -19.8140 C   0  0  0  0  0  0  0  0  0  0  0  0
   -3.5640    5.9690  -20.5290 N   0  0  0  0  0  0  0  0  0  0  0  0
   -3.4280    4.8280  -19.5920 C   0  0  0  0  0  0  0  0  0  0  0  0
   -4.4000    5.1610  -16.7870 N   0  0  0  0  0  0  0  0  0  0  0  0
   -5.0800    5.0390  -15.6640 C   0  0  0  0  0  0  0  0  0  0  0  0
   -6.4500    4.7670  -15.9120 C   0  0  0  0  0  0  0  0  0  0  0  0
   -7.6130    4.5370  -15.1490 C   0  0  0  0  0  0  0  0  0  0  0  0
   -7.5420    4.6860  -13.6470 C   0  0  0  0  0  0  0  0  0  0  0  0
   -6.7140    5.4440  -13.1410 O   0  0  0  0  0  0  0  0  0  0  0  0
   -8.4110    3.9560  -12.8910 N   0  0  0  0  0  0  0  0  0  0  0  0
   -8.5120    3.9750  -11.4630 C   0  0  0  0  0  0  0  0  0  0  0  0
   -8.7220    2.7930  -10.7560 C   0  0  0  0  0  0  0  0  0  0  0  0
   -8.8450    2.8150   -9.3660 C   0  0  0  0  0  0  0  0  0  0  0  0
   -9.1340    1.6880   -8.4210 C   0  0  0  0  0  0  0  0  0  0  0  0
   -8.8410    2.3010   -7.1260 N   0  0  0  0  0  0  0  0  0  0  0  0
   -8.8720    3.7810   -7.1970 C   0  0  0  0  0  0  0  0  0  0  0  0
   -8.7260    4.0120   -8.6730 C   0  0  0  0  0  0  0  0  0  0  0  0
   -8.5000    5.1920   -9.3740 C   0  0  0  0  0  0  0  0  0  0  0  0
   -8.4040    5.1790  -10.7590 C   0  0  0  0  0  0  0  0  0  0  0  0
  2  1  1  0
  3  2  2  0
  4  2  1  0
  5  4  2  0
  6  5  1  0
  7  6  1  1
  8  7  1  0
  9  8  1  0
 10  7  1  0
 10  9  1  0
 11  6  1  0
 12 11  2  0
 13  5  1  0
 13 12  1  0
 14 13  2  0
 14  3  1  0
 15 14  1  0
 16 15  2  0
 17 15  1  0
 18 17  1  0
 19 18  2  0
 20 19  1  0
 21 20  1  0
 22 21  1  0
 23 22  1  0
 24 23  1  0
 24 20  2  0
 25 24  1  0
 26 18  1  0
 26 25  2  0
M  END
>  <smiles>  (81) 
O=C(Nc1ccc2c(c1)CNC2)c1cc(Cl)cc2c1cnn2C1CNC1

>  <inchikey>  (81) 
BOZVCOAXVOVAGF-UHFFFAOYSA-N

>  <alias>  (81) 
Z4103a

$$$$
Z4117a
     RDKit          3D

 28 32  0  0  0  0  0  0  0  0999 V2000
   -6.3960    5.3580  -12.8290 O   0  0  0  0  0  0  0  0  0  0  0  0
   -7.2690    4.6810  -13.3700 C   0  0  0  0  0  0  0  0  0  0  0  0
   -7.3360    4.5690  -14.8620 C   0  0  0  0  0  0  0  0  0  0  0  0
   -8.5190    4.1110  -15.4520 C   0  0  0  0  0  0  0  0  0  0  0  0
   -8.6570    4.0460  -16.8260 C   0  0  0  0  0  0  0  0  0  0  0  0
   -6.2640    4.9680  -15.6640 C   0  0  0  0  0  0  0  0  0  0  0  0
   -6.3820    4.9110  -17.0580 C   0  0  0  0  0  0  0  0  0  0  0  0
   -7.5850    4.4410  -17.6150 C   0  0  0  0  0  0  0  0  0  0  0  0
   -7.4380    4.4400  -18.9790 N   0  0  0  0  0  0  0  0  0  0  0  0
   -6.1950    4.9050  -19.2920 C   0  0  0  0  0  0  0  0  0  0  0  0
   -5.5010    5.2110  -18.1580 C   0  0  0  0  0  0  0  0  0  0  0  0
   -4.1020    5.7600  -18.1030 C   0  0  2  0  0  0  0  0  0  0  0  0
   -3.0510    4.8430  -17.4950 C   0  0  0  0  0  0  0  0  0  0  0  0
   -1.6830    5.4120  -17.8890 C   0  0  0  0  0  0  0  0  0  0  0  0
   -3.9510    7.1740  -17.5470 C   0  0  0  0  0  0  0  0  0  0  0  0
   -2.5450    7.6600  -17.9280 C   0  0  0  0  0  0  0  0  0  0  0  0
   -1.5070    6.7770  -17.3820 N   0  0  0  0  0  0  0  0  0  0  0  0
   -0.1700    7.2820  -17.7160 C   0  0  0  0  0  0  0  0  0  0  0  0
   -8.2330    4.0100  -12.6740 N   0  0  0  0  0  0  0  0  0  0  0  0
   -8.4020    3.9600  -11.2610 C   0  0  0  0  0  0  0  0  0  0  0  0
   -8.6280    2.7520  -10.6000 C   0  0  0  0  0  0  0  0  0  0  0  0
   -8.7400    2.7260   -9.2070 C   0  0  0  0  0  0  0  0  0  0  0  0
   -9.0270    1.5700   -8.2950 C   0  0  0  0  0  0  0  0  0  0  0  0
   -8.6740    2.1390   -6.9810 N   0  0  0  0  0  0  0  0  0  0  0  0
   -8.6950    3.6150   -7.0020 C   0  0  0  0  0  0  0  0  0  0  0  0
   -8.6110    3.9000   -8.4730 C   0  0  0  0  0  0  0  0  0  0  0  0
   -8.4040    5.1040   -9.1360 C   0  0  0  0  0  0  0  0  0  0  0  0
   -8.3060    5.1380  -10.5190 C   0  0  0  0  0  0  0  0  0  0  0  0
  2  1  2  0
  3  2  1  0
  4  3  2  0
  5  4  1  0
  6  3  1  0
  7  6  2  0
  8  7  1  0
  8  5  2  0
  9  8  1  0
 10  9  1  0
 11 10  2  0
 11  7  1  0
 12 11  1  1
 13 12  1  0
 14 13  1  0
 15 12  1  0
 16 15  1  0
 17 14  1  0
 17 16  1  0
 18 17  1  0
 19  2  1  0
 20 19  1  0
 21 20  2  0
 22 21  1  0
 23 22  1  0
 24 23  1  0
 25 24  1  0
 26 25  1  0
 26 22  2  0
 27 26  1  0
 28 20  1  0
 28 27  2  0
M  END
>  <smiles>  (82) 
CN1CCC(c2c[nH]c3ccc(C(=O)Nc4ccc5c(c4)CNC5)cc23)CC1

>  <inchikey>  (82) 
BMPCWLUQIXTEFX-UHFFFAOYSA-N

>  <alias>  (82) 
Z4117a

$$$$
Z4125a
     RDKit          3D

 23 26  0  0  0  0  0  0  0  0999 V2000
   -6.9090    5.6840  -13.1240 O   0  0  0  0  0  0  0  0  0  0  0  0
   -7.6910    4.8710  -13.6090 C   0  0  0  0  0  0  0  0  0  0  0  0
   -7.7080    4.6250  -15.0860 C   0  0  0  0  0  0  0  0  0  0  0  0
   -6.5670    5.0130  -15.7830 C   0  0  0  0  0  0  0  0  0  0  0  0
   -8.7750    4.0780  -15.7880 C   0  0  0  0  0  0  0  0  0  0  0  0
   -8.7150    3.9280  -17.1640 C   0  0  0  0  0  0  0  0  0  0  0  0
   -7.5630    4.3050  -17.8570 C   0  0  0  0  0  0  0  0  0  0  0  0
   -6.4770    4.8620  -17.1660 C   0  0  0  0  0  0  0  0  0  0  0  0
   -5.2110    5.2070  -17.9140 C   0  0  0  0  0  0  0  0  0  0  0  0
   -5.4300    5.3750  -19.4080 C   0  0  0  0  0  0  0  0  0  0  0  0
   -7.4270    4.0120  -19.2200 N   0  0  0  0  0  0  0  0  0  0  0  0
   -6.4120    4.4120  -20.0100 C   0  0  0  0  0  0  0  0  0  0  0  0
   -6.2900    3.9820  -21.1560 O   0  0  0  0  0  0  0  0  0  0  0  0
   -8.5200    4.1120  -12.8500 N   0  0  0  0  0  0  0  0  0  0  0  0
   -8.5880    4.1120  -11.4210 C   0  0  0  0  0  0  0  0  0  0  0  0
   -8.7800    2.9110  -10.7420 C   0  0  0  0  0  0  0  0  0  0  0  0
   -8.8340    2.8920   -9.3480 C   0  0  0  0  0  0  0  0  0  0  0  0
   -9.1350    1.7470   -8.4250 C   0  0  0  0  0  0  0  0  0  0  0  0
   -8.8170    2.3290   -7.1170 N   0  0  0  0  0  0  0  0  0  0  0  0
   -8.7400    3.7980   -7.1510 C   0  0  0  0  0  0  0  0  0  0  0  0
   -8.6720    4.0690   -8.6260 C   0  0  0  0  0  0  0  0  0  0  0  0
   -8.4860    5.2710   -9.3050 C   0  0  0  0  0  0  0  0  0  0  0  0
   -8.4440    5.2940  -10.6930 C   0  0  0  0  0  0  0  0  0  0  0  0
  2  1  2  0
  3  2  1  0
  4  3  2  0
  5  3  1  0
  6  5  2  0
  7  6  1  0
  8  7  2  0
  8  4  1  0
  9  8  1  0
 10  9  1  0
 11  7  1  0
 12 11  1  0
 12 10  1  0
 13 12  2  0
 14  2  1  0
 15 14  1  0
 16 15  2  0
 17 16  1  0
 18 17  1  0
 19 18  1  0
 20 19  1  0
 21 20  1  0
 21 17  2  0
 22 21  1  0
 23 15  1  0
 23 22  2  0
M  END
>  <smiles>  (83) 
O=C1CCc2cc(C(=O)Nc3ccc4c(c3)CNC4)ccc2N1

>  <inchikey>  (83) 
OSAPQEBBUCOREF-UHFFFAOYSA-N

>  <alias>  (83) 
Z4125a

$$$$
Z4161a
     RDKit          3D

 29 33  0  0  0  0  0  0  0  0999 V2000
   -6.5470    5.3750  -12.8230 O   0  0  0  0  0  0  0  0  0  0  0  0
   -7.4200    4.6910  -13.3530 C   0  0  0  0  0  0  0  0  0  0  0  0
   -8.3200    3.9640  -12.6410 N   0  0  0  0  0  0  0  0  0  0  0  0
   -8.4170    3.8980  -11.2210 C   0  0  0  0  0  0  0  0  0  0  0  0
   -8.6560    2.6980  -10.5520 C   0  0  0  0  0  0  0  0  0  0  0  0
   -8.7720    2.6800   -9.1590 C   0  0  0  0  0  0  0  0  0  0  0  0
   -9.0990    1.5370   -8.2440 C   0  0  0  0  0  0  0  0  0  0  0  0
   -8.8160    2.1260   -6.9200 N   0  0  0  0  0  0  0  0  0  0  0  0
   -8.7480    3.5880   -6.9610 C   0  0  0  0  0  0  0  0  0  0  0  0
   -8.6240    3.8550   -8.4320 C   0  0  0  0  0  0  0  0  0  0  0  0
   -8.3900    5.0510   -9.1010 C   0  0  0  0  0  0  0  0  0  0  0  0
   -8.2930    5.0750  -10.4850 C   0  0  0  0  0  0  0  0  0  0  0  0
   -7.5040    4.5850  -14.8430 C   0  0  0  0  0  0  0  0  0  0  0  0
   -8.6570    4.1280  -15.4900 C   0  0  0  0  0  0  0  0  0  0  0  0
   -8.7100    4.0290  -16.8700 C   0  0  0  0  0  0  0  0  0  0  0  0
   -6.3910    4.9680  -15.5920 C   0  0  0  0  0  0  0  0  0  0  0  0
   -6.4330    4.9060  -16.9860 C   0  0  0  0  0  0  0  0  0  0  0  0
   -7.5990    4.4250  -17.6060 C   0  0  0  0  0  0  0  0  0  0  0  0
   -7.4030    4.4920  -18.9650 N   0  0  0  0  0  0  0  0  0  0  0  0
   -6.1660    5.0120  -19.2120 C   0  0  0  0  0  0  0  0  0  0  0  0
   -5.5250    5.2900  -18.0400 C   0  0  0  0  0  0  0  0  0  0  0  0
   -4.1800    5.9490  -17.8950 C   0  0  1  0  0  0  0  0  0  0  0  0
   -4.2350    7.3940  -17.3960 C   0  0  0  0  0  0  0  0  0  0  0  0
   -2.8450    8.0040  -17.6030 C   0  0  0  0  0  0  0  0  0  0  0  0
   -3.1480    5.1560  -17.0870 C   0  0  0  0  0  0  0  0  0  0  0  0
   -1.7770    5.8310  -17.2700 C   0  0  0  0  0  0  0  0  0  0  0  0
   -1.8060    7.2580  -16.8520 N   0  0  0  0  0  0  0  0  0  0  0  0
   -0.4770    7.8830  -17.0700 C   0  0  0  0  0  0  0  0  0  0  0  0
   -0.3050    9.2350  -16.4070 C   0  0  0  0  0  0  0  0  0  0  0  0
  2  1  2  0
  3  2  1  0
  4  3  1  0
  5  4  2  0
  6  5  1  0
  7  6  1  0
  8  7  1  0
  9  8  1  0
 10  9  1  0
 10  6  2  0
 11 10  1  0
 12  4  1  0
 12 11  2  0
 13  2  1  0
 14 13  2  0
 15 14  1  0
 16 13  1  0
 17 16  2  0
 18 17  1  0
 18 15  2  0
 19 18  1  0
 20 19  1  0
 21 20  2  0
 21 17  1  0
 22 21  1  1
 23 22  1  0
 24 23  1  0
 25 22  1  0
 26 25  1  0
 27 26  1  0
 27 24  1  0
 28 27  1  0
 29 28  1  0
M  END
>  <smiles>  (84) 
CCN1CCC(c2c[nH]c3ccc(C(=O)Nc4ccc5c(c4)CNC5)cc23)CC1

>  <inchikey>  (84) 
WGYCZEGWXMUHKF-UHFFFAOYSA-N

>  <alias>  (84) 
Z4161a

$$$$
Z4178a
     RDKit          3D

 28 32  0  0  0  0  0  0  0  0999 V2000
   -6.5630    5.6690  -12.8520 O   0  0  0  0  0  0  0  0  0  0  0  0
   -7.4210    4.9620  -13.3750 C   0  0  0  0  0  0  0  0  0  0  0  0
   -7.5050    4.8260  -14.8590 C   0  0  0  0  0  0  0  0  0  0  0  0
   -8.6030    4.2240  -15.4740 C   0  0  0  0  0  0  0  0  0  0  0  0
   -8.6570    4.0770  -16.8470 C   0  0  0  0  0  0  0  0  0  0  0  0
   -6.4430    5.2940  -15.6290 C   0  0  0  0  0  0  0  0  0  0  0  0
   -6.4700    5.1490  -17.0110 C   0  0  0  0  0  0  0  0  0  0  0  0
   -7.5890    4.5400  -17.6050 C   0  0  0  0  0  0  0  0  0  0  0  0
   -7.3520    4.5240  -18.9410 N   0  0  0  0  0  0  0  0  0  0  0  0
   -6.1450    5.0880  -19.2510 N   0  0  0  0  0  0  0  0  0  0  0  0
   -5.5970    5.4690  -18.1150 C   0  0  0  0  0  0  0  0  0  0  0  0
   -4.2600    6.1620  -18.0820 C   0  0  1  0  0  0  0  0  0  0  0  0
   -4.2390    7.4640  -17.2700 C   0  0  0  0  0  0  0  0  0  0  0  0
   -2.9110    8.2160  -17.5050 C   0  0  0  0  0  0  0  0  0  0  0  0
   -3.1050    5.2640  -17.6250 C   0  0  0  0  0  0  0  0  0  0  0  0
   -2.1210    6.0520  -16.7320 C   0  0  0  0  0  0  0  0  0  0  0  0
   -1.7440    7.3350  -17.3440 N   0  0  0  0  0  0  0  0  0  0  0  0
   -1.0400    7.1360  -18.6300 C   0  0  0  0  0  0  0  0  0  0  0  0
   -8.3200    4.2360  -12.6740 N   0  0  0  0  0  0  0  0  0  0  0  0
   -8.4250    4.1430  -11.2710 C   0  0  0  0  0  0  0  0  0  0  0  0
   -8.7420    2.9210  -10.6850 C   0  0  0  0  0  0  0  0  0  0  0  0
   -8.9010    2.8310   -9.3060 C   0  0  0  0  0  0  0  0  0  0  0  0
   -9.3040    1.6540   -8.4690 C   0  0  0  0  0  0  0  0  0  0  0  0
   -8.9750    2.1520   -7.1310 N   0  0  0  0  0  0  0  0  0  0  0  0
   -8.8990    3.6080   -7.0620 C   0  0  0  0  0  0  0  0  0  0  0  0
   -8.7170    3.9530   -8.5090 C   0  0  0  0  0  0  0  0  0  0  0  0
   -8.3930    5.1690   -9.0970 C   0  0  0  0  0  0  0  0  0  0  0  0
   -8.2500    5.2670  -10.4690 C   0  0  0  0  0  0  0  0  0  0  0  0
  2  1  2  0
  3  2  1  0
  4  3  2  0
  5  4  1  0
  6  3  1  0
  7  6  2  0
  8  7  1  0
  8  5  2  0
  9  8  1  0
 10  9  1  0
 11 10  2  0
 11  7  1  0
 12 11  1  1
 13 12  1  0
 14 13  1  0
 15 12  1  0
 16 15  1  0
 17 16  1  0
 17 14  1  0
 18 17  1  0
 19  2  1  0
 20 19  1  0
 21 20  2  0
 22 21  1  0
 23 22  1  0
 24 23  1  0
 25 24  1  0
 26 25  1  0
 26 22  2  0
 27 26  1  0
 28 20  1  0
 28 27  2  0
M  END
>  <smiles>  (85) 
CN1CCC(c2n[nH]c3ccc(C(=O)Nc4ccc5c(c4)CNC5)cc23)CC1

>  <inchikey>  (85) 
VMAFDCLSBGDHKU-UHFFFAOYSA-N

>  <alias>  (85) 
Z4178a

$$$$
Z4198a
     RDKit          3D

 23 26  0  0  0  0  0  0  0  0999 V2000
  -10.4100    3.8370  -18.2740 Cl  0  0  0  0  0  0  0  0  0  0  0  0
   -8.8670    4.1910  -17.5530 C   0  0  0  0  0  0  0  0  0  0  0  0
   -8.7770    4.3220  -16.1780 C   0  0  0  0  0  0  0  0  0  0  0  0
   -7.7840    4.4020  -18.3790 C   0  0  0  0  0  0  0  0  0  0  0  0
   -6.5810    4.7690  -17.7990 C   0  0  0  0  0  0  0  0  0  0  0  0
   -5.3470    4.9740  -18.3430 N   0  0  0  0  0  0  0  0  0  0  0  0
   -4.9670    4.8710  -19.7540 C   0  0  1  0  0  0  0  0  0  0  0  0
   -4.8680    6.1720  -20.5700 C   0  0  0  0  0  0  0  0  0  0  0  0
   -3.6620    5.5910  -21.2130 N   0  0  0  0  0  0  0  0  0  0  0  0
   -3.4760    4.6570  -20.0770 C   0  0  0  0  0  0  0  0  0  0  0  0
   -4.4210    5.2640  -17.3780 N   0  0  0  0  0  0  0  0  0  0  0  0
   -5.0660    5.2430  -16.2300 C   0  0  0  0  0  0  0  0  0  0  0  0
   -6.4380    4.9340  -16.4100 C   0  0  0  0  0  0  0  0  0  0  0  0
   -7.5650    4.7090  -15.6010 C   0  0  0  0  0  0  0  0  0  0  0  0
   -7.4850    4.9100  -14.1160 C   0  0  0  0  0  0  0  0  0  0  0  0
   -6.5900    5.5950  -13.6250 O   0  0  0  0  0  0  0  0  0  0  0  0
   -8.4110    4.2640  -13.3670 N   0  0  0  0  0  0  0  0  0  0  0  0
   -8.4920    4.2760  -11.9530 C   0  0  0  0  0  0  0  0  0  0  0  0
   -8.7530    3.1010  -11.2590 C   0  0  0  0  0  0  0  0  0  0  0  0
   -8.7920    3.1080   -9.8750 C   0  0  0  0  0  0  0  0  0  0  0  0
   -8.5640    4.2730   -9.1760 C   0  0  0  0  0  0  0  0  0  0  0  0
   -8.3040    5.4410   -9.8570 C   0  0  0  0  0  0  0  0  0  0  0  0
   -8.2750    5.4530  -11.2410 C   0  0  0  0  0  0  0  0  0  0  0  0
  2  1  1  0
  3  2  2  0
  4  2  1  0
  5  4  2  0
  6  5  1  0
  7  6  1  1
  8  7  1  0
  9  8  1  0
 10  7  1  0
 10  9  1  0
 11  6  1  0
 12 11  2  0
 13  5  1  0
 13 12  1  0
 14 13  2  0
 14  3  1  0
 15 14  1  0
 16 15  2  0
 17 15  1  0
 18 17  1  0
 19 18  2  0
 20 19  1  0
 21 20  2  0
 22 21  1  0
 23 18  1  0
 23 22  2  0
M  END
>  <smiles>  (86) 
O=C(Nc1ccccc1)c1cc(Cl)cc2c1cnn2C1CNC1

>  <inchikey>  (86) 
OWUBEEPQRDVFTM-UHFFFAOYSA-N

>  <alias>  (86) 
Z4198a

$$$$
Z4245a
     RDKit          3D

 22 25  0  0  0  0  0  0  0  0999 V2000
   -5.9660    4.2850  -20.7270 O   0  0  0  0  0  0  0  0  0  0  0  0
   -6.4930    4.3590  -19.6180 C   0  0  0  0  0  0  0  0  0  0  0  0
   -7.7800    4.0170  -19.2950 N   0  0  0  0  0  0  0  0  0  0  0  0
   -5.8890    4.7180  -18.4370 N   0  0  0  0  0  0  0  0  0  0  0  0
   -6.7730    4.5770  -17.3800 C   0  0  0  0  0  0  0  0  0  0  0  0
   -7.9800    4.1440  -17.9240 C   0  0  0  0  0  0  0  0  0  0  0  0
   -9.0750    3.8770  -17.1120 C   0  0  0  0  0  0  0  0  0  0  0  0
   -8.9300    4.0300  -15.7410 C   0  0  0  0  0  0  0  0  0  0  0  0
   -6.6290    4.7330  -16.0040 C   0  0  0  0  0  0  0  0  0  0  0  0
   -7.7200    4.4530  -15.1810 C   0  0  0  0  0  0  0  0  0  0  0  0
   -7.5580    4.6050  -13.7010 C   0  0  0  0  0  0  0  0  0  0  0  0
   -6.6250    5.2520  -13.2340 O   0  0  0  0  0  0  0  0  0  0  0  0
   -8.4820    3.9930  -12.9210 N   0  0  0  0  0  0  0  0  0  0  0  0
   -8.5230    4.0160  -11.4970 C   0  0  0  0  0  0  0  0  0  0  0  0
   -8.8570    2.8630  -10.7900 C   0  0  0  0  0  0  0  0  0  0  0  0
   -8.8930    2.8780   -9.3990 C   0  0  0  0  0  0  0  0  0  0  0  0
   -9.1730    1.7560   -8.4440 C   0  0  0  0  0  0  0  0  0  0  0  0
   -8.7930    2.3620   -7.1550 N   0  0  0  0  0  0  0  0  0  0  0  0
   -8.7040    3.8210   -7.2270 C   0  0  0  0  0  0  0  0  0  0  0  0
   -8.6140    4.0490   -8.7060 C   0  0  0  0  0  0  0  0  0  0  0  0
   -8.2840    5.2010   -9.4110 C   0  0  0  0  0  0  0  0  0  0  0  0
   -8.2320    5.1850  -10.7970 C   0  0  0  0  0  0  0  0  0  0  0  0
  2  1  2  0
  3  2  1  0
  4  2  1  0
  5  4  1  0
  6  5  2  0
  6  3  1  0
  7  6  1  0
  8  7  2  0
  9  5  1  0
 10  9  2  0
 10  8  1  0
 11 10  1  0
 12 11  2  0
 13 11  1  0
 14 13  1  0
 15 14  2  0
 16 15  1  0
 17 16  1  0
 18 17  1  0
 19 18  1  0
 20 19  1  0
 20 16  2  0
 21 20  1  0
 22 14  1  0
 22 21  2  0
M  END
>  <smiles>  (87) 
O=C(Nc1ccc2c(c1)CNC2)c1ccc2[nH]c(=O)[nH]c2c1

>  <inchikey>  (87) 
GTSIYSOTZNGSFP-UHFFFAOYSA-N

>  <alias>  (87) 
Z4245a

$$$$
Z4756a
     RDKit          3D

 23 26  0  0  0  0  0  0  0  0999 V2000
   -6.0650    3.7930  -21.2870 O   0  0  0  0  0  0  0  0  0  0  0  0
   -6.5040    3.9760  -20.1510 C   0  0  0  0  0  0  0  0  0  0  0  0
   -7.7540    3.6440  -19.7280 N   0  0  0  0  0  0  0  0  0  0  0  0
   -7.9550    3.9890  -18.3850 C   0  0  0  0  0  0  0  0  0  0  0  0
   -9.0500    3.7330  -17.5690 C   0  0  0  0  0  0  0  0  0  0  0  0
   -8.9610    4.0570  -16.2210 C   0  0  0  0  0  0  0  0  0  0  0  0
   -5.7680    4.5900  -18.9790 C   0  0  0  0  0  0  0  0  0  0  0  0
   -6.8070    4.6120  -17.8980 C   0  0  0  0  0  0  0  0  0  0  0  0
   -6.7460    4.9380  -16.5480 C   0  0  0  0  0  0  0  0  0  0  0  0
   -7.8130    4.6470  -15.6990 C   0  0  0  0  0  0  0  0  0  0  0  0
   -7.6830    4.9500  -14.2390 C   0  0  0  0  0  0  0  0  0  0  0  0
   -6.9220    5.8260  -13.8540 O   0  0  0  0  0  0  0  0  0  0  0  0
   -8.4110    4.1760  -13.3920 N   0  0  0  0  0  0  0  0  0  0  0  0
   -8.4000    4.2670  -11.9780 C   0  0  0  0  0  0  0  0  0  0  0  0
   -8.2060    5.5040  -11.3570 C   0  0  0  0  0  0  0  0  0  0  0  0
   -8.2060    5.5960   -9.9720 C   0  0  0  0  0  0  0  0  0  0  0  0
   -8.5980    3.1320  -11.1970 C   0  0  0  0  0  0  0  0  0  0  0  0
   -8.6090    3.2300   -9.8060 C   0  0  0  0  0  0  0  0  0  0  0  0
   -8.3970    4.4580   -9.1950 C   0  0  0  0  0  0  0  0  0  0  0  0
   -8.4000    4.2880   -7.7030 C   0  0  0  0  0  0  0  0  0  0  0  0
   -8.8790    2.1870   -8.7620 C   0  0  0  0  0  0  0  0  0  0  0  0
   -8.3560    2.8220   -7.5370 N   0  0  0  0  0  0  0  0  0  0  0  0
   -9.0260    2.3600   -6.3290 C   0  0  0  0  0  0  0  0  0  0  0  0
  2  1  2  0
  3  2  1  0
  4  3  1  0
  5  4  2  0
  6  5  1  0
  7  2  1  0
  8  7  1  0
  8  4  1  0
  9  8  2  0
 10  9  1  0
 10  6  2  0
 11 10  1  0
 12 11  2  0
 13 11  1  0
 14 13  1  0
 15 14  2  0
 16 15  1  0
 17 14  1  0
 18 17  2  0
 19 18  1  0
 19 16  2  0
 20 19  1  0
 21 18  1  0
 22 21  1  0
 22 20  1  0
 23 22  1  0
M  END
>  <smiles>  (88) 
CN1Cc2ccc(NC(=O)c3ccc4c(c3)CC(=O)N4)cc2C1

>  <inchikey>  (88) 
FBKHKAZWAUCBTG-UHFFFAOYSA-N

>  <alias>  (88) 
Z4756a

$$$$
Z4811a
     RDKit          3D

 30 34  0  0  0  0  0  0  0  0999 V2000
  -10.4600    3.9130  -18.2560 Cl  0  0  0  0  0  0  0  0  0  0  0  0
   -8.9530    4.2800  -17.4670 C   0  0  0  0  0  0  0  0  0  0  0  0
   -7.8520    4.5680  -18.2470 C   0  0  0  0  0  0  0  0  0  0  0  0
   -6.6980    4.9700  -17.5920 C   0  0  0  0  0  0  0  0  0  0  0  0
   -6.6230    5.1070  -16.1950 C   0  0  0  0  0  0  0  0  0  0  0  0
   -5.2850    5.5120  -15.9490 C   0  0  0  0  0  0  0  0  0  0  0  0
   -4.5960    5.6060  -17.0690 N   0  0  0  0  0  0  0  0  0  0  0  0
   -5.4600    5.2750  -18.0780 N   0  0  0  0  0  0  0  0  0  0  0  0
   -5.0100    5.2760  -19.4710 C   0  0  1  0  0  0  0  0  0  0  0  0
   -4.7070    6.6470  -20.1080 C   0  0  0  0  0  0  0  0  0  0  0  0
   -3.5330    4.9280  -19.7530 C   0  0  0  0  0  0  0  0  0  0  0  0
   -3.5370    6.0130  -20.7610 N   0  0  0  0  0  0  0  0  0  0  0  0
   -8.9200    4.3570  -16.0820 C   0  0  0  0  0  0  0  0  0  0  0  0
   -7.7650    4.8010  -15.4350 C   0  0  0  0  0  0  0  0  0  0  0  0
   -7.7940    5.0530  -13.9550 C   0  0  0  0  0  0  0  0  0  0  0  0
   -7.2630    6.0560  -13.4840 O   0  0  0  0  0  0  0  0  0  0  0  0
   -8.3890    4.0950  -13.2000 N   0  0  0  0  0  0  0  0  0  0  0  0
   -8.4660    4.0380  -11.7840 C   0  0  0  0  0  0  0  0  0  0  0  0
   -8.6020    5.1960  -11.0230 C   0  0  0  0  0  0  0  0  0  0  0  0
   -8.6760    5.0810   -9.6580 C   0  0  0  0  0  0  0  0  0  0  0  0
   -8.8880    6.1970   -8.9240 F   0  0  0  0  0  0  0  0  0  0  0  0
   -8.5990    3.8550   -8.9950 C   0  0  0  0  0  0  0  0  0  0  0  0
   -8.4640    2.7080   -9.7700 C   0  0  0  0  0  0  0  0  0  0  0  0
   -8.4040    2.8000  -11.1530 C   0  0  0  0  0  0  0  0  0  0  0  0
   -8.6000    3.7880   -7.5630 N   0  0  0  0  0  0  0  0  0  0  0  0
   -7.7580    4.4700   -6.7200 C   0  0  0  0  0  0  0  0  0  0  0  0
   -6.8580    5.2140   -7.0780 O   0  0  0  0  0  0  0  0  0  0  0  0
   -8.1150    4.1040   -5.3070 C   0  0  0  0  0  0  0  0  0  0  0  0
   -9.4570    3.4100   -5.4180 C   0  0  0  0  0  0  0  0  0  0  0  0
   -9.5330    2.9110   -6.8450 C   0  0  0  0  0  0  0  0  0  0  0  0
  2  1  1  0
  3  2  2  0
  4  3  1  0
  5  4  2  0
  6  5  1  0
  7  6  2  0
  8  4  1  0
  8  7  1  0
  9  8  1  1
 10  9  1  0
 11  9  1  0
 12 11  1  0
 12 10  1  0
 13  2  1  0
 14 13  2  0
 14  5  1  0
 15 14  1  0
 16 15  2  0
 17 15  1  0
 18 17  1  0
 19 18  2  0
 20 19  1  0
 21 20  1  0
 22 20  2  0
 23 22  1  0
 24 18  1  0
 24 23  2  0
 25 22  1  0
 26 25  1  0
 27 26  2  0
 28 26  1  0
 29 28  1  0
 30 25  1  0
 30 29  1  0
M  END
>  <smiles>  (89) 
O=C(Nc1ccc(N2CCCC2=O)c(F)c1)c1cc(Cl)cc2c1cnn2C1CNC1

>  <inchikey>  (89) 
RZHCWEFKFJBQFK-UHFFFAOYSA-N

>  <alias>  (89) 
Z4811a

$$$$
Z4827a
     RDKit          3D

 30 34  0  0  0  0  0  0  0  0999 V2000
  -10.5490    4.0200  -18.3160 Cl  0  0  0  0  0  0  0  0  0  0  0  0
   -8.9980    4.3910  -17.6070 C   0  0  0  0  0  0  0  0  0  0  0  0
   -7.9220    4.6200  -18.4430 C   0  0  0  0  0  0  0  0  0  0  0  0
   -6.7190    4.9740  -17.8500 C   0  0  0  0  0  0  0  0  0  0  0  0
   -6.5690    5.1120  -16.4610 C   0  0  0  0  0  0  0  0  0  0  0  0
   -5.2050    5.4640  -16.2810 C   0  0  0  0  0  0  0  0  0  0  0  0
   -4.5720    5.5390  -17.4340 N   0  0  0  0  0  0  0  0  0  0  0  0
   -5.4970    5.2410  -18.3980 N   0  0  0  0  0  0  0  0  0  0  0  0
   -5.1080    5.2380  -19.8100 C   0  0  2  0  0  0  0  0  0  0  0  0
   -3.6010    5.1100  -20.1270 C   0  0  0  0  0  0  0  0  0  0  0  0
   -5.0380    6.6280  -20.4750 C   0  0  0  0  0  0  0  0  0  0  0  0
   -3.7640    6.2080  -21.1070 N   0  0  0  0  0  0  0  0  0  0  0  0
   -8.8990    4.4930  -16.2290 C   0  0  0  0  0  0  0  0  0  0  0  0
   -7.6860    4.8760  -15.6450 C   0  0  0  0  0  0  0  0  0  0  0  0
   -7.5830    5.0970  -14.1660 C   0  0  0  0  0  0  0  0  0  0  0  0
   -6.6000    5.6520  -13.6820 O   0  0  0  0  0  0  0  0  0  0  0  0
   -8.5960    4.6110  -13.4160 N   0  0  0  0  0  0  0  0  0  0  0  0
   -8.6240    4.5810  -12.0010 C   0  0  0  0  0  0  0  0  0  0  0  0
   -8.5430    5.7590  -11.2360 C   0  0  0  0  0  0  0  0  0  0  0  0
   -8.5500    5.6870   -9.8470 C   0  0  0  0  0  0  0  0  0  0  0  0
   -8.6390    4.4480   -9.2600 C   0  0  0  0  0  0  0  0  0  0  0  0
   -8.7220    4.3860   -7.9050 F   0  0  0  0  0  0  0  0  0  0  0  0
   -8.7060    3.2820   -9.9710 C   0  0  0  0  0  0  0  0  0  0  0  0
   -8.7030    3.3520  -11.3510 C   0  0  0  0  0  0  0  0  0  0  0  0
   -8.3860    7.0750  -11.7920 N   0  0  0  0  0  0  0  0  0  0  0  0
   -9.2460    7.7090  -12.6600 C   0  0  0  0  0  0  0  0  0  0  0  0
  -10.1510    7.1660  -13.2760 O   0  0  0  0  0  0  0  0  0  0  0  0
   -8.8590    9.1590  -12.7210 C   0  0  0  0  0  0  0  0  0  0  0  0
   -7.4170    9.1860  -12.2370 C   0  0  0  0  0  0  0  0  0  0  0  0
   -7.2410    7.9230  -11.4020 C   0  0  0  0  0  0  0  0  0  0  0  0
  2  1  1  0
  3  2  2  0
  4  3  1  0
  5  4  2  0
  6  5  1  0
  7  6  2  0
  8  4  1  0
  8  7  1  0
  9  8  1  1
 10  9  1  0
 11  9  1  0
 12 10  1  0
 12 11  1  0
 13  2  1  0
 14  5  1  0
 14 13  2  0
 15 14  1  0
 16 15  2  0
 17 15  1  0
 18 17  1  0
 19 18  1  0
 20 19  2  0
 21 20  1  0
 22 21  1  0
 23 21  2  0
 24 18  2  0
 24 23  1  0
 25 19  1  0
 26 25  1  0
 27 26  2  0
 28 26  1  0
 29 28  1  0
 30 29  1  0
 30 25  1  0
M  END
>  <smiles>  (90) 
O=C(Nc1ccc(F)cc1N1CCCC1=O)c1cc(Cl)cc2c1cnn2C1CNC1

>  <inchikey>  (90) 
NJUZARKEFBTBOM-UHFFFAOYSA-N

>  <alias>  (90) 
Z4827a

$$$$
Z4838a
     RDKit          3D

 28 32  0  0  0  0  0  0  0  0999 V2000
  -10.6130    4.2230  -18.2060 Cl  0  0  0  0  0  0  0  0  0  0  0  0
   -9.0760    4.5840  -17.4640 C   0  0  0  0  0  0  0  0  0  0  0  0
   -7.9720    4.7620  -18.2770 C   0  0  0  0  0  0  0  0  0  0  0  0
   -6.7820    5.1290  -17.6620 C   0  0  0  0  0  0  0  0  0  0  0  0
   -6.6650    5.3000  -16.2720 C   0  0  0  0  0  0  0  0  0  0  0  0
   -5.3230    5.7160  -16.0760 C   0  0  0  0  0  0  0  0  0  0  0  0
   -4.6710    5.7970  -17.2190 N   0  0  0  0  0  0  0  0  0  0  0  0
   -5.5620    5.4380  -18.1930 N   0  0  0  0  0  0  0  0  0  0  0  0
   -5.1530    5.4490  -19.6000 C   0  0  2  0  0  0  0  0  0  0  0  0
   -3.6480    5.2670  -19.8840 C   0  0  0  0  0  0  0  0  0  0  0  0
   -5.0230    6.8410  -20.2500 C   0  0  0  0  0  0  0  0  0  0  0  0
   -3.7280    6.4100  -20.8210 N   0  0  0  0  0  0  0  0  0  0  0  0
   -9.0110    4.7280  -16.0860 C   0  0  0  0  0  0  0  0  0  0  0  0
   -7.8030    5.0810  -15.4750 C   0  0  0  0  0  0  0  0  0  0  0  0
   -7.7330    5.2350  -13.9810 C   0  0  0  0  0  0  0  0  0  0  0  0
   -7.0750    6.1450  -13.4740 O   0  0  0  0  0  0  0  0  0  0  0  0
   -8.4200    4.3140  -13.2540 N   0  0  0  0  0  0  0  0  0  0  0  0
   -8.5400    4.2560  -11.8390 C   0  0  0  0  0  0  0  0  0  0  0  0
   -8.6850    3.0420  -11.1680 C   0  0  0  0  0  0  0  0  0  0  0  0
   -8.9040    3.0330   -9.7940 C   0  0  0  0  0  0  0  0  0  0  0  0
   -8.7790    1.9230   -8.7850 C   0  0  0  0  0  0  0  0  0  0  0  0
   -8.9230    2.6570   -7.4310 C   0  0  1  0  0  0  0  0  0  0  0  0
  -10.1010    2.1640   -6.6150 C   0  0  0  0  0  0  0  0  0  0  0  0
   -7.6470    2.6590   -6.6170 C   0  0  0  0  0  0  0  0  0  0  0  0
   -9.2080    4.0730   -7.7730 O   0  0  0  0  0  0  0  0  0  0  0  0
   -8.9520    4.2290   -9.1130 C   0  0  0  0  0  0  0  0  0  0  0  0
   -8.7840    5.4460   -9.7480 C   0  0  0  0  0  0  0  0  0  0  0  0
   -8.5780    5.4520  -11.1190 C   0  0  0  0  0  0  0  0  0  0  0  0
  2  1  1  0
  3  2  2  0
  4  3  1  0
  5  4  2  0
  6  5  1  0
  7  6  2  0
  8  4  1  0
  8  7  1  0
  9  8  1  1
 10  9  1  0
 11  9  1  0
 12 10  1  0
 12 11  1  0
 13  2  1  0
 14 13  2  0
 14  5  1  0
 15 14  1  0
 16 15  2  0
 17 15  1  0
 18 17  1  0
 19 18  2  0
 20 19  1  0
 21 20  1  0
 22 21  1  0
 22 23  1  1
 24 22  1  0
 25 22  1  0
 26 25  1  0
 26 20  2  0
 27 26  1  0
 28 18  1  0
 28 27  2  0
M  END
>  <smiles>  (91) 
CC1(C)Cc2cc(NC(=O)c3cc(Cl)cc4c3cnn4C3CNC3)ccc2O1

>  <inchikey>  (91) 
SQFXRWAKLPCOCJ-UHFFFAOYSA-N

>  <alias>  (91) 
Z4838a

$$$$
Z4849a
     RDKit          3D

 28 32  0  0  0  0  0  0  0  0999 V2000
  -10.5840    4.0670  -18.2900 Cl  0  0  0  0  0  0  0  0  0  0  0  0
   -9.0340    4.3890  -17.5590 C   0  0  0  0  0  0  0  0  0  0  0  0
   -7.9550    4.6450  -18.3810 C   0  0  0  0  0  0  0  0  0  0  0  0
   -6.7670    5.0180  -17.7740 C   0  0  0  0  0  0  0  0  0  0  0  0
   -6.6320    5.1550  -16.3830 C   0  0  0  0  0  0  0  0  0  0  0  0
   -5.2710    5.5120  -16.1900 C   0  0  0  0  0  0  0  0  0  0  0  0
   -4.6240    5.5770  -17.3360 N   0  0  0  0  0  0  0  0  0  0  0  0
   -5.5370    5.2770  -18.3090 N   0  0  0  0  0  0  0  0  0  0  0  0
   -5.1440    5.2770  -19.7190 C   0  0  2  0  0  0  0  0  0  0  0  0
   -3.6420    5.1160  -20.0440 C   0  0  0  0  0  0  0  0  0  0  0  0
   -5.0570    6.6600  -20.3980 C   0  0  0  0  0  0  0  0  0  0  0  0
   -3.8150    6.1860  -21.0530 N   0  0  0  0  0  0  0  0  0  0  0  0
   -8.9450    4.4650  -16.1770 C   0  0  0  0  0  0  0  0  0  0  0  0
   -7.7490    4.8740  -15.5770 C   0  0  0  0  0  0  0  0  0  0  0  0
   -7.6750    5.0710  -14.0910 C   0  0  0  0  0  0  0  0  0  0  0  0
   -6.7960    5.7710  -13.5970 O   0  0  0  0  0  0  0  0  0  0  0  0
   -8.5920    4.4040  -13.3490 N   0  0  0  0  0  0  0  0  0  0  0  0
   -8.6410    4.3750  -11.9310 C   0  0  0  0  0  0  0  0  0  0  0  0
   -8.5990    5.5930  -11.2350 C   0  0  0  0  0  0  0  0  0  0  0  0
   -8.5970    6.8460  -11.7900 O   0  0  0  0  0  0  0  0  0  0  0  0
   -8.2480    7.8010  -10.7070 C   0  0  2  0  0  0  0  0  0  0  0  0
   -9.1720    8.9950  -10.8690 C   0  0  0  0  0  0  0  0  0  0  0  0
   -6.7910    8.1770  -10.9170 C   0  0  0  0  0  0  0  0  0  0  0  0
   -8.4850    7.0260   -9.3920 C   0  0  0  0  0  0  0  0  0  0  0  0
   -8.5460    5.5950   -9.8520 C   0  0  0  0  0  0  0  0  0  0  0  0
   -8.5530    4.3940   -9.1500 C   0  0  0  0  0  0  0  0  0  0  0  0
   -8.6140    3.1920   -9.8340 C   0  0  0  0  0  0  0  0  0  0  0  0
   -8.6620    3.1750  -11.2180 C   0  0  0  0  0  0  0  0  0  0  0  0
  2  1  1  0
  3  2  2  0
  4  3  1  0
  5  4  2  0
  6  5  1  0
  7  6  2  0
  8  4  1  0
  8  7  1  0
  9  8  1  1
 10  9  1  0
 11  9  1  0
 12 10  1  0
 12 11  1  0
 13  2  1  0
 14  5  1  0
 14 13  2  0
 15 14  1  0
 16 15  2  0
 17 15  1  0
 18 17  1  0
 19 18  2  0
 20 19  1  0
 21 20  1  0
 21 22  1  1
 23 21  1  0
 24 21  1  0
 25 19  1  0
 25 24  1  0
 26 25  2  0
 27 26  1  0
 28 18  1  0
 28 27  2  0
M  END
>  <smiles>  (92) 
CC1(C)Cc2cccc(NC(=O)c3cc(Cl)cc4c3cnn4C3CNC3)c2O1

>  <inchikey>  (92) 
GHLDJNMZCNIKOE-UHFFFAOYSA-N

>  <alias>  (92) 
Z4849a

$$$$
Z4855a
     RDKit          3D

 27 31  0  0  0  0  0  0  0  0999 V2000
  -10.5600    4.1300  -18.1900 Cl  0  0  0  0  0  0  0  0  0  0  0  0
   -9.0450    4.5010  -17.4180 C   0  0  0  0  0  0  0  0  0  0  0  0
   -7.9450    4.7480  -18.2140 C   0  0  0  0  0  0  0  0  0  0  0  0
   -6.7630    5.0920  -17.5790 C   0  0  0  0  0  0  0  0  0  0  0  0
   -6.6520    5.2070  -16.1830 C   0  0  0  0  0  0  0  0  0  0  0  0
   -5.2860    5.5160  -15.9590 C   0  0  0  0  0  0  0  0  0  0  0  0
   -4.6120    5.5760  -17.0920 N   0  0  0  0  0  0  0  0  0  0  0  0
   -5.5180    5.3220  -18.0870 N   0  0  0  0  0  0  0  0  0  0  0  0
   -5.1050    5.3360  -19.4930 C   0  0  1  0  0  0  0  0  0  0  0  0
   -5.1370    6.6990  -20.2150 C   0  0  0  0  0  0  0  0  0  0  0  0
   -3.5980    5.2940  -19.8290 C   0  0  0  0  0  0  0  0  0  0  0  0
   -3.8880    6.2820  -20.8940 N   0  0  0  0  0  0  0  0  0  0  0  0
   -8.9920    4.5860  -16.0310 C   0  0  0  0  0  0  0  0  0  0  0  0
   -7.7970    4.9530  -15.3970 C   0  0  0  0  0  0  0  0  0  0  0  0
   -7.7430    5.1730  -13.9050 C   0  0  0  0  0  0  0  0  0  0  0  0
   -7.0830    6.1040  -13.4430 O   0  0  0  0  0  0  0  0  0  0  0  0
   -8.4260    4.2880  -13.1220 N   0  0  0  0  0  0  0  0  0  0  0  0
   -8.5150    4.3120  -11.6960 C   0  0  0  0  0  0  0  0  0  0  0  0
   -8.6670    3.1440  -10.9520 C   0  0  0  0  0  0  0  0  0  0  0  0
   -8.7470    3.1790   -9.5560 C   0  0  0  0  0  0  0  0  0  0  0  0
   -8.9500    1.8920   -8.7920 C   0  0  0  0  0  0  0  0  0  0  0  0
   -9.3860    2.1020   -7.3580 C   0  0  0  0  0  0  0  0  0  0  0  0
   -8.5440    3.1740   -6.6860 C   0  0  0  0  0  0  0  0  0  0  0  0
   -8.7320    4.5120   -7.3860 C   0  0  0  0  0  0  0  0  0  0  0  0
   -8.6500    4.4160   -8.8920 C   0  0  0  0  0  0  0  0  0  0  0  0
   -8.4930    5.5750   -9.6460 C   0  0  0  0  0  0  0  0  0  0  0  0
   -8.4370    5.5300  -11.0290 C   0  0  0  0  0  0  0  0  0  0  0  0
  2  1  1  0
  3  2  2  0
  4  3  1  0
  5  4  2  0
  6  5  1  0
  7  6  2  0
  8  4  1  0
  8  7  1  0
  9  8  1  1
 10  9  1  0
 11  9  1  0
 12 11  1  0
 12 10  1  0
 13  2  1  0
 14 13  2  0
 14  5  1  0
 15 14  1  0
 16 15  2  0
 17 15  1  0
 18 17  1  0
 19 18  2  0
 20 19  1  0
 21 20  1  0
 22 21  1  0
 23 22  1  0
 24 23  1  0
 25 24  1  0
 25 20  2  0
 26 25  1  0
 27 18  1  0
 27 26  2  0
M  END
>  <smiles>  (93) 
O=C(Nc1ccc2c(c1)CCCC2)c1cc(Cl)cc2c1cnn2C1CNC1

>  <inchikey>  (93) 
DPIGUVGLMKTLPK-UHFFFAOYSA-N

>  <alias>  (93) 
Z4855a

$$$$
Z4857a
     RDKit          3D

 27 31  0  0  0  0  0  0  0  0999 V2000
  -10.4560    3.9580  -18.1690 Cl  0  0  0  0  0  0  0  0  0  0  0  0
   -8.9400    4.3040  -17.3880 C   0  0  0  0  0  0  0  0  0  0  0  0
   -8.9020    4.3960  -16.0030 C   0  0  0  0  0  0  0  0  0  0  0  0
   -7.8340    4.5530  -18.1770 C   0  0  0  0  0  0  0  0  0  0  0  0
   -6.6700    4.9410  -17.5310 C   0  0  0  0  0  0  0  0  0  0  0  0
   -5.4390    5.2520  -18.0280 N   0  0  0  0  0  0  0  0  0  0  0  0
   -5.0040    5.2550  -19.4260 C   0  0  1  0  0  0  0  0  0  0  0  0
   -4.9360    6.6100  -20.1530 C   0  0  0  0  0  0  0  0  0  0  0  0
   -3.6530    6.1560  -20.7450 N   0  0  0  0  0  0  0  0  0  0  0  0
   -3.4920    5.1160  -19.7030 C   0  0  0  0  0  0  0  0  0  0  0  0
   -4.5660    5.5840  -17.0280 N   0  0  0  0  0  0  0  0  0  0  0  0
   -5.2450    5.4870  -15.9020 C   0  0  0  0  0  0  0  0  0  0  0  0
   -6.5870    5.0870  -16.1380 C   0  0  0  0  0  0  0  0  0  0  0  0
   -7.7290    4.8130  -15.3680 C   0  0  0  0  0  0  0  0  0  0  0  0
   -7.6870    5.0580  -13.8890 C   0  0  0  0  0  0  0  0  0  0  0  0
   -6.8990    5.8740  -13.4230 O   0  0  0  0  0  0  0  0  0  0  0  0
   -8.5050    4.3100  -13.1190 N   0  0  0  0  0  0  0  0  0  0  0  0
   -8.5650    4.3430  -11.7010 C   0  0  0  0  0  0  0  0  0  0  0  0
   -8.4870    5.5600  -11.0220 C   0  0  0  0  0  0  0  0  0  0  0  0
   -8.5100    5.5870   -9.6360 C   0  0  0  0  0  0  0  0  0  0  0  0
   -8.6770    3.1590  -10.9760 C   0  0  0  0  0  0  0  0  0  0  0  0
   -8.7150    3.1930   -9.5850 C   0  0  0  0  0  0  0  0  0  0  0  0
   -8.6200    4.4040   -8.9160 C   0  0  0  0  0  0  0  0  0  0  0  0
   -8.6490    4.1680   -7.4330 C   0  0  0  0  0  0  0  0  0  0  0  0
   -8.9270    2.0840   -8.5970 C   0  0  0  0  0  0  0  0  0  0  0  0
   -8.5250    2.7000   -7.3180 N   0  0  0  0  0  0  0  0  0  0  0  0
   -9.2380    2.1620   -6.1770 C   0  0  0  0  0  0  0  0  0  0  0  0
  2  1  1  0
  3  2  2  0
  4  2  1  0
  5  4  2  0
  6  5  1  0
  7  6  1  1
  8  7  1  0
  9  8  1  0
 10  7  1  0
 10  9  1  0
 11  6  1  0
 12 11  2  0
 13  5  1  0
 13 12  1  0
 14 13  2  0
 14  3  1  0
 15 14  1  0
 16 15  2  0
 17 15  1  0
 18 17  1  0
 19 18  2  0
 20 19  1  0
 21 18  1  0
 22 21  2  0
 23 22  1  0
 23 20  2  0
 24 23  1  0
 25 22  1  0
 26 25  1  0
 26 24  1  0
 27 26  1  0
M  END
>  <smiles>  (94) 
CN1Cc2ccc(NC(=O)c3cc(Cl)cc4c3cnn4C3CNC3)cc2C1

>  <inchikey>  (94) 
GJPKJEYLEADGRU-UHFFFAOYSA-N

>  <alias>  (94) 
Z4857a

$$$$
Z4858a
     RDKit          3D

 29 33  0  0  0  0  0  0  0  0999 V2000
  -10.5160    4.1100  -18.1780 Cl  0  0  0  0  0  0  0  0  0  0  0  0
   -8.9680    4.5120  -17.4880 C   0  0  0  0  0  0  0  0  0  0  0  0
   -7.8980    4.7000  -18.3390 C   0  0  0  0  0  0  0  0  0  0  0  0
   -6.6980    5.0960  -17.7730 C   0  0  0  0  0  0  0  0  0  0  0  0
   -6.5370    5.2960  -16.3940 C   0  0  0  0  0  0  0  0  0  0  0  0
   -5.1760    5.6640  -16.2430 C   0  0  0  0  0  0  0  0  0  0  0  0
   -4.5530    5.6960  -17.4040 N   0  0  0  0  0  0  0  0  0  0  0  0
   -5.4840    5.3530  -18.3450 N   0  0  0  0  0  0  0  0  0  0  0  0
   -5.1150    5.3260  -19.7620 C   0  0  2  0  0  0  0  0  0  0  0  0
   -3.6110    5.2180  -20.0950 C   0  0  0  0  0  0  0  0  0  0  0  0
   -5.0810    6.6900  -20.4810 C   0  0  0  0  0  0  0  0  0  0  0  0
   -3.8270    6.2490  -21.1340 N   0  0  0  0  0  0  0  0  0  0  0  0
   -8.8650    4.6900  -16.1160 C   0  0  0  0  0  0  0  0  0  0  0  0
   -7.6500    5.1020  -15.5580 C   0  0  0  0  0  0  0  0  0  0  0  0
   -7.5420    5.4470  -14.0990 C   0  0  0  0  0  0  0  0  0  0  0  0
   -6.6360    6.1720  -13.6960 O   0  0  0  0  0  0  0  0  0  0  0  0
   -8.5060    4.9650  -13.2810 N   0  0  0  0  0  0  0  0  0  0  0  0
   -8.6250    5.2690  -11.9000 C   0  0  0  0  0  0  0  0  0  0  0  0
   -8.7080    4.2530  -10.9530 C   0  0  0  0  0  0  0  0  0  0  0  0
   -8.7260    4.5570   -9.5860 C   0  0  0  0  0  0  0  0  0  0  0  0
   -8.6460    5.8930   -9.1830 C   0  0  0  0  0  0  0  0  0  0  0  0
   -8.6080    6.8660  -10.1510 C   0  0  0  0  0  0  0  0  0  0  0  0
   -8.6880    8.1650   -9.7550 F   0  0  0  0  0  0  0  0  0  0  0  0
   -8.5860    6.6010  -11.4970 C   0  0  0  0  0  0  0  0  0  0  0  0
   -8.8840    3.5470   -8.6430 N   0  0  0  0  0  0  0  0  0  0  0  0
   -8.8260    3.7630   -7.1970 C   0  0  0  0  0  0  0  0  0  0  0  0
   -8.6900    2.3630   -6.6440 C   0  0  0  0  0  0  0  0  0  0  0  0
   -9.3980    1.4930   -7.6490 C   0  0  0  0  0  0  0  0  0  0  0  0
   -9.1400    2.1490   -8.9850 C   0  0  0  0  0  0  0  0  0  0  0  0
  2  1  1  0
  3  2  2  0
  4  3  1  0
  5  4  2  0
  6  5  1  0
  7  6  2  0
  8  4  1  0
  8  7  1  0
  9  8  1  1
 10  9  1  0
 11  9  1  0
 12 10  1  0
 12 11  1  0
 13  2  1  0
 14  5  1  0
 14 13  2  0
 15 14  1  0
 16 15  2  0
 17 15  1  0
 18 17  1  0
 19 18  2  0
 20 19  1  0
 21 20  2  0
 22 21  1  0
 23 22  1  0
 24 18  1  0
 24 22  2  0
 25 20  1  0
 26 25  1  0
 27 26  1  0
 28 27  1  0
 29 28  1  0
 29 25  1  0
M  END
>  <smiles>  (95) 
O=C(Nc1cc(F)cc(N2CCCC2)c1)c1cc(Cl)cc2c1cnn2C1CNC1

>  <inchikey>  (95) 
KOINTBWNZYBEOK-UHFFFAOYSA-N

>  <alias>  (95) 
Z4858a

$$$$
Z4861a
     RDKit          3D

 29 33  0  0  0  0  0  0  0  0999 V2000
  -10.4740    3.8840  -18.2980 Cl  0  0  0  0  0  0  0  0  0  0  0  0
   -8.9330    4.2490  -17.5800 C   0  0  0  0  0  0  0  0  0  0  0  0
   -7.8600    4.4990  -18.4100 C   0  0  0  0  0  0  0  0  0  0  0  0
   -6.6870    4.9320  -17.8150 C   0  0  0  0  0  0  0  0  0  0  0  0
   -6.5550    5.1040  -16.4280 C   0  0  0  0  0  0  0  0  0  0  0  0
   -5.2100    5.5170  -16.2460 C   0  0  0  0  0  0  0  0  0  0  0  0
   -4.5690    5.5910  -17.3940 N   0  0  0  0  0  0  0  0  0  0  0  0
   -5.4730    5.2370  -18.3590 N   0  0  0  0  0  0  0  0  0  0  0  0
   -5.0800    5.2300  -19.7700 C   0  0  1  0  0  0  0  0  0  0  0  0
   -4.9330    6.6080  -20.4480 C   0  0  0  0  0  0  0  0  0  0  0  0
   -3.5870    5.0000  -20.0910 C   0  0  0  0  0  0  0  0  0  0  0  0
   -3.6740    6.1200  -21.0570 N   0  0  0  0  0  0  0  0  0  0  0  0
   -8.8490    4.3720  -16.2020 C   0  0  0  0  0  0  0  0  0  0  0  0
   -7.6590    4.8080  -15.6140 C   0  0  0  0  0  0  0  0  0  0  0  0
   -7.5560    4.9320  -14.1230 C   0  0  0  0  0  0  0  0  0  0  0  0
   -6.6240    5.5400  -13.6030 O   0  0  0  0  0  0  0  0  0  0  0  0
   -8.5010    4.2860  -13.4050 N   0  0  0  0  0  0  0  0  0  0  0  0
   -8.5060    4.1850  -11.9950 C   0  0  0  0  0  0  0  0  0  0  0  0
   -8.5710    5.3270  -11.2090 C   0  0  0  0  0  0  0  0  0  0  0  0
   -8.6360    6.5280  -11.8330 F   0  0  0  0  0  0  0  0  0  0  0  0
   -8.6200    5.2940   -9.8400 C   0  0  0  0  0  0  0  0  0  0  0  0
   -8.6570    4.0660   -9.1950 C   0  0  0  0  0  0  0  0  0  0  0  0
   -8.5400    2.9080   -9.9550 C   0  0  0  0  0  0  0  0  0  0  0  0
   -8.4670    2.9570  -11.3370 C   0  0  0  0  0  0  0  0  0  0  0  0
   -9.0300    4.0000   -7.7270 C   0  0  2  0  0  0  0  0  0  0  0  0
   -7.8420    4.1060   -6.7570 C   0  0  0  0  0  0  0  0  0  0  0  0
   -7.8420    2.9250   -5.9470 O   0  0  0  0  0  0  0  0  0  0  0  0
   -8.6200    1.9490   -6.6090 C   0  0  0  0  0  0  0  0  0  0  0  0
   -9.7300    2.7030   -7.2680 C   0  0  0  0  0  0  0  0  0  0  0  0
  2  1  1  0
  3  2  2  0
  4  3  1  0
  5  4  2  0
  6  5  1  0
  7  6  2  0
  8  4  1  0
  8  7  1  0
  9  8  1  1
 10  9  1  0
 11  9  1  0
 12 11  1  0
 12 10  1  0
 13  2  1  0
 14  5  1  0
 14 13  2  0
 15 14  1  0
 16 15  2  0
 17 15  1  0
 18 17  1  0
 19 18  2  0
 20 19  1  0
 21 19  1  0
 22 21  2  0
 23 22  1  0
 24 18  1  0
 24 23  2  0
 25 22  1  6
 26 25  1  0
 27 26  1  0
 28 27  1  0
 29 28  1  0
 29 25  1  0
M  END
>  <smiles>  (96) 
O=C(Nc1ccc([C@H]2CCOC2)cc1F)c1cc(Cl)cc2c1cnn2C1CNC1

>  <inchikey>  (96) 
GOOLARLMSBNRNU-ZDUSSCGKSA-N

>  <alias>  (96) 
Z4861a

$$$$
Z4872a
     RDKit          3D

 30 34  0  0  0  0  0  0  0  0999 V2000
  -10.5890    3.9890  -18.2780 Cl  0  0  0  0  0  0  0  0  0  0  0  0
   -9.0990    4.3870  -17.4730 C   0  0  0  0  0  0  0  0  0  0  0  0
   -7.9750    4.6350  -18.2370 C   0  0  0  0  0  0  0  0  0  0  0  0
   -6.8370    5.0620  -17.5690 C   0  0  0  0  0  0  0  0  0  0  0  0
   -6.7950    5.2490  -16.1780 C   0  0  0  0  0  0  0  0  0  0  0  0
   -5.4660    5.6700  -15.9150 C   0  0  0  0  0  0  0  0  0  0  0  0
   -4.7530    5.7350  -17.0220 N   0  0  0  0  0  0  0  0  0  0  0  0
   -5.5920    5.3640  -18.0380 N   0  0  0  0  0  0  0  0  0  0  0  0
   -5.1060    5.3260  -19.4190 C   0  0  2  0  0  0  0  0  0  0  0  0
   -3.5980    5.0960  -19.6540 C   0  0  0  0  0  0  0  0  0  0  0  0
   -4.9170    6.6710  -20.1500 C   0  0  0  0  0  0  0  0  0  0  0  0
   -3.6850    6.0960  -20.7420 N   0  0  0  0  0  0  0  0  0  0  0  0
   -9.1000    4.5220  -16.0940 C   0  0  0  0  0  0  0  0  0  0  0  0
   -7.9570    4.9760  -15.4360 C   0  0  0  0  0  0  0  0  0  0  0  0
   -8.0260    5.2540  -13.9640 C   0  0  0  0  0  0  0  0  0  0  0  0
   -7.5070    6.2660  -13.4980 O   0  0  0  0  0  0  0  0  0  0  0  0
   -8.6110    4.2880  -13.2070 N   0  0  0  0  0  0  0  0  0  0  0  0
   -8.6540    4.2030  -11.7890 C   0  0  0  0  0  0  0  0  0  0  0  0
   -8.5910    5.3440  -10.9960 C   0  0  0  0  0  0  0  0  0  0  0  0
   -8.5540    5.1970   -9.6320 C   0  0  0  0  0  0  0  0  0  0  0  0
   -8.6760    6.3060   -8.8690 F   0  0  0  0  0  0  0  0  0  0  0  0
   -8.5180    3.9440   -8.9950 C   0  0  0  0  0  0  0  0  0  0  0  0
   -8.6240    2.8210   -9.8090 C   0  0  0  0  0  0  0  0  0  0  0  0
   -8.6970    2.9480  -11.1880 C   0  0  0  0  0  0  0  0  0  0  0  0
   -8.2700    3.8460   -7.6010 N   0  0  0  0  0  0  0  0  0  0  0  0
   -9.4550    3.7590   -6.7460 C   0  0  0  0  0  0  0  0  0  0  0  0
   -9.0890    3.2870   -5.3520 C   0  0  0  0  0  0  0  0  0  0  0  0
   -8.0230    4.1790   -4.7330 C   0  0  0  0  0  0  0  0  0  0  0  0
   -6.8120    4.2840   -5.6440 C   0  0  0  0  0  0  0  0  0  0  0  0
   -7.2150    4.7080   -7.0480 C   0  0  0  0  0  0  0  0  0  0  0  0
  2  1  1  0
  3  2  2  0
  4  3  1  0
  5  4  2  0
  6  5  1  0
  7  6  2  0
  8  4  1  0
  8  7  1  0
  9  8  1  1
 10  9  1  0
 11  9  1  0
 12 10  1  0
 12 11  1  0
 13  2  1  0
 14 13  2  0
 14  5  1  0
 15 14  1  0
 16 15  2  0
 17 15  1  0
 18 17  1  0
 19 18  2  0
 20 19  1  0
 21 20  1  0
 22 20  2  0
 23 22  1  0
 24 18  1  0
 24 23  2  0
 25 22  1  0
 26 25  1  0
 27 26  1  0
 28 27  1  0
 29 28  1  0
 30 29  1  0
 30 25  1  0
M  END
>  <smiles>  (97) 
O=C(Nc1ccc(N2CCCCC2)c(F)c1)c1cc(Cl)cc2c1cnn2C1CNC1

>  <inchikey>  (97) 
HKVUGDVRBONENU-UHFFFAOYSA-N

>  <alias>  (97) 
Z4872a

$$$$
Z4886a
     RDKit          3D

 25 28  0  0  0  0  0  0  0  0999 V2000
  -10.4700    3.7880  -18.3070 Cl  0  0  0  0  0  0  0  0  0  0  0  0
   -8.9580    4.2270  -17.5650 C   0  0  0  0  0  0  0  0  0  0  0  0
   -7.8780    4.5130  -18.3810 C   0  0  0  0  0  0  0  0  0  0  0  0
   -6.7160    4.9500  -17.7640 C   0  0  0  0  0  0  0  0  0  0  0  0
   -6.6080    5.1130  -16.3750 C   0  0  0  0  0  0  0  0  0  0  0  0
   -5.2700    5.5400  -16.1690 C   0  0  0  0  0  0  0  0  0  0  0  0
   -4.6110    5.6280  -17.3070 N   0  0  0  0  0  0  0  0  0  0  0  0
   -5.4950    5.2670  -18.2880 N   0  0  0  0  0  0  0  0  0  0  0  0
   -5.0640    5.2360  -19.6880 C   0  0  2  0  0  0  0  0  0  0  0  0
   -3.5740    4.9260  -19.9510 C   0  0  0  0  0  0  0  0  0  0  0  0
   -4.8280    6.5830  -20.4040 C   0  0  0  0  0  0  0  0  0  0  0  0
   -3.6060    5.9810  -20.9910 N   0  0  0  0  0  0  0  0  0  0  0  0
   -8.8930    4.3430  -16.1850 C   0  0  0  0  0  0  0  0  0  0  0  0
   -7.7220    4.8070  -15.5780 C   0  0  0  0  0  0  0  0  0  0  0  0
   -7.6780    5.0580  -14.0980 C   0  0  0  0  0  0  0  0  0  0  0  0
   -7.0260    6.0000  -13.6500 O   0  0  0  0  0  0  0  0  0  0  0  0
   -8.3580    4.1830  -13.3130 N   0  0  0  0  0  0  0  0  0  0  0  0
   -8.4350    4.2010  -11.8920 C   0  0  0  0  0  0  0  0  0  0  0  0
   -8.4590    5.4170  -11.2110 C   0  0  0  0  0  0  0  0  0  0  0  0
   -8.5300    5.4360   -9.8180 C   0  0  0  0  0  0  0  0  0  0  0  0
   -8.6440    6.6960   -9.1270 C   0  0  0  0  0  0  0  0  0  0  0  0
   -8.7570    7.7060   -8.6010 N   0  0  0  0  0  0  0  0  0  0  0  0
   -8.5690    4.2410   -9.1070 C   0  0  0  0  0  0  0  0  0  0  0  0
   -8.5540    3.0350   -9.7880 C   0  0  0  0  0  0  0  0  0  0  0  0
   -8.4850    3.0100  -11.1740 C   0  0  0  0  0  0  0  0  0  0  0  0
  2  1  1  0
  3  2  2  0
  4  3  1  0
  5  4  2  0
  6  5  1  0
  7  6  2  0
  8  4  1  0
  8  7  1  0
  9  8  1  1
 10  9  1  0
 11  9  1  0
 12 10  1  0
 12 11  1  0
 13  2  1  0
 14  5  1  0
 14 13  2  0
 15 14  1  0
 16 15  2  0
 17 15  1  0
 18 17  1  0
 19 18  2  0
 20 19  1  0
 21 20  1  0
 22 21  3  0
 23 20  2  0
 24 23  1  0
 25 18  1  0
 25 24  2  0
M  END
>  <smiles>  (98) 
N#Cc1cccc(NC(=O)c2cc(Cl)cc3c2cnn3C2CNC2)c1

>  <inchikey>  (98) 
XVDDLOSILCEWNQ-UHFFFAOYSA-N

>  <alias>  (98) 
Z4886a

$$$$
Z4887a
     RDKit          3D

 24 27  0  0  0  0  0  0  0  0999 V2000
  -10.5340    3.9670  -18.3030 Cl  0  0  0  0  0  0  0  0  0  0  0  0
   -8.9920    4.3240  -17.5810 C   0  0  0  0  0  0  0  0  0  0  0  0
   -7.9200    4.5820  -18.4130 C   0  0  0  0  0  0  0  0  0  0  0  0
   -6.7210    4.9310  -17.8150 C   0  0  0  0  0  0  0  0  0  0  0  0
   -6.5690    5.0430  -16.4240 C   0  0  0  0  0  0  0  0  0  0  0  0
   -5.2000    5.3650  -16.2400 C   0  0  0  0  0  0  0  0  0  0  0  0
   -4.5640    5.4390  -17.3910 N   0  0  0  0  0  0  0  0  0  0  0  0
   -5.4940    5.1780  -18.3590 N   0  0  0  0  0  0  0  0  0  0  0  0
   -5.1040    5.1740  -19.7720 C   0  0  1  0  0  0  0  0  0  0  0  0
   -4.9300    6.5520  -20.4390 C   0  0  0  0  0  0  0  0  0  0  0  0
   -3.6150    4.9230  -20.0950 C   0  0  0  0  0  0  0  0  0  0  0  0
   -3.7080    6.0150  -21.0890 N   0  0  0  0  0  0  0  0  0  0  0  0
   -8.8930    4.3990  -16.1970 C   0  0  0  0  0  0  0  0  0  0  0  0
   -7.6840    4.7860  -15.6080 C   0  0  0  0  0  0  0  0  0  0  0  0
   -7.5940    5.0470  -14.1330 C   0  0  0  0  0  0  0  0  0  0  0  0
   -6.7480    5.8210  -13.6860 O   0  0  0  0  0  0  0  0  0  0  0  0
   -8.4480    4.3570  -13.3440 N   0  0  0  0  0  0  0  0  0  0  0  0
   -8.4830    4.3760  -11.9280 C   0  0  0  0  0  0  0  0  0  0  0  0
   -8.3860    5.5650  -11.2090 C   0  0  0  0  0  0  0  0  0  0  0  0
   -8.4410    5.5550   -9.8260 C   0  0  0  0  0  0  0  0  0  0  0  0
   -8.5970    4.3550   -9.1900 C   0  0  0  0  0  0  0  0  0  0  0  0
   -8.6540    4.3430   -7.8300 F   0  0  0  0  0  0  0  0  0  0  0  0
   -8.6900    3.1640   -9.8590 C   0  0  0  0  0  0  0  0  0  0  0  0
   -8.6260    3.1770  -11.2410 C   0  0  0  0  0  0  0  0  0  0  0  0
  2  1  1  0
  3  2  2  0
  4  3  1  0
  5  4  2  0
  6  5  1  0
  7  6  2  0
  8  4  1  0
  8  7  1  0
  9  8  1  1
 10  9  1  0
 11  9  1  0
 12 11  1  0
 12 10  1  0
 13  2  1  0
 14  5  1  0
 14 13  2  0
 15 14  1  0
 16 15  2  0
 17 15  1  0
 18 17  1  0
 19 18  2  0
 20 19  1  0
 21 20  2  0
 22 21  1  0
 23 21  1  0
 24 18  1  0
 24 23  2  0
M  END
>  <smiles>  (99) 
O=C(Nc1ccc(F)cc1)c1cc(Cl)cc2c1cnn2C1CNC1

>  <inchikey>  (99) 
DUKZPBSXIALOLF-UHFFFAOYSA-N

>  <alias>  (99) 
Z4887a

$$$$
Z4905a
     RDKit          3D

 29 33  0  0  0  0  0  0  0  0999 V2000
  -10.5700    4.0530  -18.2850 Cl  0  0  0  0  0  0  0  0  0  0  0  0
   -9.0420    4.4230  -17.5370 C   0  0  0  0  0  0  0  0  0  0  0  0
   -7.9440    4.6530  -18.3450 C   0  0  0  0  0  0  0  0  0  0  0  0
   -6.7710    5.0510  -17.7230 C   0  0  0  0  0  0  0  0  0  0  0  0
   -6.6690    5.2290  -16.3340 C   0  0  0  0  0  0  0  0  0  0  0  0
   -5.3120    5.5860  -16.1180 C   0  0  0  0  0  0  0  0  0  0  0  0
   -4.6390    5.6270  -17.2500 N   0  0  0  0  0  0  0  0  0  0  0  0
   -5.5330    5.3090  -18.2370 N   0  0  0  0  0  0  0  0  0  0  0  0
   -5.1130    5.3100  -19.6420 C   0  0  1  0  0  0  0  0  0  0  0  0
   -5.0070    6.6830  -20.3330 C   0  0  0  0  0  0  0  0  0  0  0  0
   -3.6070    5.1330  -19.9310 C   0  0  0  0  0  0  0  0  0  0  0  0
   -3.7370    6.2120  -20.9350 N   0  0  0  0  0  0  0  0  0  0  0  0
   -8.9840    4.5540  -16.1580 C   0  0  0  0  0  0  0  0  0  0  0  0
   -7.8030    4.9850  -15.5500 C   0  0  0  0  0  0  0  0  0  0  0  0
   -7.7810    5.2470  -14.0770 C   0  0  0  0  0  0  0  0  0  0  0  0
   -7.1000    6.1580  -13.6100 O   0  0  0  0  0  0  0  0  0  0  0  0
   -8.5050    4.3890  -13.3240 N   0  0  0  0  0  0  0  0  0  0  0  0
   -8.5790    4.3660  -11.9130 C   0  0  0  0  0  0  0  0  0  0  0  0
   -8.7030    3.1480  -11.2550 C   0  0  0  0  0  0  0  0  0  0  0  0
   -8.7390    3.1010   -9.8740 C   0  0  0  0  0  0  0  0  0  0  0  0
   -8.6670    4.2770   -9.1410 C   0  0  0  0  0  0  0  0  0  0  0  0
   -8.5170    5.4920   -9.7840 C   0  0  0  0  0  0  0  0  0  0  0  0
   -8.4820    5.5360  -11.1660 C   0  0  0  0  0  0  0  0  0  0  0  0
   -8.8710    4.3310   -7.7800 O   0  0  0  0  0  0  0  0  0  0  0  0
   -8.1460    3.3970   -7.0120 C   0  0  2  0  0  0  0  0  0  0  0  0
   -8.8830    2.1350   -6.3100 C   0  0  1  0  0  0  0  0  0  0  0  0
   -9.6540    2.1260   -7.4420 F   0  0  0  0  0  0  0  0  0  0  0  0
  -10.0450    1.4890   -5.9700 F   0  0  0  0  0  0  0  0  0  0  0  0
   -8.5390    3.3830   -5.6040 C   0  0  0  0  0  0  0  0  0  0  0  0
  2  1  1  0
  3  2  2  0
  4  3  1  0
  5  4  2  0
  6  5  1  0
  7  6  2  0
  8  4  1  0
  8  7  1  0
  9  8  1  1
 10  9  1  0
 11  9  1  0
 12 11  1  0
 12 10  1  0
 13  2  1  0
 14 13  2  0
 14  5  1  0
 15 14  1  0
 16 15  2  0
 17 15  1  0
 18 17  1  0
 19 18  2  0
 20 19  1  0
 21 20  2  0
 22 21  1  0
 23 18  1  0
 23 22  2  0
 24 21  1  0
 25 24  1  6
 26 25  1  0
 26 27  1  1
 28 26  1  0
 29 26  1  0
 29 25  1  0
M  END
>  <smiles>  (100) 
O=C(Nc1ccc(O[C@H]2CC2(F)F)cc1)c1cc(Cl)cc2c1cnn2C1CNC1

>  <inchikey>  (100) 
JUIBLBDMXCFSJM-SFHVURJKSA-N

>  <alias>  (100) 
Z4905a

$$$$
Z4590a
     RDKit          3D

 30 34  0  0  0  0  0  0  0  0999 V2000
  -10.6370    4.0920  -18.1370 Cl  0  0  0  0  0  0  0  0  0  0  0  0
   -9.0990    4.4150  -17.3710 C   0  0  0  0  0  0  0  0  0  0  0  0
   -8.0010    4.6570  -18.1790 C   0  0  0  0  0  0  0  0  0  0  0  0
   -6.8010    4.9510  -17.5520 C   0  0  0  0  0  0  0  0  0  0  0  0
   -6.6700    5.0300  -16.1570 C   0  0  0  0  0  0  0  0  0  0  0  0
   -5.2950    5.3100  -15.9440 C   0  0  0  0  0  0  0  0  0  0  0  0
   -4.6390    5.3980  -17.0840 N   0  0  0  0  0  0  0  0  0  0  0  0
   -5.5590    5.1780  -18.0720 N   0  0  0  0  0  0  0  0  0  0  0  0
   -5.1550    5.2100  -19.4820 C   0  0  1  0  0  0  0  0  0  0  0  0
   -5.0130    6.6110  -20.1130 C   0  0  0  0  0  0  0  0  0  0  0  0
   -3.6570    5.0170  -19.8050 C   0  0  0  0  0  0  0  0  0  0  0  0
   -3.7710    6.1380  -20.7670 N   0  0  0  0  0  0  0  0  0  0  0  0
   -9.0240    4.4720  -15.9830 C   0  0  0  0  0  0  0  0  0  0  0  0
   -7.8110    4.8030  -15.3590 C   0  0  0  0  0  0  0  0  0  0  0  0
   -7.7090    5.0200  -13.8740 C   0  0  0  0  0  0  0  0  0  0  0  0
   -6.8390    5.7540  -13.4090 O   0  0  0  0  0  0  0  0  0  0  0  0
   -8.6020    4.3660  -13.0890 N   0  0  0  0  0  0  0  0  0  0  0  0
   -8.6370    4.4130  -11.6680 C   0  0  0  0  0  0  0  0  0  0  0  0
   -8.8060    3.2410  -10.9320 C   0  0  0  0  0  0  0  0  0  0  0  0
   -8.7960    3.2780   -9.5410 C   0  0  0  0  0  0  0  0  0  0  0  0
   -8.9340    2.1620   -8.5480 C   0  0  0  0  0  0  0  0  0  0  0  0
   -8.4910    2.7900   -7.2840 N   0  0  0  0  0  0  0  0  0  0  0  0
   -9.1210    2.2010   -6.0900 C   0  0  0  0  0  0  0  0  0  0  0  0
  -10.6820    2.5460   -6.0510 C   0  0  1  0  0  0  0  0  0  0  0  0
  -11.4040    1.3960   -6.1350 F   0  0  0  0  0  0  0  0  0  0  0  0
  -10.9680    3.0680   -4.8280 F   0  0  0  0  0  0  0  0  0  0  0  0
   -8.6530    4.2610   -7.3940 C   0  0  0  0  0  0  0  0  0  0  0  0
   -8.6300    4.4860   -8.8790 C   0  0  0  0  0  0  0  0  0  0  0  0
   -8.4670    5.6590   -9.6110 C   0  0  0  0  0  0  0  0  0  0  0  0
   -8.4680    5.6240  -10.9970 C   0  0  0  0  0  0  0  0  0  0  0  0
  2  1  1  0
  3  2  2  0
  4  3  1  0
  5  4  2  0
  6  5  1  0
  7  6  2  0
  8  4  1  0
  8  7  1  0
  9  8  1  1
 10  9  1  0
 11  9  1  0
 12 11  1  0
 12 10  1  0
 13  2  1  0
 14 13  2  0
 14  5  1  0
 15 14  1  0
 16 15  2  0
 17 15  1  0
 18 17  1  0
 19 18  2  0
 20 19  1  0
 21 20  1  0
 22 21  1  0
 23 22  1  0
 24 23  1  0
 24 25  1  1
 26 24  1  0
 27 22  1  0
 28 27  1  0
 28 20  2  0
 29 28  1  0
 30 18  1  0
 30 29  2  0
M  END
>  <smiles>  (101) 
O=C(Nc1ccc2c(c1)CN(CC(F)F)C2)c1cc(Cl)cc2c1cnn2C1CNC1

>  <inchikey>  (101) 
QWEOQFKKAVAVDN-UHFFFAOYSA-N

>  <alias>  (101) 
Z4590a

$$$$
Z4959a
     RDKit          3D

 24 27  0  0  0  0  0  0  0  0999 V2000
  -10.0530    3.8730  -17.6530 F   0  0  0  0  0  0  0  0  0  0  0  0
   -8.8760    4.1770  -17.0380 C   0  0  0  0  0  0  0  0  0  0  0  0
   -8.8490    4.2260  -15.6630 C   0  0  0  0  0  0  0  0  0  0  0  0
   -7.7760    4.4290  -17.8280 C   0  0  0  0  0  0  0  0  0  0  0  0
   -6.5740    4.7540  -17.2000 C   0  0  0  0  0  0  0  0  0  0  0  0
   -5.3560    4.9960  -18.0000 C   0  0  0  0  0  0  0  0  0  0  0  0
   -5.2730    5.2690  -19.3490 C   0  0  0  0  0  0  0  0  0  0  0  0
   -3.9830    5.4620  -19.6450 N   0  0  0  0  0  0  0  0  0  0  0  0
   -3.1950    5.3350  -18.5530 N   0  0  0  0  0  0  0  0  0  0  0  0
   -4.0220    5.0430  -17.5550 C   0  0  0  0  0  0  0  0  0  0  0  0
   -6.5160    4.8210  -15.8070 C   0  0  0  0  0  0  0  0  0  0  0  0
   -7.6490    4.5600  -15.0380 C   0  0  0  0  0  0  0  0  0  0  0  0
   -7.5240    4.7210  -13.5540 C   0  0  0  0  0  0  0  0  0  0  0  0
   -6.6680    5.4610  -13.0680 O   0  0  0  0  0  0  0  0  0  0  0  0
   -8.4010    4.0150  -12.8020 N   0  0  0  0  0  0  0  0  0  0  0  0
   -8.4990    4.0290  -11.3820 C   0  0  0  0  0  0  0  0  0  0  0  0
   -8.7060    2.8290  -10.7090 C   0  0  0  0  0  0  0  0  0  0  0  0
   -8.7870    2.8060   -9.3170 C   0  0  0  0  0  0  0  0  0  0  0  0
   -9.0950    1.6670   -8.3880 C   0  0  0  0  0  0  0  0  0  0  0  0
   -8.7370    2.2400   -7.0860 N   0  0  0  0  0  0  0  0  0  0  0  0
   -8.7830    3.7100   -7.1260 C   0  0  0  0  0  0  0  0  0  0  0  0
   -8.6410    3.9850   -8.5950 C   0  0  0  0  0  0  0  0  0  0  0  0
   -8.4270    5.1850   -9.2650 C   0  0  0  0  0  0  0  0  0  0  0  0
   -8.3680    5.2110  -10.6520 C   0  0  0  0  0  0  0  0  0  0  0  0
  2  1  1  0
  3  2  2  0
  4  2  1  0
  5  4  2  0
  6  5  1  0
  7  6  1  0
  8  7  2  0
  9  8  1  0
 10  9  1  0
 10  6  2  0
 11  5  1  0
 12 11  2  0
 12  3  1  0
 13 12  1  0
 14 13  2  0
 15 13  1  0
 16 15  1  0
 17 16  2  0
 18 17  1  0
 19 18  1  0
 20 19  1  0
 21 20  1  0
 22 21  1  0
 22 18  2  0
 23 22  1  0
 24 16  1  0
 24 23  2  0
M  END
>  <smiles>  (102) 
O=C(Nc1ccc2c(c1)CNC2)c1cc(F)cc(-c2cn[nH]c2)c1

>  <inchikey>  (102) 
JQVBRWVUKDQFJQ-UHFFFAOYSA-N

>  <alias>  (102) 
Z4959a

$$$$
Z4959b
     RDKit          3D

 24 27  0  0  0  0  0  0  0  0999 V2000
  -10.0660    3.8710  -17.6540 F   0  0  0  0  0  0  0  0  0  0  0  0
   -8.8890    4.1760  -17.0410 C   0  0  0  0  0  0  0  0  0  0  0  0
   -8.8610    4.2250  -15.6660 C   0  0  0  0  0  0  0  0  0  0  0  0
   -7.7890    4.4280  -17.8320 C   0  0  0  0  0  0  0  0  0  0  0  0
   -6.5880    4.7530  -17.2050 C   0  0  0  0  0  0  0  0  0  0  0  0
   -5.3700    4.9960  -18.0060 C   0  0  0  0  0  0  0  0  0  0  0  0
   -5.2880    5.2640  -19.3570 C   0  0  0  0  0  0  0  0  0  0  0  0
   -3.9990    5.4560  -19.6550 N   0  0  0  0  0  0  0  0  0  0  0  0
   -3.2100    5.3330  -18.5640 N   0  0  0  0  0  0  0  0  0  0  0  0
   -4.0350    5.0450  -17.5630 C   0  0  0  0  0  0  0  0  0  0  0  0
   -6.5280    4.8200  -15.8120 C   0  0  0  0  0  0  0  0  0  0  0  0
   -7.6610    4.5590  -15.0420 C   0  0  0  0  0  0  0  0  0  0  0  0
   -7.5310    4.7180  -13.5570 C   0  0  0  0  0  0  0  0  0  0  0  0
   -6.6720    5.4550  -13.0730 O   0  0  0  0  0  0  0  0  0  0  0  0
   -8.4060    4.0120  -12.8030 N   0  0  0  0  0  0  0  0  0  0  0  0
   -8.5000    4.0240  -11.3820 C   0  0  0  0  0  0  0  0  0  0  0  0
   -8.7060    2.8230  -10.7060 C   0  0  0  0  0  0  0  0  0  0  0  0
   -8.7850    2.8020   -9.3140 C   0  0  0  0  0  0  0  0  0  0  0  0
   -9.0910    1.6630   -8.3850 C   0  0  0  0  0  0  0  0  0  0  0  0
   -8.7340    2.2390   -7.0830 N   0  0  0  0  0  0  0  0  0  0  0  0
   -8.7750    3.7100   -7.1230 C   0  0  0  0  0  0  0  0  0  0  0  0
   -8.6380    3.9810   -8.5950 C   0  0  0  0  0  0  0  0  0  0  0  0
   -8.4260    5.1810   -9.2660 C   0  0  0  0  0  0  0  0  0  0  0  0
   -8.3670    5.2060  -10.6530 C   0  0  0  0  0  0  0  0  0  0  0  0
  2  1  1  0
  3  2  2  0
  4  2  1  0
  5  4  2  0
  6  5  1  0
  7  6  1  0
  8  7  2  0
  9  8  1  0
 10  9  1  0
 10  6  2  0
 11  5  1  0
 12 11  2  0
 12  3  1  0
 13 12  1  0
 14 13  2  0
 15 13  1  0
 16 15  1  0
 17 16  2  0
 18 17  1  0
 19 18  1  0
 20 19  1  0
 21 20  1  0
 22 21  1  0
 22 18  2  0
 23 22  1  0
 24 16  1  0
 24 23  2  0
M  END
>  <smiles>  (103) 
O=C(Nc1ccc2c(c1)CNC2)c1cc(F)cc(-c2cn[nH]c2)c1

>  <inchikey>  (103) 
JQVBRWVUKDQFJQ-UHFFFAOYSA-N

>  <alias>  (103) 
Z4959b

$$$$
Z4963a
     RDKit          3D

 22 25  0  0  0  0  0  0  0  0999 V2000
  -10.2480    3.9490  -18.0250 Cl  0  0  0  0  0  0  0  0  0  0  0  0
   -8.7460    4.2410  -17.1900 C   0  0  0  0  0  0  0  0  0  0  0  0
   -8.7300    4.2200  -15.8010 C   0  0  0  0  0  0  0  0  0  0  0  0
   -7.6140    4.5100  -17.9380 C   0  0  0  0  0  0  0  0  0  0  0  0
   -6.4350    4.7730  -17.2550 C   0  0  0  0  0  0  0  0  0  0  0  0
   -6.3780    4.7450  -15.8590 C   0  0  0  0  0  0  0  0  0  0  0  0
   -5.0720    4.9400  -15.4290 N   0  0  0  0  0  0  0  0  0  0  0  0
   -4.3890    5.0830  -16.5500 C   0  0  0  0  0  0  0  0  0  0  0  0
   -5.1450    4.9890  -17.6690 N   0  0  0  0  0  0  0  0  0  0  0  0
   -7.5370    4.4800  -15.1140 C   0  0  0  0  0  0  0  0  0  0  0  0
   -7.4560    4.5800  -13.6140 C   0  0  0  0  0  0  0  0  0  0  0  0
   -6.5750    5.2590  -13.0920 O   0  0  0  0  0  0  0  0  0  0  0  0
   -8.3830    3.9030  -12.8870 N   0  0  0  0  0  0  0  0  0  0  0  0
   -8.4920    3.9080  -11.4670 C   0  0  0  0  0  0  0  0  0  0  0  0
   -8.7260    2.7350  -10.7520 C   0  0  0  0  0  0  0  0  0  0  0  0
   -8.8070    2.7620   -9.3590 C   0  0  0  0  0  0  0  0  0  0  0  0
   -9.0240    1.6400   -8.3850 C   0  0  0  0  0  0  0  0  0  0  0  0
   -8.8800    2.2900   -7.0910 N   0  0  0  0  0  0  0  0  0  0  0  0
   -8.7870    3.7480   -7.2000 C   0  0  0  0  0  0  0  0  0  0  0  0
   -8.6540    3.9620   -8.6810 C   0  0  0  0  0  0  0  0  0  0  0  0
   -8.4130    5.1310   -9.3910 C   0  0  0  0  0  0  0  0  0  0  0  0
   -8.3330    5.1080  -10.7750 C   0  0  0  0  0  0  0  0  0  0  0  0
  2  1  1  0
  3  2  2  0
  4  2  1  0
  5  4  2  0
  6  5  1  0
  7  6  1  0
  8  7  2  0
  9  5  1  0
  9  8  1  0
 10  6  2  0
 10  3  1  0
 11 10  1  0
 12 11  2  0
 13 11  1  0
 14 13  1  0
 15 14  2  0
 16 15  1  0
 17 16  1  0
 18 17  1  0
 19 18  1  0
 20 19  1  0
 20 16  2  0
 21 20  1  0
 22 14  1  0
 22 21  2  0
M  END
>  <smiles>  (104) 
O=C(Nc1ccc2c(c1)CNC2)c1cc(Cl)cc2[nH]cnc12

>  <inchikey>  (104) 
VEJQQQWPFLPTEJ-UHFFFAOYSA-N

>  <alias>  (104) 
Z4963a

$$$$
Z4971a
     RDKit          3D

 23 26  0  0  0  0  0  0  0  0999 V2000
   -6.5640    5.4430  -12.8790 O   0  0  0  0  0  0  0  0  0  0  0  0
   -7.3990    4.7230  -13.4200 C   0  0  0  0  0  0  0  0  0  0  0  0
   -7.4270    4.5780  -14.9120 C   0  0  0  0  0  0  0  0  0  0  0  0
   -8.5430    4.2310  -15.6780 C   0  0  0  0  0  0  0  0  0  0  0  0
   -8.4620    4.2530  -17.0620 C   0  0  0  0  0  0  0  0  0  0  0  0
   -9.8380    3.8210  -18.0260 Cl  0  0  0  0  0  0  0  0  0  0  0  0
   -6.2280    4.9070  -15.5450 C   0  0  0  0  0  0  0  0  0  0  0  0
   -6.1350    4.9250  -16.9420 C   0  0  0  0  0  0  0  0  0  0  0  0
   -7.2790    4.6130  -17.7000 C   0  0  0  0  0  0  0  0  0  0  0  0
   -6.9540    4.7320  -19.0300 N   0  0  0  0  0  0  0  0  0  0  0  0
   -5.6360    5.0910  -19.1350 C   0  0  0  0  0  0  0  0  0  0  0  0
   -5.0820    5.2050  -17.8830 C   0  0  0  0  0  0  0  0  0  0  0  0
   -3.6350    5.4560  -17.5720 C   0  0  0  0  0  0  0  0  0  0  0  0
   -8.3140    4.0070  -12.7210 N   0  0  0  0  0  0  0  0  0  0  0  0
   -8.4490    3.9910  -11.3020 C   0  0  0  0  0  0  0  0  0  0  0  0
   -8.7320    2.8010  -10.6370 C   0  0  0  0  0  0  0  0  0  0  0  0
   -8.8230    2.7780   -9.2460 C   0  0  0  0  0  0  0  0  0  0  0  0
   -9.0870    1.6250   -8.3230 C   0  0  0  0  0  0  0  0  0  0  0  0
   -8.8150    2.2140   -7.0030 N   0  0  0  0  0  0  0  0  0  0  0  0
   -8.7940    3.6770   -7.0520 C   0  0  0  0  0  0  0  0  0  0  0  0
   -8.6360    3.9470   -8.5210 C   0  0  0  0  0  0  0  0  0  0  0  0
   -8.3590    5.1360   -9.1830 C   0  0  0  0  0  0  0  0  0  0  0  0
   -8.2670    5.1600  -10.5660 C   0  0  0  0  0  0  0  0  0  0  0  0
  2  1  2  0
  3  2  1  0
  4  3  2  0
  5  4  1  0
  6  5  1  0
  7  3  1  0
  8  7  2  0
  9  8  1  0
  9  5  2  0
 10  9  1  0
 11 10  1  0
 12 11  2  0
 12  8  1  0
 13 12  1  0
 14  2  1  0
 15 14  1  0
 16 15  2  0
 17 16  1  0
 18 17  1  0
 19 18  1  0
 20 19  1  0
 21 20  1  0
 21 17  2  0
 22 21  1  0
 23 15  1  0
 23 22  2  0
M  END
>  <smiles>  (105) 
Cc1c[nH]c2c(Cl)cc(C(=O)Nc3ccc4c(c3)CNC4)cc12

>  <inchikey>  (105) 
DOFQCNZNSJIRIS-UHFFFAOYSA-N

>  <alias>  (105) 
Z4971a

$$$$
Z5010a
     RDKit          3D

 25 28  0  0  0  0  0  0  0  0999 V2000
  -10.4390    3.9270  -18.2580 Cl  0  0  0  0  0  0  0  0  0  0  0  0
   -8.9160    4.3220  -17.5090 C   0  0  0  0  0  0  0  0  0  0  0  0
   -8.8390    4.3840  -16.1240 C   0  0  0  0  0  0  0  0  0  0  0  0
   -7.8330    4.5960  -18.3210 C   0  0  0  0  0  0  0  0  0  0  0  0
   -6.6450    4.9420  -17.7000 C   0  0  0  0  0  0  0  0  0  0  0  0
   -5.4140    5.2160  -18.2240 N   0  0  0  0  0  0  0  0  0  0  0  0
   -4.9960    5.1710  -19.6280 C   0  0  1  0  0  0  0  0  0  0  0  0
   -4.9200    6.4910  -20.4230 C   0  0  0  0  0  0  0  0  0  0  0  0
   -3.7100    5.9340  -21.0730 N   0  0  0  0  0  0  0  0  0  0  0  0
   -3.4920    5.0080  -19.9380 C   0  0  0  0  0  0  0  0  0  0  0  0
   -4.5030    5.4910  -17.2400 N   0  0  0  0  0  0  0  0  0  0  0  0
   -5.1530    5.3860  -16.0980 C   0  0  0  0  0  0  0  0  0  0  0  0
   -6.5140    5.0380  -16.3060 C   0  0  0  0  0  0  0  0  0  0  0  0
   -7.6430    4.7700  -15.5090 C   0  0  0  0  0  0  0  0  0  0  0  0
   -7.6000    5.1080  -14.0450 C   0  0  0  0  0  0  0  0  0  0  0  0
   -6.9840    6.1050  -13.6740 O   0  0  0  0  0  0  0  0  0  0  0  0
   -8.2270    4.2610  -13.1800 N   0  0  0  0  0  0  0  0  0  0  0  0
   -8.3250    4.4100  -11.7800 C   0  0  0  0  0  0  0  0  0  0  0  0
   -8.1180    5.6680  -11.1920 C   0  0  0  0  0  0  0  0  0  0  0  0
   -8.1980    5.7680   -9.8160 C   0  0  0  0  0  0  0  0  0  0  0  0
   -8.6080    3.3070  -11.0620 N   0  0  0  0  0  0  0  0  0  0  0  0
   -8.6870    3.4140   -9.7200 C   0  0  0  0  0  0  0  0  0  0  0  0
   -9.0050    2.1680   -8.9460 C   0  0  0  0  0  0  0  0  0  0  0  0
   -8.4810    4.6550   -9.0320 C   0  0  0  0  0  0  0  0  0  0  0  0
   -8.5430    4.7920   -7.5320 C   0  0  0  0  0  0  0  0  0  0  0  0
  2  1  1  0
  3  2  2  0
  4  2  1  0
  5  4  2  0
  6  5  1  0
  7  6  1  1
  8  7  1  0
  9  8  1  0
 10  7  1  0
 10  9  1  0
 11  6  1  0
 12 11  2  0
 13  5  1  0
 13 12  1  0
 14 13  2  0
 14  3  1  0
 15 14  1  0
 16 15  2  0
 17 15  1  0
 18 17  1  0
 19 18  2  0
 20 19  1  0
 21 18  1  0
 22 21  2  0
 23 22  1  0
 24 22  1  0
 24 20  2  0
 25 24  1  0
M  END
>  <smiles>  (106) 
Cc1ccc(NC(=O)c2cc(Cl)cc3c2cnn3C2CNC2)nc1C

>  <inchikey>  (106) 
BAJRXOCVICRSDQ-UHFFFAOYSA-N

>  <alias>  (106) 
Z5010a

$$$$
Z5020a
     RDKit          3D

 27 31  0  0  0  0  0  0  0  0999 V2000
  -10.7190    4.0550  -18.1550 Cl  0  0  0  0  0  0  0  0  0  0  0  0
   -9.2150    4.4790  -17.3680 C   0  0  0  0  0  0  0  0  0  0  0  0
   -9.1670    4.5510  -15.9790 C   0  0  0  0  0  0  0  0  0  0  0  0
   -8.1180    4.7660  -18.1540 C   0  0  0  0  0  0  0  0  0  0  0  0
   -6.9460    5.1330  -17.5120 C   0  0  0  0  0  0  0  0  0  0  0  0
   -5.7020    5.3890  -18.0120 N   0  0  0  0  0  0  0  0  0  0  0  0
   -5.2580    5.3630  -19.4100 C   0  0  1  0  0  0  0  0  0  0  0  0
   -4.9930    6.7150  -20.1010 C   0  0  0  0  0  0  0  0  0  0  0  0
   -3.7500    6.1260  -20.6610 N   0  0  0  0  0  0  0  0  0  0  0  0
   -3.7770    5.0180  -19.6820 C   0  0  0  0  0  0  0  0  0  0  0  0
   -4.8120    5.6730  -17.0130 N   0  0  0  0  0  0  0  0  0  0  0  0
   -5.4890    5.5940  -15.8830 C   0  0  0  0  0  0  0  0  0  0  0  0
   -6.8450    5.2440  -16.1160 C   0  0  0  0  0  0  0  0  0  0  0  0
   -7.9820    4.9490  -15.3410 C   0  0  0  0  0  0  0  0  0  0  0  0
   -7.9060    5.1190  -13.8510 C   0  0  0  0  0  0  0  0  0  0  0  0
   -7.1280    5.9320  -13.3560 O   0  0  0  0  0  0  0  0  0  0  0  0
   -8.6820    4.2920  -13.1110 N   0  0  0  0  0  0  0  0  0  0  0  0
   -8.7120    4.2030  -11.6890 C   0  0  0  0  0  0  0  0  0  0  0  0
   -8.8580    2.9520  -11.0970 C   0  0  0  0  0  0  0  0  0  0  0  0
   -8.8850    2.8310   -9.7170 C   0  0  0  0  0  0  0  0  0  0  0  0
   -8.7720    3.9460   -8.8950 C   0  0  0  0  0  0  0  0  0  0  0  0
   -8.6060    5.1890   -9.4920 C   0  0  0  0  0  0  0  0  0  0  0  0
   -8.5810    5.3230  -10.8730 C   0  0  0  0  0  0  0  0  0  0  0  0
   -8.8700    3.8120   -7.3860 C   0  0  2  0  0  0  0  0  0  0  0  0
   -7.6510    4.2780   -6.5520 C   0  0  0  0  0  0  0  0  0  0  0  0
   -7.7690    3.0340   -5.7500 N   0  0  0  0  0  0  0  0  0  0  0  0
   -8.6190    2.4050   -6.7910 C   0  0  0  0  0  0  0  0  0  0  0  0
  2  1  1  0
  3  2  2  0
  4  2  1  0
  5  4  2  0
  6  5  1  0
  7  6  1  1
  8  7  1  0
  9  8  1  0
 10  7  1  0
 10  9  1  0
 11  6  1  0
 12 11  2  0
 13  5  1  0
 13 12  1  0
 14 13  2  0
 14  3  1  0
 15 14  1  0
 16 15  2  0
 17 15  1  0
 18 17  1  0
 19 18  2  0
 20 19  1  0
 21 20  2  0
 22 21  1  0
 23 18  1  0
 23 22  2  0
 24 21  1  6
 25 24  1  0
 26 25  1  0
 27 26  1  0
 27 24  1  0
M  END
>  <smiles>  (107) 
O=C(Nc1ccc(C2CNC2)cc1)c1cc(Cl)cc2c1cnn2C1CNC1

>  <inchikey>  (107) 
PKMWDWSRVUHNHJ-UHFFFAOYSA-N

>  <alias>  (107) 
Z5020a

$$$$
Z5027a
     RDKit          3D

 23 26  0  0  0  0  0  0  0  0999 V2000
  -10.4540    3.8260  -18.3380 Cl  0  0  0  0  0  0  0  0  0  0  0  0
   -8.9180    4.1910  -17.6020 C   0  0  0  0  0  0  0  0  0  0  0  0
   -8.8290    4.2590  -16.2200 C   0  0  0  0  0  0  0  0  0  0  0  0
   -7.8510    4.4950  -18.4240 C   0  0  0  0  0  0  0  0  0  0  0  0
   -6.6770    4.9100  -17.8150 C   0  0  0  0  0  0  0  0  0  0  0  0
   -5.4670    5.2420  -18.3520 N   0  0  0  0  0  0  0  0  0  0  0  0
   -5.0610    5.2210  -19.7590 C   0  0  2  0  0  0  0  0  0  0  0  0
   -3.5910    4.8490  -20.0490 C   0  0  0  0  0  0  0  0  0  0  0  0
   -3.5540    5.9740  -21.0080 N   0  0  0  0  0  0  0  0  0  0  0  0
   -4.7720    6.5840  -20.4180 C   0  0  0  0  0  0  0  0  0  0  0  0
   -4.5680    5.5840  -17.3790 N   0  0  0  0  0  0  0  0  0  0  0  0
   -5.2040    5.4610  -16.2310 C   0  0  0  0  0  0  0  0  0  0  0  0
   -6.5430    5.0350  -16.4250 C   0  0  0  0  0  0  0  0  0  0  0  0
   -7.6470    4.7080  -15.6190 C   0  0  0  0  0  0  0  0  0  0  0  0
   -7.5540    4.9370  -14.1410 C   0  0  0  0  0  0  0  0  0  0  0  0
   -6.7730    5.7740  -13.6960 O   0  0  0  0  0  0  0  0  0  0  0  0
   -8.3320    4.1580  -13.3490 N   0  0  0  0  0  0  0  0  0  0  0  0
   -8.3930    4.1780  -11.9450 C   0  0  0  0  0  0  0  0  0  0  0  0
   -8.3620    2.9690  -11.3680 N   0  0  0  0  0  0  0  0  0  0  0  0
   -8.3400    2.9210  -10.0230 C   0  0  0  0  0  0  0  0  0  0  0  0
   -8.3510    4.0380   -9.2170 C   0  0  0  0  0  0  0  0  0  0  0  0
   -8.3910    5.2740   -9.8220 C   0  0  0  0  0  0  0  0  0  0  0  0
   -8.4160    5.3700  -11.2050 C   0  0  0  0  0  0  0  0  0  0  0  0
  2  1  1  0
  3  2  2  0
  4  2  1  0
  5  4  2  0
  6  5  1  0
  7  6  1  1
  8  7  1  0
  9  8  1  0
 10  7  1  0
 10  9  1  0
 11  6  1  0
 12 11  2  0
 13  5  1  0
 13 12  1  0
 14 13  2  0
 14  3  1  0
 15 14  1  0
 16 15  2  0
 17 15  1  0
 18 17  1  0
 19 18  2  0
 20 19  1  0
 21 20  2  0
 22 21  1  0
 23 18  1  0
 23 22  2  0
M  END
>  <smiles>  (108) 
O=C(Nc1ccccn1)c1cc(Cl)cc2c1cnn2C1CNC1

>  <inchikey>  (108) 
JWZXVZVDFXZYLJ-UHFFFAOYSA-N

>  <alias>  (108) 
Z5027a

$$$$
Z5061a
     RDKit          3D

 25 28  0  0  0  0  0  0  0  0999 V2000
  -10.4370    3.8000  -18.2020 Cl  0  0  0  0  0  0  0  0  0  0  0  0
   -8.9200    4.1710  -17.4230 C   0  0  0  0  0  0  0  0  0  0  0  0
   -8.8690    4.2560  -16.0360 C   0  0  0  0  0  0  0  0  0  0  0  0
   -7.8260    4.4460  -18.2200 C   0  0  0  0  0  0  0  0  0  0  0  0
   -6.6620    4.8480  -17.5870 C   0  0  0  0  0  0  0  0  0  0  0  0
   -5.4360    5.1590  -18.0970 N   0  0  0  0  0  0  0  0  0  0  0  0
   -5.0150    5.1500  -19.4990 C   0  0  2  0  0  0  0  0  0  0  0  0
   -3.5310    4.9020  -19.8430 C   0  0  0  0  0  0  0  0  0  0  0  0
   -3.6710    5.9520  -20.8770 N   0  0  0  0  0  0  0  0  0  0  0  0
   -4.8730    6.5110  -20.2100 C   0  0  0  0  0  0  0  0  0  0  0  0
   -4.5540    5.4900  -17.1050 N   0  0  0  0  0  0  0  0  0  0  0  0
   -5.2190    5.3920  -15.9710 C   0  0  0  0  0  0  0  0  0  0  0  0
   -6.5600    4.9840  -16.1920 C   0  0  0  0  0  0  0  0  0  0  0  0
   -7.6890    4.6810  -15.4060 C   0  0  0  0  0  0  0  0  0  0  0  0
   -7.6210    4.9400  -13.9270 C   0  0  0  0  0  0  0  0  0  0  0  0
   -6.8810    5.8210  -13.4940 O   0  0  0  0  0  0  0  0  0  0  0  0
   -8.3790    4.1580  -13.1120 N   0  0  0  0  0  0  0  0  0  0  0  0
   -8.4440    4.2220  -11.7040 C   0  0  0  0  0  0  0  0  0  0  0  0
   -8.1450    5.4220  -11.1820 N   0  0  0  0  0  0  0  0  0  0  0  0
   -8.1350    5.5320   -9.8440 C   0  0  0  0  0  0  0  0  0  0  0  0
   -8.7520    3.1190  -10.9020 C   0  0  0  0  0  0  0  0  0  0  0  0
   -8.7650    3.2550   -9.5150 C   0  0  0  0  0  0  0  0  0  0  0  0
   -9.2050    2.1020   -8.6440 C   0  0  0  0  0  0  0  0  0  0  0  0
   -8.4290    4.5030   -8.9600 C   0  0  0  0  0  0  0  0  0  0  0  0
   -8.3970    4.7210   -7.4670 C   0  0  0  0  0  0  0  0  0  0  0  0
  2  1  1  0
  3  2  2  0
  4  2  1  0
  5  4  2  0
  6  5  1  0
  7  6  1  1
  8  7  1  0
  9  8  1  0
 10  7  1  0
 10  9  1  0
 11  6  1  0
 12 11  2  0
 13  5  1  0
 13 12  1  0
 14 13  2  0
 14  3  1  0
 15 14  1  0
 16 15  2  0
 17 15  1  0
 18 17  1  0
 19 18  2  0
 20 19  1  0
 21 18  1  0
 22 21  2  0
 23 22  1  0
 24 22  1  0
 24 20  2  0
 25 24  1  0
M  END
>  <smiles>  (109) 
Cc1cnc(NC(=O)c2cc(Cl)cc3c2cnn3C2CNC2)cc1C

>  <inchikey>  (109) 
NTLBBDYGCIMHKP-UHFFFAOYSA-N

>  <alias>  (109) 
Z5061a

$$$$
Z5067a
     RDKit          3D

 25 29  0  0  0  0  0  0  0  0999 V2000
   -6.5910    5.4290  -12.6400 O   0  0  0  0  0  0  0  0  0  0  0  0
   -7.3950    4.7060  -13.2270 C   0  0  0  0  0  0  0  0  0  0  0  0
   -7.3870    4.6130  -14.7220 C   0  0  0  0  0  0  0  0  0  0  0  0
   -6.1880    4.9550  -15.3460 C   0  0  0  0  0  0  0  0  0  0  0  0
   -6.1020    4.9620  -16.7400 C   0  0  0  0  0  0  0  0  0  0  0  0
   -5.0480    5.2360  -17.6850 C   0  0  0  0  0  0  0  0  0  0  0  0
   -5.5700    5.0590  -18.9390 C   0  0  0  0  0  0  0  0  0  0  0  0
   -4.9130    5.1690  -20.2590 C   0  0  1  0  0  0  0  0  0  0  0  0
   -4.7220    6.6070  -20.8010 C   0  0  0  0  0  0  0  0  0  0  0  0
   -3.3700    6.2010  -21.2540 N   0  0  0  0  0  0  0  0  0  0  0  0
   -3.3680    5.0580  -20.3080 C   0  0  0  0  0  0  0  0  0  0  0  0
   -6.8910    4.6940  -18.8340 N   0  0  0  0  0  0  0  0  0  0  0  0
   -7.2380    4.6210  -17.4930 C   0  0  0  0  0  0  0  0  0  0  0  0
   -8.4400    4.2670  -16.8850 C   0  0  0  0  0  0  0  0  0  0  0  0
   -8.5010    4.2650  -15.4970 C   0  0  0  0  0  0  0  0  0  0  0  0
   -8.3070    3.9440  -12.5710 N   0  0  0  0  0  0  0  0  0  0  0  0
   -8.4570    3.8950  -11.1520 C   0  0  0  0  0  0  0  0  0  0  0  0
   -8.6620    2.6830  -10.4950 C   0  0  0  0  0  0  0  0  0  0  0  0
   -8.7790    2.6470   -9.1050 C   0  0  0  0  0  0  0  0  0  0  0  0
   -9.0640    1.4870   -8.1970 C   0  0  0  0  0  0  0  0  0  0  0  0
   -8.8540    2.0560   -6.8650 N   0  0  0  0  0  0  0  0  0  0  0  0
   -8.8250    3.5290   -6.9050 C   0  0  0  0  0  0  0  0  0  0  0  0
   -8.6770    3.8190   -8.3700 C   0  0  0  0  0  0  0  0  0  0  0  0
   -8.4720    5.0300   -9.0240 C   0  0  0  0  0  0  0  0  0  0  0  0
   -8.3690    5.0690  -10.4070 C   0  0  0  0  0  0  0  0  0  0  0  0
  2  1  2  0
  3  2  1  0
  4  3  2  0
  5  4  1  0
  6  5  1  0
  7  6  2  0
  8  7  1  1
  9  8  1  0
 10  9  1  0
 11  8  1  0
 11 10  1  0
 12  7  1  0
 13 12  1  0
 13  5  2  0
 14 13  1  0
 15 14  2  0
 15  3  1  0
 16  2  1  0
 17 16  1  0
 18 17  2  0
 19 18  1  0
 20 19  1  0
 21 20  1  0
 22 21  1  0
 23 22  1  0
 23 19  2  0
 24 23  1  0
 25 17  1  0
 25 24  2  0
M  END
>  <smiles>  (110) 
O=C(Nc1ccc2c(c1)CNC2)c1ccc2[nH]c(C3CNC3)cc2c1

>  <inchikey>  (110) 
CGWIOCGEPDNXNS-UHFFFAOYSA-N

>  <alias>  (110) 
Z5067a

$$$$
Z5136a
     RDKit          3D

 24 27  0  0  0  0  0  0  0  0999 V2000
  -10.1430    3.7810  -17.6380 F   0  0  0  0  0  0  0  0  0  0  0  0
   -8.9700    4.0880  -17.0230 C   0  0  0  0  0  0  0  0  0  0  0  0
   -8.9470    4.1810  -15.6490 C   0  0  0  0  0  0  0  0  0  0  0  0
   -7.8780    4.3240  -17.8140 C   0  0  0  0  0  0  0  0  0  0  0  0
   -6.6830    4.6820  -17.2000 C   0  0  0  0  0  0  0  0  0  0  0  0
   -5.4930    4.9550  -18.0230 C   0  0  0  0  0  0  0  0  0  0  0  0
   -4.2380    5.1390  -17.4690 N   0  0  0  0  0  0  0  0  0  0  0  0
   -3.4850    5.3910  -18.4790 C   0  0  0  0  0  0  0  0  0  0  0  0
   -4.1330    5.3820  -19.6900 O   0  0  0  0  0  0  0  0  0  0  0  0
   -5.4220    5.0980  -19.3550 C   0  0  0  0  0  0  0  0  0  0  0  0
   -6.6190    4.7880  -15.8110 C   0  0  0  0  0  0  0  0  0  0  0  0
   -7.7460    4.5320  -15.0300 C   0  0  0  0  0  0  0  0  0  0  0  0
   -7.6090    4.6630  -13.5380 C   0  0  0  0  0  0  0  0  0  0  0  0
   -6.7620    5.4070  -13.0480 O   0  0  0  0  0  0  0  0  0  0  0  0
   -8.4540    3.9150  -12.7790 N   0  0  0  0  0  0  0  0  0  0  0  0
   -8.5250    3.8860  -11.3540 C   0  0  0  0  0  0  0  0  0  0  0  0
   -8.7890    2.6980  -10.6730 C   0  0  0  0  0  0  0  0  0  0  0  0
   -8.8420    2.6790   -9.2800 C   0  0  0  0  0  0  0  0  0  0  0  0
   -9.1730    1.5580   -8.3390 C   0  0  0  0  0  0  0  0  0  0  0  0
   -8.9000    2.1450   -7.0170 N   0  0  0  0  0  0  0  0  0  0  0  0
   -8.7640    3.5980   -7.0910 C   0  0  0  0  0  0  0  0  0  0  0  0
   -8.6180    3.8500   -8.5650 C   0  0  0  0  0  0  0  0  0  0  0  0
   -8.3670    5.0370   -9.2410 C   0  0  0  0  0  0  0  0  0  0  0  0
   -8.3270    5.0590  -10.6270 C   0  0  0  0  0  0  0  0  0  0  0  0
  2  1  1  0
  3  2  2  0
  4  2  1  0
  5  4  2  0
  6  5  1  0
  7  6  1  0
  8  7  2  0
  9  8  1  0
 10  6  2  0
 10  9  1  0
 11  5  1  0
 12 11  2  0
 12  3  1  0
 13 12  1  0
 14 13  2  0
 15 13  1  0
 16 15  1  0
 17 16  2  0
 18 17  1  0
 19 18  1  0
 20 19  1  0
 21 20  1  0
 22 21  1  0
 22 18  2  0
 23 22  1  0
 24 16  1  0
 24 23  2  0
M  END
>  <smiles>  (111) 
O=C(Nc1ccc2c(c1)CNC2)c1cc(F)cc(-c2cocn2)c1

>  <inchikey>  (111) 
FORHHOLCIXSUOC-UHFFFAOYSA-N

>  <alias>  (111) 
Z5136a

$$$$
Z5139a
     RDKit          3D

 24 27  0  0  0  0  0  0  0  0999 V2000
   -9.9860    3.8350  -17.6820 F   0  0  0  0  0  0  0  0  0  0  0  0
   -8.8070    4.0830  -17.0410 C   0  0  0  0  0  0  0  0  0  0  0  0
   -8.8080    4.1380  -15.6660 C   0  0  0  0  0  0  0  0  0  0  0  0
   -7.7040    4.3670  -17.8090 C   0  0  0  0  0  0  0  0  0  0  0  0
   -6.5310    4.7540  -17.1650 C   0  0  0  0  0  0  0  0  0  0  0  0
   -5.3140    5.0270  -17.9550 C   0  0  0  0  0  0  0  0  0  0  0  0
   -4.1220    5.1690  -17.3600 N   0  0  0  0  0  0  0  0  0  0  0  0
   -3.2330    5.3160  -18.3760 N   0  0  0  0  0  0  0  0  0  0  0  0
   -3.8330    5.2900  -19.5710 C   0  0  0  0  0  0  0  0  0  0  0  0
   -5.1730    5.1050  -19.3540 C   0  0  0  0  0  0  0  0  0  0  0  0
   -6.5020    4.8460  -15.7740 C   0  0  0  0  0  0  0  0  0  0  0  0
   -7.6360    4.5320  -15.0220 C   0  0  0  0  0  0  0  0  0  0  0  0
   -7.5380    4.6600  -13.5320 C   0  0  0  0  0  0  0  0  0  0  0  0
   -6.7140    5.4150  -13.0240 O   0  0  0  0  0  0  0  0  0  0  0  0
   -8.3950    3.9070  -12.7940 N   0  0  0  0  0  0  0  0  0  0  0  0
   -8.5140    3.9330  -11.3730 C   0  0  0  0  0  0  0  0  0  0  0  0
   -8.7210    2.7410  -10.6820 C   0  0  0  0  0  0  0  0  0  0  0  0
   -8.8060    2.7370   -9.2940 C   0  0  0  0  0  0  0  0  0  0  0  0
   -9.0920    1.6000   -8.3560 C   0  0  0  0  0  0  0  0  0  0  0  0
   -8.8400    2.1900   -7.0290 N   0  0  0  0  0  0  0  0  0  0  0  0
   -8.8190    3.6660   -7.1130 C   0  0  0  0  0  0  0  0  0  0  0  0
   -8.6600    3.9210   -8.5840 C   0  0  0  0  0  0  0  0  0  0  0  0
   -8.4430    5.1160   -9.2690 C   0  0  0  0  0  0  0  0  0  0  0  0
   -8.3810    5.1250  -10.6560 C   0  0  0  0  0  0  0  0  0  0  0  0
  2  1  1  0
  3  2  2  0
  4  2  1  0
  5  4  2  0
  6  5  1  0
  7  6  2  0
  8  7  1  0
  9  8  1  0
 10  9  2  0
 10  6  1  0
 11  5  1  0
 12 11  2  0
 12  3  1  0
 13 12  1  0
 14 13  2  0
 15 13  1  0
 16 15  1  0
 17 16  2  0
 18 17  1  0
 19 18  1  0
 20 19  1  0
 21 20  1  0
 22 21  1  0
 22 18  2  0
 23 22  1  0
 24 16  1  0
 24 23  2  0
M  END
>  <smiles>  (112) 
O=C(Nc1ccc2c(c1)CNC2)c1cc(F)cc(-c2cc[nH]n2)c1

>  <inchikey>  (112) 
RDWLEMPIMOWHNX-UHFFFAOYSA-N

>  <alias>  (112) 
Z5139a

$$$$
Z5171a
     RDKit          3D

 24 27  0  0  0  0  0  0  0  0999 V2000
   -9.9970    3.8140  -17.6720 F   0  0  0  0  0  0  0  0  0  0  0  0
   -8.8120    4.0690  -17.0450 C   0  0  0  0  0  0  0  0  0  0  0  0
   -8.8060    4.1320  -15.6680 C   0  0  0  0  0  0  0  0  0  0  0  0
   -7.7080    4.3340  -17.8190 C   0  0  0  0  0  0  0  0  0  0  0  0
   -6.5270    4.7090  -17.1790 C   0  0  0  0  0  0  0  0  0  0  0  0
   -5.3020    4.9600  -17.9620 C   0  0  0  0  0  0  0  0  0  0  0  0
   -5.3350    5.0190  -19.3010 N   0  0  0  0  0  0  0  0  0  0  0  0
   -4.0510    5.2460  -19.6790 N   0  0  0  0  0  0  0  0  0  0  0  0
   -3.2300    5.3330  -18.6260 C   0  0  0  0  0  0  0  0  0  0  0  0
   -3.9900    5.1640  -17.4980 C   0  0  0  0  0  0  0  0  0  0  0  0
   -6.4920    4.8080  -15.7880 C   0  0  0  0  0  0  0  0  0  0  0  0
   -7.6280    4.5150  -15.0310 C   0  0  0  0  0  0  0  0  0  0  0  0
   -7.5340    4.6720  -13.5430 C   0  0  0  0  0  0  0  0  0  0  0  0
   -6.7110    5.4330  -13.0450 O   0  0  0  0  0  0  0  0  0  0  0  0
   -8.3770    3.9170  -12.7980 N   0  0  0  0  0  0  0  0  0  0  0  0
   -8.4720    3.9180  -11.3740 C   0  0  0  0  0  0  0  0  0  0  0  0
   -8.7300    2.7280  -10.6960 C   0  0  0  0  0  0  0  0  0  0  0  0
   -8.8200    2.7110   -9.3040 C   0  0  0  0  0  0  0  0  0  0  0  0
   -9.1040    1.5750   -8.3640 C   0  0  0  0  0  0  0  0  0  0  0  0
   -8.7980    2.1460   -7.0300 N   0  0  0  0  0  0  0  0  0  0  0  0
   -8.7740    3.6170   -7.1130 C   0  0  0  0  0  0  0  0  0  0  0  0
   -8.6400    3.8860   -8.5850 C   0  0  0  0  0  0  0  0  0  0  0  0
   -8.3890    5.0790   -9.2580 C   0  0  0  0  0  0  0  0  0  0  0  0
   -8.3110    5.1000  -10.6450 C   0  0  0  0  0  0  0  0  0  0  0  0
  2  1  1  0
  3  2  2  0
  4  2  1  0
  5  4  2  0
  6  5  1  0
  7  6  2  0
  8  7  1  0
  9  8  1  0
 10  9  2  0
 10  6  1  0
 11  5  1  0
 12 11  2  0
 12  3  1  0
 13 12  1  0
 14 13  2  0
 15 13  1  0
 16 15  1  0
 17 16  2  0
 18 17  1  0
 19 18  1  0
 20 19  1  0
 21 20  1  0
 22 21  1  0
 22 18  2  0
 23 22  1  0
 24 16  1  0
 24 23  2  0
M  END
>  <smiles>  (113) 
O=C(Nc1ccc2c(c1)CNC2)c1cc(F)cc(-c2cc[nH]n2)c1

>  <inchikey>  (113) 
RDWLEMPIMOWHNX-UHFFFAOYSA-N

>  <alias>  (113) 
Z5171a

$$$$
Z5197a
     RDKit          3D

 22 25  0  0  0  0  0  0  0  0999 V2000
  -10.5400    3.9230  -18.2850 Cl  0  0  0  0  0  0  0  0  0  0  0  0
   -9.0360    4.3540  -17.5090 C   0  0  0  0  0  0  0  0  0  0  0  0
   -8.9930    4.4520  -16.1250 C   0  0  0  0  0  0  0  0  0  0  0  0
   -7.9360    4.6270  -18.3020 C   0  0  0  0  0  0  0  0  0  0  0  0
   -6.7720    5.0240  -17.6640 C   0  0  0  0  0  0  0  0  0  0  0  0
   -5.5340    5.3140  -18.1650 N   0  0  0  0  0  0  0  0  0  0  0  0
   -5.0820    5.3060  -19.5580 C   0  0  2  0  0  0  0  0  0  0  0  0
   -3.5860    5.0010  -19.8060 C   0  0  0  0  0  0  0  0  0  0  0  0
   -3.6030    6.0580  -20.8450 N   0  0  0  0  0  0  0  0  0  0  0  0
   -4.8140    6.6660  -20.2330 C   0  0  0  0  0  0  0  0  0  0  0  0
   -4.6570    5.6410  -17.1670 N   0  0  0  0  0  0  0  0  0  0  0  0
   -5.3370    5.5630  -16.0390 C   0  0  0  0  0  0  0  0  0  0  0  0
   -6.6800    5.1680  -16.2690 C   0  0  0  0  0  0  0  0  0  0  0  0
   -7.8160    4.8720  -15.4910 C   0  0  0  0  0  0  0  0  0  0  0  0
   -7.7690    5.0920  -14.0050 C   0  0  0  0  0  0  0  0  0  0  0  0
   -7.0400    5.9570  -13.5240 O   0  0  0  0  0  0  0  0  0  0  0  0
   -8.5510    4.2800  -13.2090 N   0  0  0  0  0  0  0  0  0  0  0  0
   -8.6280    4.3750  -11.8130 C   0  0  0  0  0  0  0  0  0  0  0  0
   -8.8080    3.2680  -11.0940 N   0  0  0  0  0  0  0  0  0  0  0  0
   -8.7430    3.7040   -9.8080 N   0  0  0  0  0  0  0  0  0  0  0  0
   -8.5410    5.0240   -9.7170 C   0  0  0  0  0  0  0  0  0  0  0  0
   -8.4520    5.5200  -10.9910 C   0  0  0  0  0  0  0  0  0  0  0  0
  2  1  1  0
  3  2  2  0
  4  2  1  0
  5  4  2  0
  6  5  1  0
  7  6  1  1
  8  7  1  0
  9  8  1  0
 10  7  1  0
 10  9  1  0
 11  6  1  0
 12 11  2  0
 13  5  1  0
 13 12  1  0
 14 13  2  0
 14  3  1  0
 15 14  1  0
 16 15  2  0
 17 15  1  0
 18 17  1  0
 19 18  2  0
 20 19  1  0
 21 20  1  0
 22 18  1  0
 22 21  2  0
M  END
>  <smiles>  (114) 
O=C(Nc1cc[nH]n1)c1cc(Cl)cc2c1cnn2C1CNC1

>  <inchikey>  (114) 
MCDQWMCUFPWKQC-UHFFFAOYSA-N

>  <alias>  (114) 
Z5197a

$$$$
Z5200a
     RDKit          3D

 24 27  0  0  0  0  0  0  0  0999 V2000
  -10.0010    3.8550  -17.7190 F   0  0  0  0  0  0  0  0  0  0  0  0
   -8.8530    4.1620  -17.0490 C   0  0  0  0  0  0  0  0  0  0  0  0
   -8.8820    4.1840  -15.6740 C   0  0  0  0  0  0  0  0  0  0  0  0
   -7.7350    4.4690  -17.7870 C   0  0  0  0  0  0  0  0  0  0  0  0
   -6.5750    4.8360  -17.1100 C   0  0  0  0  0  0  0  0  0  0  0  0
   -5.3560    5.1720  -17.8620 C   0  0  0  0  0  0  0  0  0  0  0  0
   -3.8010    5.1540  -17.1310 S   0  0  0  0  0  0  0  0  0  0  0  0
   -3.0990    5.5600  -18.6510 C   0  0  0  0  0  0  0  0  0  0  0  0
   -3.9380    5.7140  -19.6300 N   0  0  0  0  0  0  0  0  0  0  0  0
   -5.2190    5.5010  -19.1810 C   0  0  0  0  0  0  0  0  0  0  0  0
   -6.5770    4.8960  -15.7180 C   0  0  0  0  0  0  0  0  0  0  0  0
   -7.7280    4.5730  -14.9980 C   0  0  0  0  0  0  0  0  0  0  0  0
   -7.6740    4.7570  -13.5120 C   0  0  0  0  0  0  0  0  0  0  0  0
   -6.8540    5.5180  -13.0020 O   0  0  0  0  0  0  0  0  0  0  0  0
   -8.5210    3.9940  -12.7770 N   0  0  0  0  0  0  0  0  0  0  0  0
   -8.5920    3.9880  -11.3560 C   0  0  0  0  0  0  0  0  0  0  0  0
   -8.7730    2.7860  -10.6800 C   0  0  0  0  0  0  0  0  0  0  0  0
   -8.8130    2.7590   -9.2870 C   0  0  0  0  0  0  0  0  0  0  0  0
   -9.0960    1.6150   -8.3560 C   0  0  0  0  0  0  0  0  0  0  0  0
   -8.8000    2.1870   -7.0220 N   0  0  0  0  0  0  0  0  0  0  0  0
   -8.7880    3.6630   -7.0970 C   0  0  0  0  0  0  0  0  0  0  0  0
   -8.6500    3.9340   -8.5680 C   0  0  0  0  0  0  0  0  0  0  0  0
   -8.4650    5.1400   -9.2420 C   0  0  0  0  0  0  0  0  0  0  0  0
   -8.4500    5.1690  -10.6280 C   0  0  0  0  0  0  0  0  0  0  0  0
  2  1  1  0
  3  2  2  0
  4  2  1  0
  5  4  2  0
  6  5  1  0
  7  6  1  0
  8  7  1  0
  9  8  2  0
 10  6  2  0
 10  9  1  0
 11  5  1  0
 12 11  2  0
 12  3  1  0
 13 12  1  0
 14 13  2  0
 15 13  1  0
 16 15  1  0
 17 16  2  0
 18 17  1  0
 19 18  1  0
 20 19  1  0
 21 20  1  0
 22 21  1  0
 22 18  2  0
 23 22  1  0
 24 16  1  0
 24 23  2  0
M  END
>  <smiles>  (115) 
O=C(Nc1ccc2c(c1)CNC2)c1cc(F)cc(-c2cncs2)c1

>  <inchikey>  (115) 
GKARIMGBJHZOIR-UHFFFAOYSA-N

>  <alias>  (115) 
Z5200a

$$$$
Z5229a
     RDKit          3D

 28 32  0  0  0  0  0  0  0  0999 V2000
  -10.2520    3.9660  -17.6510 F   0  0  0  0  0  0  0  0  0  0  0  0
   -9.0580    4.2580  -17.0600 C   0  0  0  0  0  0  0  0  0  0  0  0
   -9.0030    4.3120  -15.6830 C   0  0  0  0  0  0  0  0  0  0  0  0
   -7.9760    4.5070  -17.8710 C   0  0  0  0  0  0  0  0  0  0  0  0
   -6.7620    4.8370  -17.2720 C   0  0  0  0  0  0  0  0  0  0  0  0
   -5.5410    5.0040  -18.1050 C   0  0  0  0  0  0  0  0  0  0  0  0
   -4.1580    5.2070  -17.6740 C   0  0  0  0  0  0  0  0  0  0  0  0
   -3.5130    5.2860  -16.4380 C   0  0  0  0  0  0  0  0  0  0  0  0
   -2.1450    5.5120  -16.3840 C   0  0  0  0  0  0  0  0  0  0  0  0
   -1.4030    5.6550  -17.5490 C   0  0  0  0  0  0  0  0  0  0  0  0
   -2.0120    5.5590  -18.7940 C   0  0  0  0  0  0  0  0  0  0  0  0
   -3.3820    5.3300  -18.8450 C   0  0  0  0  0  0  0  0  0  0  0  0
   -4.2260    5.1880  -19.9260 N   0  0  0  0  0  0  0  0  0  0  0  0
   -5.5100    4.9980  -19.4760 C   0  0  0  0  0  0  0  0  0  0  0  0
   -6.6810    4.9240  -15.8790 C   0  0  0  0  0  0  0  0  0  0  0  0
   -7.7950    4.6560  -15.0840 C   0  0  0  0  0  0  0  0  0  0  0  0
   -7.6520    4.7730  -13.5960 C   0  0  0  0  0  0  0  0  0  0  0  0
   -6.7780    5.4850  -13.1010 O   0  0  0  0  0  0  0  0  0  0  0  0
   -8.5290    4.0530  -12.8460 N   0  0  0  0  0  0  0  0  0  0  0  0
   -8.5950    4.0520  -11.4190 C   0  0  0  0  0  0  0  0  0  0  0  0
   -8.8670    2.8750  -10.7210 C   0  0  0  0  0  0  0  0  0  0  0  0
   -8.8970    2.8690   -9.3200 C   0  0  0  0  0  0  0  0  0  0  0  0
   -9.1220    1.7350   -8.3610 C   0  0  0  0  0  0  0  0  0  0  0  0
   -8.7480    2.3240   -7.0580 N   0  0  0  0  0  0  0  0  0  0  0  0
   -8.7330    3.7980   -7.1380 C   0  0  0  0  0  0  0  0  0  0  0  0
   -8.6680    4.0470   -8.6180 C   0  0  0  0  0  0  0  0  0  0  0  0
   -8.4100    5.2250   -9.3140 C   0  0  0  0  0  0  0  0  0  0  0  0
   -8.3650    5.2280  -10.7050 C   0  0  0  0  0  0  0  0  0  0  0  0
  2  1  1  0
  3  2  2  0
  4  2  1  0
  5  4  2  0
  6  5  1  0
  7  6  1  0
  8  7  2  0
  9  8  1  0
 10  9  2  0
 11 10  1  0
 12  7  1  0
 12 11  2  0
 13 12  1  0
 14  6  2  0
 14 13  1  0
 15  5  1  0
 16 15  2  0
 16  3  1  0
 17 16  1  0
 18 17  2  0
 19 17  1  0
 20 19  1  0
 21 20  2  0
 22 21  1  0
 23 22  1  0
 24 23  1  0
 25 24  1  0
 26 25  1  0
 26 22  2  0
 27 26  1  0
 28 20  1  0
 28 27  2  0
M  END
>  <smiles>  (116) 
O=C(Nc1ccc2c(c1)CNC2)c1cc(F)cc(-c2c[nH]c3ccccc23)c1

>  <inchikey>  (116) 
PKCPKRVGSZBBTJ-UHFFFAOYSA-N

>  <alias>  (116) 
Z5229a

$$$$
Z5339a
     RDKit          3D

 29 33  0  0  0  0  0  0  0  0999 V2000
  -10.3470    4.0100  -18.1210 Cl  0  0  0  0  0  0  0  0  0  0  0  0
   -8.8830    4.4290  -17.2640 C   0  0  0  0  0  0  0  0  0  0  0  0
   -8.9030    4.4840  -15.8760 C   0  0  0  0  0  0  0  0  0  0  0  0
   -7.7510    4.7250  -17.9970 C   0  0  0  0  0  0  0  0  0  0  0  0
   -6.6080    5.0760  -17.2980 C   0  0  0  0  0  0  0  0  0  0  0  0
   -5.3470    5.3620  -17.7420 N   0  0  0  0  0  0  0  0  0  0  0  0
   -4.8820    5.4900  -19.1260 C   0  0  2  0  0  0  0  0  0  0  0  0
   -3.4730    4.9310  -19.3040 C   0  0  0  0  0  0  0  0  0  0  0  0
   -3.0380    5.1090  -20.7470 C   0  0  0  0  0  0  0  0  0  0  0  0
   -3.1480    6.4860  -21.1720 O   0  0  0  0  0  0  0  0  0  0  0  0
   -4.4970    6.9780  -21.0680 C   0  0  0  0  0  0  0  0  0  0  0  0
   -4.9970    6.9210  -19.6390 C   0  0  0  0  0  0  0  0  0  0  0  0
   -4.4900    5.5870  -16.7000 N   0  0  0  0  0  0  0  0  0  0  0  0
   -5.2100    5.4650  -15.5980 C   0  0  0  0  0  0  0  0  0  0  0  0
   -6.5630    5.1440  -15.8940 C   0  0  0  0  0  0  0  0  0  0  0  0
   -7.7450    4.8600  -15.1720 C   0  0  0  0  0  0  0  0  0  0  0  0
   -7.7570    5.0140  -13.6750 C   0  0  0  0  0  0  0  0  0  0  0  0
   -6.9700    5.7850  -13.1220 O   0  0  0  0  0  0  0  0  0  0  0  0
   -8.5860    4.1950  -12.9790 N   0  0  0  0  0  0  0  0  0  0  0  0
   -8.6360    4.1020  -11.5570 C   0  0  0  0  0  0  0  0  0  0  0  0
   -8.7860    2.8520  -10.9830 C   0  0  0  0  0  0  0  0  0  0  0  0
   -8.8730    2.7190   -9.6040 C   0  0  0  0  0  0  0  0  0  0  0  0
   -8.7730    3.8230   -8.7700 C   0  0  0  0  0  0  0  0  0  0  0  0
   -8.6020    5.0720   -9.3520 C   0  0  0  0  0  0  0  0  0  0  0  0
   -8.5380    5.2160  -10.7290 C   0  0  0  0  0  0  0  0  0  0  0  0
   -8.9170    3.6730   -7.2650 C   0  0  1  0  0  0  0  0  0  0  0  0
   -8.6240    2.2870   -6.6310 C   0  0  0  0  0  0  0  0  0  0  0  0
   -7.8190    2.9590   -5.5680 N   0  0  0  0  0  0  0  0  0  0  0  0
   -7.7570    4.2010   -6.3830 C   0  0  0  0  0  0  0  0  0  0  0  0
  2  1  1  0
  3  2  2  0
  4  2  1  0
  5  4  2  0
  6  5  1  0
  7  6  1  1
  8  7  1  0
  9  8  1  0
 10  9  1  0
 11 10  1  0
 12 11  1  0
 12  7  1  0
 13  6  1  0
 14 13  2  0
 15  5  1  0
 15 14  1  0
 16 15  2  0
 16  3  1  0
 17 16  1  0
 18 17  2  0
 19 17  1  0
 20 19  1  0
 21 20  2  0
 22 21  1  0
 23 22  2  0
 24 23  1  0
 25 20  1  0
 25 24  2  0
 26 23  1  6
 27 26  1  0
 28 27  1  0
 29 28  1  0
 29 26  1  0
M  END
>  <smiles>  (117) 
O=C(Nc1ccc(C2CNC2)cc1)c1cc(Cl)cc2c1cnn2C1CCOCC1

>  <inchikey>  (117) 
LMTPHMAKYXYUCQ-UHFFFAOYSA-N

>  <alias>  (117) 
Z5339a

$$$$
Z5348a
     RDKit          3D

 26 29  0  0  0  0  0  0  0  0999 V2000
  -10.7470    4.1450  -18.1960 Cl  0  0  0  0  0  0  0  0  0  0  0  0
   -9.2020    4.4660  -17.4480 C   0  0  0  0  0  0  0  0  0  0  0  0
   -9.1230    4.5790  -16.0620 C   0  0  0  0  0  0  0  0  0  0  0  0
   -8.1060    4.6660  -18.2660 C   0  0  0  0  0  0  0  0  0  0  0  0
   -6.9170    5.0390  -17.6620 C   0  0  0  0  0  0  0  0  0  0  0  0
   -5.7050    5.3560  -18.2070 N   0  0  0  0  0  0  0  0  0  0  0  0
   -5.3220    5.3880  -19.6210 C   0  0  1  0  0  0  0  0  0  0  0  0
   -5.1330    6.8000  -20.2130 C   0  0  0  0  0  0  0  0  0  0  0  0
   -3.9270    6.2900  -20.9090 N   0  0  0  0  0  0  0  0  0  0  0  0
   -3.8340    5.1480  -19.9680 C   0  0  0  0  0  0  0  0  0  0  0  0
   -4.7990    5.7000  -17.2400 N   0  0  0  0  0  0  0  0  0  0  0  0
   -5.4360    5.6080  -16.0900 C   0  0  0  0  0  0  0  0  0  0  0  0
   -6.7810    5.1940  -16.2740 C   0  0  0  0  0  0  0  0  0  0  0  0
   -7.9070    4.9570  -15.4610 C   0  0  0  0  0  0  0  0  0  0  0  0
   -7.7830    5.2500  -13.9890 C   0  0  0  0  0  0  0  0  0  0  0  0
   -6.9540    6.0650  -13.5860 O   0  0  0  0  0  0  0  0  0  0  0  0
   -8.6060    4.5760  -13.1500 N   0  0  0  0  0  0  0  0  0  0  0  0
   -8.6620    4.7350  -11.7330 C   0  0  0  0  0  0  0  0  0  0  0  0
   -8.4260    5.9650  -11.1220 C   0  0  0  0  0  0  0  0  0  0  0  0
   -8.4980    6.0750   -9.7400 C   0  0  0  0  0  0  0  0  0  0  0  0
   -8.8220    4.9680   -8.9700 C   0  0  0  0  0  0  0  0  0  0  0  0
   -8.9800    3.6290  -10.9520 C   0  0  0  0  0  0  0  0  0  0  0  0
   -9.0790    3.7370   -9.5680 C   0  0  0  0  0  0  0  0  0  0  0  0
   -9.4940    2.5440   -8.7440 C   0  0  0  0  0  0  0  0  0  0  0  0
   -8.3460    1.9260   -8.0820 N   0  0  0  0  0  0  0  0  0  0  0  0
   -8.4510    2.0130   -6.6250 C   0  0  0  0  0  0  0  0  0  0  0  0
  2  1  1  0
  3  2  2  0
  4  2  1  0
  5  4  2  0
  6  5  1  0
  7  6  1  1
  8  7  1  0
  9  8  1  0
 10  7  1  0
 10  9  1  0
 11  6  1  0
 12 11  2  0
 13  5  1  0
 13 12  1  0
 14 13  2  0
 14  3  1  0
 15 14  1  0
 16 15  2  0
 17 15  1  0
 18 17  1  0
 19 18  2  0
 20 19  1  0
 21 20  2  0
 22 18  1  0
 23 22  2  0
 23 21  1  0
 24 23  1  0
 25 24  1  0
 26 25  1  0
M  END
>  <smiles>  (118) 
CNCc1cccc(NC(=O)c2cc(Cl)cc3c2cnn3C2CNC2)c1

>  <inchikey>  (118) 
NSSWESUKHRMODM-UHFFFAOYSA-N

>  <alias>  (118) 
Z5348a

$$$$
