A71EV2A-x5388_A_201_5_A71EV2A-x0911+A+147+1__LIG
     RDKit          3D

 21 22  0  0  0  0  0  0  0  0999 V2000
   10.1960   16.3170   19.3060 O   0  0  0  0  0  0  0  0  0  0  0  0
   10.9660   15.3720   19.4710 C   0  0  0  0  0  0  0  0  0  0  0  0
   11.4960   14.7090   18.4510 N   0  0  0  0  0  0  0  0  0  0  0  0
   11.3050   14.8660   20.8930 C   0  0  1  0  0  0  0  0  0  0  0  0
   12.1650   13.7260   20.8440 O   0  0  0  0  0  0  0  0  0  0  0  0
   11.9190   15.8920   21.8500 C   0  0  0  0  0  0  0  0  0  0  0  0
   11.6550   15.3030   23.2350 C   0  0  0  0  0  0  0  0  0  0  0  0
   10.0230   14.4950   21.6350 C   0  0  0  0  0  0  0  0  0  0  0  0
   10.3750   14.6070   23.0530 N   0  0  0  0  0  0  0  0  0  0  0  0
    9.5990   14.2120   24.0840 C   0  0  0  0  0  0  0  0  0  0  0  0
    9.9790   14.2790   25.2430 O   0  0  0  0  0  0  0  0  0  0  0  0
    8.1970   13.7330   23.7470 C   0  0  0  0  0  0  0  0  0  0  0  0
    7.7320   12.5920   24.6250 C   0  0  0  0  0  0  0  0  0  0  0  0
    8.1220   11.2600   24.4170 C   0  0  0  0  0  0  0  0  0  0  0  0
    9.3840   10.9570   23.2150 S   0  0  0  0  0  0  0  0  0  0  0  0
    9.4790    9.1540   23.1490 C   0  0  0  0  0  0  0  0  0  0  0  0
    6.7760   12.8600   25.6070 C   0  0  0  0  0  0  0  0  0  0  0  0
    6.1930   11.8220   26.3070 C   0  0  0  0  0  0  0  0  0  0  0  0
    4.8130   12.2070   27.5580 Br  0  0  0  0  0  0  0  0  0  0  0  0
    6.5550   10.5120   26.0920 C   0  0  0  0  0  0  0  0  0  0  0  0
    7.5280   10.2310   25.1480 C   0  0  0  0  0  0  0  0  0  0  0  0
 16 15  1  0
 15 14  1  0
 14 21  2  0
 21 20  1  0
 20 18  2  0
 19 18  1  0
 18 17  1  0
 17 13  2  0
 14 13  1  0
 13 12  1  0
 12 10  1  0
 11 10  2  0
 10  9  1  0
  9  7  1  0
  7  6  1  0
  6  4  1  0
  4  5  1  6
  4  2  1  0
  3  2  1  0
  2  1  2  0
  8  4  1  0
  9  8  1  0
M  END
$$$$
