XX01ZVNS2B-x2119_B_301_1_XX01ZVNS2B-x4590+B+203+1__LIG
     RDKit          3D

 27 29  0  0  0  0  0  0  0  0999 V2000
   -6.7010    4.2620   -5.5150 N   0  0  0  0  0  0  0  0  0  0  0  0
   -6.0080    4.9390   -6.6190 C   0  0  0  0  0  0  0  0  0  0  0  0
   -6.6430    4.6110   -7.9490 C   0  0  0  0  0  0  0  0  0  0  0  0
   -7.5770    5.4540   -8.5320 C   0  0  0  0  0  0  0  0  0  0  0  0
   -8.1710    5.1230   -9.7380 C   0  0  0  0  0  0  0  0  0  0  0  0
   -7.9210    3.9050  -10.3480 C   0  0  0  0  0  0  0  0  0  0  0  0
   -8.5050    3.5840  -11.7000 C   0  0  0  0  0  0  0  0  0  0  0  0
   -7.4810    3.8580  -12.8140 C   0  0  2  0  0  0  0  0  0  0  0  0
   -8.0980    3.9950  -14.1130 N   0  0  0  0  0  0  0  0  0  0  0  0
   -7.4430    4.5620  -15.1320 C   0  0  0  0  0  0  0  0  0  0  0  0
   -6.3880    5.1750  -14.9730 O   0  0  0  0  0  0  0  0  0  0  0  0
   -8.0490    4.4300  -16.5010 C   0  0  0  0  0  0  0  0  0  0  0  0
   -7.2840    4.7210  -17.6250 C   0  0  0  0  0  0  0  0  0  0  0  0
   -7.8340    4.6070  -18.8890 C   0  0  0  0  0  0  0  0  0  0  0  0
   -9.1530    4.2450  -19.0470 C   0  0  0  0  0  0  0  0  0  0  0  0
   -9.9270    3.9830  -17.9400 C   0  0  0  0  0  0  0  0  0  0  0  0
   -9.3790    4.0700  -16.6740 C   0  0  0  0  0  0  0  0  0  0  0  0
   -6.4060    2.7690  -12.8360 C   0  0  0  0  0  0  0  0  0  0  0  0
   -6.6920    1.6280  -13.2170 O   0  0  0  0  0  0  0  0  0  0  0  0
   -5.1610    3.0820  -12.4210 N   0  0  0  0  0  0  0  0  0  0  0  0
   -4.6780    4.4340  -12.0780 C   0  0  0  0  0  0  0  0  0  0  0  0
   -3.1610    4.5110  -12.0000 C   0  0  0  0  0  0  0  0  0  0  0  0
   -2.5010    3.7430  -13.1390 C   0  0  0  0  0  0  0  0  0  0  0  0
   -2.9470    2.2830  -13.1700 C   0  0  0  0  0  0  0  0  0  0  0  0
   -4.1520    2.0230  -12.2790 C   0  0  0  0  0  0  0  0  0  0  0  0
   -6.9750    3.0750   -9.7710 C   0  0  0  0  0  0  0  0  0  0  0  0
   -6.3380    3.4250   -8.5940 C   0  0  0  0  0  0  0  0  0  0  0  0
  1  2  1  0
  2  3  1  0
  3  4  2  0
  4  5  1  0
  5  6  2  0
  6  7  1  0
  8  7  1  1
  8  9  1  0
  9 10  1  0
 10 11  2  0
 10 12  1  0
 12 13  2  0
 13 14  1  0
 14 15  2  0
 15 16  1  0
 16 17  2  0
  8 18  1  0
 18 19  2  0
 18 20  1  0
 20 21  1  0
 21 22  1  0
 22 23  1  0
 23 24  1  0
 24 25  1  0
  6 26  1  0
 26 27  2  0
  3 27  1  0
 12 17  1  0
 20 25  1  0
M  END
$$$$
