A71EV2A-x3663_A_201_1_A71EV2A-x0911+A+147+1__LIG
     RDKit          3D

 20 21  0  0  0  0  0  0  0  0999 V2000
    9.8970   16.3480   18.7200 O   0  0  0  0  0  0  0  0  0  0  0  0
   10.6220   15.4830   19.2200 C   0  0  0  0  0  0  0  0  0  0  0  0
   11.3010   14.5900   18.5200 N   0  0  0  0  0  0  0  0  0  0  0  0
   10.7690   15.4490   20.7270 C   0  0  2  0  0  0  0  0  0  0  0  0
   12.1070   15.1190   21.1300 O   0  0  0  0  0  0  0  0  0  0  0  0
   12.2020   15.1190   22.5630 C   0  0  0  0  0  0  0  0  0  0  0  0
   11.3640   13.9910   23.1420 C   0  0  0  0  0  0  0  0  0  0  0  0
    9.8230   14.3560   21.1620 C   0  0  0  0  0  0  0  0  0  0  0  0
    9.9970   14.0170   22.5790 N   0  0  0  0  0  0  0  0  0  0  0  0
    8.8820   13.6320   23.2380 C   0  0  0  0  0  0  0  0  0  0  0  0
    7.7870   13.5330   22.6860 O   0  0  0  0  0  0  0  0  0  0  0  0
    9.0550   13.2380   24.6900 C   0  0  0  0  0  0  0  0  0  0  0  0
    7.9630   12.2760   25.0890 C   0  0  0  0  0  0  0  0  0  0  0  0
    8.0180   10.9520   24.6710 C   0  0  0  0  0  0  0  0  0  0  0  0
    8.8250   10.7250   23.5860 O   0  0  0  0  0  0  0  0  0  0  0  0
    9.6300    9.5480   23.5850 C   0  0  0  0  0  0  0  0  0  0  0  0
    6.9440   12.6520   25.9560 C   0  0  0  0  0  0  0  0  0  0  0  0
    6.0640   11.7140   26.4650 C   0  0  0  0  0  0  0  0  0  0  0  0
    6.2020   10.3930   26.1280 C   0  0  0  0  0  0  0  0  0  0  0  0
    7.1740   10.0010   25.2190 C   0  0  0  0  0  0  0  0  0  0  0  0
 16 15  1  0
 15 14  1  0
 14 20  2  0
 20 19  1  0
 19 18  2  0
 18 17  1  0
 17 13  2  0
 14 13  1  0
 13 12  1  0
 12 10  1  0
 11 10  2  0
 10  9  1  0
  9  7  1  0
  7  6  1  0
  6  5  1  0
  5  4  1  0
  4  2  1  6
  3  2  1  0
  2  1  2  0
  8  4  1  0
  9  8  1  0
M  END
$$$$
