A71EV2A-x4935_A_201_3_A71EV2A-x0911+A+147+1__LIG
     RDKit          3D

 19 20  0  0  0  0  0  0  0  0999 V2000
   10.3810   16.6330   19.1670 O   0  0  0  0  0  0  0  0  0  0  0  0
   10.7400   15.4950   19.4790 C   0  0  0  0  0  0  0  0  0  0  0  0
   11.1450   14.6080   18.5910 N   0  0  0  0  0  0  0  0  0  0  0  0
   10.7160   15.0300   20.9260 C   0  0  1  0  0  0  0  0  0  0  0  0
   11.7260   15.7980   21.7950 C   0  0  0  0  0  0  0  0  0  0  0  0
   11.7040   15.3070   23.2550 C   0  0  0  0  0  0  0  0  0  0  0  0
   10.2960   15.3790   23.8170 C   0  0  0  0  0  0  0  0  0  0  0  0
    9.3280   15.1820   21.5540 C   0  0  0  0  0  0  0  0  0  0  0  0
    9.3390   14.6860   22.9340 N   0  0  0  0  0  0  0  0  0  0  0  0
    8.4650   13.7310   23.3350 C   0  0  0  0  0  0  0  0  0  0  0  0
    7.6820   13.2050   22.5620 O   0  0  0  0  0  0  0  0  0  0  0  0
    8.4720   13.3720   24.8090 C   0  0  0  0  0  0  0  0  0  0  0  0
    7.7800   12.0830   25.1750 C   0  0  0  0  0  0  0  0  0  0  0  0
    6.7500   12.0100   26.0640 C   0  0  0  0  0  0  0  0  0  0  0  0
    6.1770   10.4240   26.2580 S   0  0  0  0  0  0  0  0  0  0  0  0
    7.3320    9.7890   25.1640 C   0  0  0  0  0  0  0  0  0  0  0  0
    8.1160   10.7680   24.6580 C   0  0  0  0  0  0  0  0  0  0  0  0
    9.4000   10.5550   23.4900 S   0  0  0  0  0  0  0  0  0  0  0  0
    9.4280    8.7860   23.2190 C   0  0  0  0  0  0  0  0  0  0  0  0
 19 18  1  0
 18 17  1  0
 17 16  2  0
 16 15  1  0
 15 14  1  0
 14 13  2  0
 17 13  1  0
 13 12  1  0
 12 10  1  0
 11 10  2  0
 10  9  1  0
  9  7  1  0
  7  6  1  0
  6  5  1  0
  5  4  1  0
  4  2  1  6
  3  2  1  0
  2  1  2  0
  8  4  1  0
  9  8  1  0
M  END
$$$$
