A71EV2A-x4386_A_201_1_A71EV2A-x0911+A+147+1__LIG
     RDKit          3D

 20 21  0  0  0  0  0  0  0  0999 V2000
   10.4190   16.8030   19.1770 O   0  0  0  0  0  0  0  0  0  0  0  0
   10.7180   15.6260   19.3960 C   0  0  0  0  0  0  0  0  0  0  0  0
   11.1850   14.8260   18.4550 N   0  0  0  0  0  0  0  0  0  0  0  0
   10.6910   15.0550   20.8050 C   0  0  1  0  0  0  0  0  0  0  0  0
   11.7930   15.7110   21.6580 C   0  0  0  0  0  0  0  0  0  0  0  0
   11.8360   15.1560   23.0800 C   0  0  0  0  0  0  0  0  0  0  0  0
   10.4790   15.2900   23.7360 C   0  0  0  0  0  0  0  0  0  0  0  0
    9.3500   15.2230   21.5320 C   0  0  0  0  0  0  0  0  0  0  0  0
    9.4200   14.6900   22.9030 N   0  0  0  0  0  0  0  0  0  0  0  0
    8.5390   13.7650   23.3560 C   0  0  0  0  0  0  0  0  0  0  0  0
    7.6470   13.3110   22.6480 O   0  0  0  0  0  0  0  0  0  0  0  0
    8.6880   13.3460   24.8100 C   0  0  0  0  0  0  0  0  0  0  0  0
    7.8410   12.1490   25.1850 C   0  0  0  0  0  0  0  0  0  0  0  0
    8.0950   10.8490   24.7200 C   0  0  0  0  0  0  0  0  0  0  0  0
    9.4150   10.6170   23.5730 S   0  0  0  0  0  0  0  0  0  0  0  0
    9.5290    8.8350   23.4160 C   0  0  0  0  0  0  0  0  0  0  0  0
    6.7860   12.3290   26.0770 C   0  0  0  0  0  0  0  0  0  0  0  0
    6.0100   11.2630   26.4920 C   0  0  0  0  0  0  0  0  0  0  0  0
    6.2740    9.9970   26.0360 C   0  0  0  0  0  0  0  0  0  0  0  0
    7.3210    9.7770   25.1640 C   0  0  0  0  0  0  0  0  0  0  0  0
 16 15  1  0
 15 14  1  0
 14 20  2  0
 20 19  1  0
 19 18  2  0
 18 17  1  0
 17 13  2  0
 14 13  1  0
 13 12  1  0
 12 10  1  0
 11 10  2  0
 10  9  1  0
  9  7  1  0
  7  6  1  0
  6  5  1  0
  5  4  1  0
  4  2  1  6
  3  2  1  0
  2  1  2  0
  8  4  1  0
  9  8  1  0
M  END
$$$$
