XX01ZVNS2B-x0819_B_301_1_XX01ZVNS2B-x4590+B+203+1__LIG
     RDKit          3D

 11 11  0  0  0  0  0  0  0  0999 V2000
  -10.4690    5.9040  -17.7160 O   0  0  0  0  0  0  0  0  0  0  0  0
   -9.2510    5.1610  -17.7990 S   0  0  0  0  0  0  0  0  0  0  0  0
   -9.2710    3.8720  -18.4170 O   0  0  0  0  0  0  0  0  0  0  0  0
   -8.6050    4.9860  -16.1820 C   0  0  0  0  0  0  0  0  0  0  0  0
   -8.2040    6.0690  -18.6390 N   0  0  0  0  0  0  0  0  0  0  0  0
   -6.7440    6.0560  -18.4340 C   0  0  0  0  0  0  0  0  0  0  0  0
   -6.1470    4.7780  -19.0140 C   0  0  0  0  0  0  0  0  0  0  0  0
   -4.6290    4.8080  -18.9370 C   0  0  0  0  0  0  0  0  0  0  0  0
   -4.0970    6.0010  -19.6250 N   0  0  0  0  0  0  0  0  0  0  0  0
   -4.6060    7.2410  -19.0070 C   0  0  0  0  0  0  0  0  0  0  0  0
   -6.1230    7.2920  -19.0800 C   0  0  0  0  0  0  0  0  0  0  0  0
  4  2  1  0
  3  2  2  0
  2  1  2  0
  5  2  1  0
  6  5  1  0
  6 11  1  0
 11 10  1  0
 10  9  1  0
  9  8  1  0
  8  7  1  0
  7  6  1  0
M  END
$$$$
