XX01ZVNS2B-x3024_B_301_1_XX01ZVNS2B-x4590+B+203+1__LIG
     RDKit          3D

 30 32  0  0  0  0  0  0  0  0999 V2000
   -3.7840    4.8930  -17.0010 O   0  0  0  0  0  0  0  0  0  0  0  0
   -4.1530    4.8300  -18.1580 C   0  0  0  0  0  0  0  0  0  0  0  0
   -3.3250    4.8510  -19.2220 O   0  0  0  0  0  0  0  0  0  0  0  0
   -1.9270    5.1310  -18.9490 C   0  0  0  0  0  0  0  0  0  0  0  0
   -1.7670    6.5920  -19.2430 C   0  0  0  0  0  0  0  0  0  0  0  0
   -2.8010    7.4710  -18.9660 C   0  0  0  0  0  0  0  0  0  0  0  0
   -2.7480    8.7860  -19.3940 C   0  0  0  0  0  0  0  0  0  0  0  0
   -1.6580    9.2380  -20.0940 C   0  0  0  0  0  0  0  0  0  0  0  0
   -0.6100    8.3850  -20.3470 C   0  0  0  0  0  0  0  0  0  0  0  0
   -0.6580    7.0710  -19.9200 C   0  0  0  0  0  0  0  0  0  0  0  0
   -5.4350    4.8850  -18.6030 N   0  0  0  0  0  0  0  0  0  0  0  0
   -6.6110    4.8510  -17.8220 C   0  0  0  0  0  0  0  0  0  0  0  0
   -7.7950    4.4580  -18.4370 C   0  0  0  0  0  0  0  0  0  0  0  0
   -8.9150    4.2610  -17.6570 C   0  0  0  0  0  0  0  0  0  0  0  0
  -10.3980    3.7730  -18.4250 Cl  0  0  0  0  0  0  0  0  0  0  0  0
   -8.8950    4.4400  -16.2880 C   0  0  0  0  0  0  0  0  0  0  0  0
   -6.5820    5.0740  -16.4520 C   0  0  0  0  0  0  0  0  0  0  0  0
   -7.7160    4.8550  -15.6790 C   0  0  0  0  0  0  0  0  0  0  0  0
   -7.5960    5.0560  -14.2040 C   0  0  0  0  0  0  0  0  0  0  0  0
   -6.7950    5.8660  -13.7420 O   0  0  0  0  0  0  0  0  0  0  0  0
   -8.3860    4.2720  -13.4340 N   0  0  0  0  0  0  0  0  0  0  0  0
   -8.4240    4.2390  -12.0200 C   0  0  0  0  0  0  0  0  0  0  0  0
   -8.3030    5.4040  -11.2710 C   0  0  0  0  0  0  0  0  0  0  0  0
   -8.3040    5.3470   -9.8910 C   0  0  0  0  0  0  0  0  0  0  0  0
   -8.5570    3.0260  -11.3600 C   0  0  0  0  0  0  0  0  0  0  0  0
   -8.5560    2.9830   -9.9780 C   0  0  0  0  0  0  0  0  0  0  0  0
   -8.4310    4.1400   -9.2220 C   0  0  0  0  0  0  0  0  0  0  0  0
   -8.4260    4.0920   -7.7120 C   0  0  0  0  0  0  0  0  0  0  0  0
   -8.7150    2.6900   -7.1330 C   0  0  0  0  0  0  0  0  0  0  0  0
   -8.3300    2.6180   -5.7240 N   0  0  0  0  0  0  0  0  0  0  0  0
 30 29  1  0
 29 28  1  0
 28 27  1  0
 27 24  1  0
 24 23  2  0
 23 22  1  0
 22 21  1  0
 21 19  1  0
 20 19  2  0
 19 18  1  0
 18 16  2  0
 16 14  1  0
 15 14  1  0
 14 13  2  0
 13 12  1  0
 12 11  1  0
 11  2  1  0
  2  1  2  0
  3  2  1  0
  4  3  1  0
  5  4  1  0
  5 10  2  0
 10  9  1  0
  9  8  2  0
  8  7  1  0
  7  6  2  0
  6  5  1  0
 17 12  2  0
 18 17  1  0
 25 22  2  0
 26 25  1  0
 27 26  2  0
M  END
$$$$
