A71EV2A-x3229_A_201_1_A71EV2A-x0911+A+147+1__LIG
     RDKit          3D

 20 21  0  0  0  0  0  0  0  0999 V2000
   10.4180   16.6980   19.2460 O   0  0  0  0  0  0  0  0  0  0  0  0
   10.7610   15.5410   19.4970 C   0  0  0  0  0  0  0  0  0  0  0  0
   11.1000   14.6730   18.5540 N   0  0  0  0  0  0  0  0  0  0  0  0
   10.8020   15.0250   20.9270 C   0  0  1  0  0  0  0  0  0  0  0  0
   11.8660   15.7590   21.7580 C   0  0  0  0  0  0  0  0  0  0  0  0
   11.9740   15.1970   23.1790 C   0  0  0  0  0  0  0  0  0  0  0  0
   10.6200   15.1860   23.8660 C   0  0  0  0  0  0  0  0  0  0  0  0
    9.4710   15.1270   21.6750 C   0  0  0  0  0  0  0  0  0  0  0  0
    9.5910   14.5550   23.0210 N   0  0  0  0  0  0  0  0  0  0  0  0
    8.7360   13.5940   23.4370 C   0  0  0  0  0  0  0  0  0  0  0  0
    7.8150   13.2020   22.7370 O   0  0  0  0  0  0  0  0  0  0  0  0
    8.9600   13.0580   24.8410 C   0  0  0  0  0  0  0  0  0  0  0  0
    8.0040   11.9500   25.2260 C   0  0  0  0  0  0  0  0  0  0  0  0
    8.1590   10.6560   24.7260 C   0  0  0  0  0  0  0  0  0  0  0  0
    9.2550   10.4740   23.9250 O   0  0  0  0  0  0  0  0  0  0  0  0
    9.4400    9.2000   23.3060 C   0  0  0  0  0  0  0  0  0  0  0  0
    6.9810   12.1340   26.1330 C   0  0  0  0  0  0  0  0  0  0  0  0
    6.1360   11.1860   26.5410 N   0  0  0  0  0  0  0  0  0  0  0  0
    6.3000    9.9680   26.0260 C   0  0  0  0  0  0  0  0  0  0  0  0
    7.2940    9.6470   25.1200 C   0  0  0  0  0  0  0  0  0  0  0  0
 16 15  1  0
 15 14  1  0
 14 20  2  0
 20 19  1  0
 19 18  2  0
 18 17  1  0
 17 13  2  0
 14 13  1  0
 13 12  1  0
 12 10  1  0
 11 10  2  0
 10  9  1  0
  9  7  1  0
  7  6  1  0
  6  5  1  0
  5  4  1  0
  4  2  1  6
  3  2  1  0
  2  1  2  0
  8  4  1  0
  9  8  1  0
M  END
$$$$
