A71EV2A-x4829_A_201_1_A71EV2A-x0911+A+147+1__LIG
     RDKit          3D

 21 22  0  0  0  0  0  0  0  0999 V2000
   10.3370   16.6750   19.2380 O   0  0  0  0  0  0  0  0  0  0  0  0
   10.7130   15.5210   19.4700 C   0  0  0  0  0  0  0  0  0  0  0  0
   11.0500   14.6610   18.5080 N   0  0  0  0  0  0  0  0  0  0  0  0
   10.6920   14.9670   20.8830 C   0  0  1  0  0  0  0  0  0  0  0  0
   11.7760   15.5970   21.7770 C   0  0  0  0  0  0  0  0  0  0  0  0
   11.7120   14.9730   23.1790 C   0  0  0  0  0  0  0  0  0  0  0  0
   10.3150   15.0570   23.7750 C   0  0  0  0  0  0  0  0  0  0  0  0
    9.2980   15.1350   21.5000 C   0  0  0  0  0  0  0  0  0  0  0  0
    9.2970   14.5360   22.8400 N   0  0  0  0  0  0  0  0  0  0  0  0
    8.3810   13.5980   23.1420 C   0  0  0  0  0  0  0  0  0  0  0  0
    7.4880   13.2680   22.4110 O   0  0  0  0  0  0  0  0  0  0  0  0
    8.5550   13.1480   24.4130 O   0  0  0  0  0  0  0  0  0  0  0  0
    7.6610   12.1680   24.8440 C   0  0  0  0  0  0  0  0  0  0  0  0
    7.8700   10.8290   24.4750 C   0  0  0  0  0  0  0  0  0  0  0  0
    8.9170   10.6130   23.6190 O   0  0  0  0  0  0  0  0  0  0  0  0
    9.1840    9.2560   23.2120 C   0  0  0  0  0  0  0  0  0  0  0  0
    6.6450   12.5030   25.7100 C   0  0  0  0  0  0  0  0  0  0  0  0
    5.8500   11.4990   26.2140 C   0  0  0  0  0  0  0  0  0  0  0  0
    4.5930   11.9140   27.3390 Cl  0  0  0  0  0  0  0  0  0  0  0  0
    6.0320   10.1840   25.8650 C   0  0  0  0  0  0  0  0  0  0  0  0
    7.0460    9.8420   24.9850 C   0  0  0  0  0  0  0  0  0  0  0  0
 16 15  1  0
 15 14  1  0
 14 21  2  0
 21 20  1  0
 20 18  2  0
 19 18  1  0
 18 17  1  0
 17 13  2  0
 14 13  1  0
 13 12  1  0
 12 10  1  0
 11 10  2  0
 10  9  1  0
  9  7  1  0
  7  6  1  0
  6  5  1  0
  5  4  1  0
  4  2  1  6
  3  2  1  0
  2  1  2  0
  8  4  1  0
  9  8  1  0
M  END
$$$$
