XX01ZVNS2B-x2992_B_301_1_XX01ZVNS2B-x4590+B+203+1__LIG
     RDKit          3D

 29 31  0  0  0  0  0  0  0  0999 V2000
   -3.8120    5.2690  -17.6420 O   0  0  0  0  0  0  0  0  0  0  0  0
   -4.3500    5.1390  -18.7230 C   0  0  0  0  0  0  0  0  0  0  0  0
   -3.7070    5.2170  -19.9080 O   0  0  0  0  0  0  0  0  0  0  0  0
   -2.2860    5.5260  -19.8460 C   0  0  0  0  0  0  0  0  0  0  0  0
   -2.1210    6.9910  -20.1320 C   0  0  0  0  0  0  0  0  0  0  0  0
   -2.1780    7.9250  -19.1070 C   0  0  0  0  0  0  0  0  0  0  0  0
   -2.0920    9.2800  -19.3800 C   0  0  0  0  0  0  0  0  0  0  0  0
   -1.9360    9.7170  -20.6760 C   0  0  0  0  0  0  0  0  0  0  0  0
   -1.8680    8.8020  -21.7020 C   0  0  0  0  0  0  0  0  0  0  0  0
   -1.9600    7.4460  -21.4330 C   0  0  0  0  0  0  0  0  0  0  0  0
   -5.6740    4.9390  -18.9530 N   0  0  0  0  0  0  0  0  0  0  0  0
   -6.6990    4.7700  -17.9910 C   0  0  0  0  0  0  0  0  0  0  0  0
   -7.9450    4.4300  -18.5040 C   0  0  0  0  0  0  0  0  0  0  0  0
   -8.9910    4.2250  -17.6300 C   0  0  0  0  0  0  0  0  0  0  0  0
  -10.5830    3.9570  -18.2810 Cl  0  0  0  0  0  0  0  0  0  0  0  0
   -8.8290    4.3090  -16.2600 C   0  0  0  0  0  0  0  0  0  0  0  0
   -6.5240    4.8960  -16.6160 C   0  0  0  0  0  0  0  0  0  0  0  0
   -7.5870    4.6660  -15.7450 C   0  0  0  0  0  0  0  0  0  0  0  0
   -7.3390    4.8870  -14.2850 C   0  0  0  0  0  0  0  0  0  0  0  0
   -6.3350    5.4820  -13.9040 O   0  0  0  0  0  0  0  0  0  0  0  0
   -8.2910    4.4220  -13.4340 N   0  0  0  0  0  0  0  0  0  0  0  0
   -8.3430    4.5970  -12.0220 C   0  0  0  0  0  0  0  0  0  0  0  0
   -8.0810    5.8500  -11.4830 C   0  0  0  0  0  0  0  0  0  0  0  0
   -8.1520    6.0370  -10.1150 C   0  0  0  0  0  0  0  0  0  0  0  0
   -8.5040    4.9890   -9.2820 C   0  0  0  0  0  0  0  0  0  0  0  0
   -8.6930    3.5450  -11.1760 C   0  0  0  0  0  0  0  0  0  0  0  0
   -8.8010    3.7380   -9.8010 C   0  0  0  0  0  0  0  0  0  0  0  0
   -9.3570    2.6490   -8.9000 C   0  0  0  0  0  0  0  0  0  0  0  0
   -8.3160    1.7870   -8.3570 N   0  0  0  0  0  0  0  0  0  0  0  0
 29 28  1  0
 28 27  1  0
 27 25  2  0
 25 24  1  0
 24 23  2  0
 23 22  1  0
 22 21  1  0
 21 19  1  0
 20 19  2  0
 19 18  1  0
 18 16  2  0
 16 14  1  0
 15 14  1  0
 14 13  2  0
 13 12  1  0
 12 11  1  0
 11  2  1  0
  2  1  2  0
  3  2  1  0
  4  3  1  0
  5  4  1  0
  5 10  2  0
 10  9  1  0
  9  8  2  0
  8  7  1  0
  7  6  2  0
  6  5  1  0
 17 12  2  0
 18 17  1  0
 26 22  2  0
 27 26  1  0
M  END
$$$$
