A71EV2A-x4977_C_201_1_A71EV2A-x0911+A+147+1__LIG
     RDKit          3D

 24 26  0  0  0  0  0  0  0  0999 V2000
   10.3550   16.6530   19.2350 O   0  0  0  0  0  0  0  0  0  0  0  0
   10.7500   15.5030   19.4570 C   0  0  0  0  0  0  0  0  0  0  0  0
   11.0510   14.6510   18.4870 N   0  0  0  0  0  0  0  0  0  0  0  0
   10.8130   14.9580   20.8760 C   0  0  1  0  0  0  0  0  0  0  0  0
   11.9590   15.6070   21.6760 C   0  0  0  0  0  0  0  0  0  0  0  0
   11.9730   15.0940   23.1270 C   0  0  0  0  0  0  0  0  0  0  0  0
   10.6220   15.3260   23.7970 C   0  0  0  0  0  0  0  0  0  0  0  0
    9.4930   15.2440   21.6000 C   0  0  0  0  0  0  0  0  0  0  0  0
    9.5380   14.7550   22.9820 N   0  0  0  0  0  0  0  0  0  0  0  0
    8.6840   13.7540   23.3680 C   0  0  0  0  0  0  0  0  0  0  0  0
    7.8390   13.2960   22.6100 O   0  0  0  0  0  0  0  0  0  0  0  0
    8.7960   13.3260   24.6540 N   0  0  0  0  0  0  0  0  0  0  0  0
    7.9950   12.2390   25.1240 C   0  0  0  0  0  0  0  0  0  0  0  0
    8.3080   10.9120   24.7570 C   0  0  0  0  0  0  0  0  0  0  0  0
    9.6940   10.6530   23.6790 S   0  0  0  0  0  0  0  0  0  0  0  0
    9.7180    8.8750   23.4540 C   0  0  0  0  0  0  0  0  0  0  0  0
    6.8750   12.5050   25.9730 C   0  0  0  0  0  0  0  0  0  0  0  0
    6.1110   11.4140   26.4520 C   0  0  0  0  0  0  0  0  0  0  0  0
    6.4670   10.0950   26.0690 C   0  0  0  0  0  0  0  0  0  0  0  0
    7.5260    9.8530   25.2290 C   0  0  0  0  0  0  0  0  0  0  0  0
    6.4410   13.8080   26.3270 C   0  0  0  0  0  0  0  0  0  0  0  0
    5.3250   13.9690   27.1030 C   0  0  0  0  0  0  0  0  0  0  0  0
    4.6440   12.8340   27.5390 C   0  0  0  0  0  0  0  0  0  0  0  0
    5.0010   11.5900   27.2480 N   0  0  0  0  0  0  0  0  0  0  0  0
 16 15  1  0
 15 14  1  0
 14 20  2  0
 20 19  1  0
 19 18  2  0
 18 24  1  0
 24 23  2  0
 23 22  1  0
 22 21  2  0
 21 17  1  0
 18 17  1  0
 17 13  2  0
 14 13  1  0
 13 12  1  0
 12 10  1  0
 11 10  2  0
 10  9  1  0
  9  7  1  0
  7  6  1  0
  6  5  1  0
  5  4  1  0
  4  2  1  6
  3  2  1  0
  2  1  2  0
  8  4  1  0
  9  8  1  0
M  END
$$$$
