XX01ZVNS2B-x1729_B_301_1_XX01ZVNS2B-x4590+B+203+1__LIG
     RDKit          3D

 19 21  0  0  0  0  0  0  0  0999 V2000
   -6.3530    2.3120  -14.1380 O   0  0  0  0  0  0  0  0  0  0  0  0
   -7.1900    3.0160  -13.5950 C   0  0  0  0  0  0  0  0  0  0  0  0
   -7.8390    4.0100  -14.2510 N   0  0  0  0  0  0  0  0  0  0  0  0
   -8.0550    4.0480  -15.6390 C   0  0  0  0  0  0  0  0  0  0  0  0
   -9.2460    3.6900  -16.2260 C   0  0  0  0  0  0  0  0  0  0  0  0
   -9.4010    3.7340  -17.6190 C   0  0  0  0  0  0  0  0  0  0  0  0
   -8.3720    4.1220  -18.4270 C   0  0  0  0  0  0  0  0  0  0  0  0
   -7.1310    4.4950  -17.8710 C   0  0  0  0  0  0  0  0  0  0  0  0
   -6.0410    4.8980  -18.6710 C   0  0  0  0  0  0  0  0  0  0  0  0
   -4.8650    5.2310  -18.0720 C   0  0  0  0  0  0  0  0  0  0  0  0
   -4.7780    5.1650  -16.6670 C   0  0  0  0  0  0  0  0  0  0  0  0
   -5.7720    4.7950  -15.8780 N   0  0  0  0  0  0  0  0  0  0  0  0
   -6.9590    4.4550  -16.4680 C   0  0  0  0  0  0  0  0  0  0  0  0
   -7.5600    2.7680  -12.1390 C   0  0  0  0  0  0  0  0  0  0  0  0
   -6.3130    2.3100  -11.3720 C   0  0  0  0  0  0  0  0  0  0  0  0
   -6.5060    2.3930   -9.8710 C   0  0  0  0  0  0  0  0  0  0  0  0
   -7.9320    2.4020   -9.5290 N   0  0  0  0  0  0  0  0  0  0  0  0
   -8.6030    3.6210  -10.0080 C   0  0  0  0  0  0  0  0  0  0  0  0
   -8.1860    3.9680  -11.4250 C   0  0  0  0  0  0  0  0  0  0  0  0
  1  2  2  0
  2  3  1  0
  3  4  1  0
  4  5  2  0
  5  6  1  0
  6  7  2  0
  7  8  1  0
  8  9  2  0
  9 10  1  0
 10 11  2  0
 11 12  1  0
 12 13  2  0
  2 14  1  0
 14 15  1  0
 15 16  1  0
 16 17  1  0
 17 18  1  0
 18 19  1  0
  4 13  1  0
 14 19  1  0
  8 13  1  0
M  END
$$$$
