XX01ZVNS2B-x4816_B_203_6_XX01ZVNS2B-x4590+B+203+1__LIG
     RDKit          3D

 30 34  0  0  0  0  0  0  0  0999 V2000
  -10.4570    3.9480  -18.2370 Cl  0  0  0  0  0  0  0  0  0  0  0  0
   -8.9580    4.4420  -17.5020 C   0  0  0  0  0  0  0  0  0  0  0  0
   -8.9010    4.5860  -16.1240 C   0  0  0  0  0  0  0  0  0  0  0  0
   -7.8700    4.6860  -18.3150 C   0  0  0  0  0  0  0  0  0  0  0  0
   -6.6960    5.0900  -17.6950 C   0  0  0  0  0  0  0  0  0  0  0  0
   -5.4710    5.3860  -18.2170 N   0  0  0  0  0  0  0  0  0  0  0  0
   -5.0470    5.3280  -19.6180 C   0  0  0  0  0  0  0  0  0  0  0  0
   -3.5370    5.1970  -19.9040 C   0  0  0  0  0  0  0  0  0  0  0  0
   -3.7500    6.1400  -21.0260 N   0  0  0  0  0  0  0  0  0  0  0  0
   -4.9860    6.6580  -20.3940 C   0  0  0  0  0  0  0  0  0  0  0  0
   -4.5820    5.7360  -17.2360 N   0  0  0  0  0  0  0  0  0  0  0  0
   -5.2400    5.6550  -16.0980 C   0  0  0  0  0  0  0  0  0  0  0  0
   -6.5860    5.2560  -16.3050 C   0  0  0  0  0  0  0  0  0  0  0  0
   -7.7180    5.0060  -15.5120 C   0  0  0  0  0  0  0  0  0  0  0  0
   -7.6810    5.2480  -14.0310 C   0  0  0  0  0  0  0  0  0  0  0  0
   -6.9290    6.0970  -13.5590 O   0  0  0  0  0  0  0  0  0  0  0  0
   -8.4850    4.4590  -13.2720 N   0  0  0  0  0  0  0  0  0  0  0  0
   -8.5850    4.4450  -11.8520 C   0  0  0  0  0  0  0  0  0  0  0  0
   -8.8490    3.2390  -11.2120 C   0  0  0  0  0  0  0  0  0  0  0  0
   -8.9160    3.1920   -9.8300 C   0  0  0  0  0  0  0  0  0  0  0  0
   -8.7140    4.3390   -9.0820 C   0  0  0  0  0  0  0  0  0  0  0  0
   -8.3950    5.5990  -11.0940 C   0  0  0  0  0  0  0  0  0  0  0  0
   -8.4450    5.5510   -9.7050 C   0  0  0  0  0  0  0  0  0  0  0  0
   -8.1600    6.7880   -8.8730 C   0  0  0  0  0  0  0  0  0  0  0  0
   -9.2530    7.8590   -8.9790 C   0  0  0  0  0  0  0  0  0  0  0  0
   -8.9310    9.0650   -8.0850 C   0  0  0  0  0  0  0  0  0  0  0  0
   -6.8000    7.4260   -9.1790 C   0  0  0  0  0  0  0  0  0  0  0  0
   -6.5490    8.6490   -8.2810 C   0  0  0  0  0  0  0  0  0  0  0  0
   -7.6230    9.6530   -8.4270 N   0  0  0  0  0  0  0  0  0  0  0  0
   -7.6320   10.2510   -9.7860 C   0  0  0  0  0  0  0  0  0  0  0  0
 30 29  1  0
 29 26  1  0
 26 25  1  0
 25 24  1  0
 24 23  1  0
 23 21  2  0
 21 20  1  0
 20 19  2  0
 19 18  1  0
 18 17  1  0
 17 15  1  0
 16 15  2  0
 15 14  1  0
 14  3  1  0
  3  2  2  0
  2  1  1  0
  4  2  1  0
  5  4  2  0
  5 13  1  0
 14 13  2  0
 13 12  1  0
 12 11  2  0
 11  6  1  0
  6  5  1  0
  7  6  1  0
  7 10  1  0
 10  9  1  0
  9  8  1  0
  8  7  1  0
 22 18  2  0
 23 22  1  0
 27 24  1  0
 28 27  1  0
 29 28  1  0
M  END
$$$$
