A71EV2A-x5104_A_201_3_A71EV2A-x0911+A+147+1__LIG
     RDKit          3D

 21 22  0  0  0  0  0  0  0  0999 V2000
   10.1870   16.4300   18.8220 O   0  0  0  0  0  0  0  0  0  0  0  0
   10.6050   15.3300   19.1970 C   0  0  0  0  0  0  0  0  0  0  0  0
   11.2230   14.4780   18.3960 N   0  0  0  0  0  0  0  0  0  0  0  0
   10.4700   14.8930   20.6460 C   0  0  1  0  0  0  0  0  0  0  0  0
   11.5460   15.5130   21.5530 C   0  0  0  0  0  0  0  0  0  0  0  0
   11.4560   14.8920   22.9460 C   0  0  1  0  0  0  0  0  0  0  0  0
   12.5100   15.4630   23.8740 C   0  0  0  0  0  0  0  0  0  0  0  0
   10.0800   15.1650   23.5140 C   0  0  0  0  0  0  0  0  0  0  0  0
    9.0800   15.1040   21.2550 C   0  0  0  0  0  0  0  0  0  0  0  0
    9.0620   14.5940   22.6300 N   0  0  0  0  0  0  0  0  0  0  0  0
    8.1790   13.6800   23.0760 C   0  0  0  0  0  0  0  0  0  0  0  0
    7.2880   13.2640   22.3700 O   0  0  0  0  0  0  0  0  0  0  0  0
    8.2950   13.2770   24.5390 C   0  0  0  0  0  0  0  0  0  0  0  0
    7.4450   12.0960   24.9400 C   0  0  0  0  0  0  0  0  0  0  0  0
    7.8130   10.7720   24.6700 C   0  0  0  0  0  0  0  0  0  0  0  0
    9.1510   10.5090   23.5420 S   0  0  0  0  0  0  0  0  0  0  0  0
    9.3230    8.7300   23.4720 C   0  0  0  0  0  0  0  0  0  0  0  0
    6.3350   12.3210   25.7500 C   0  0  0  0  0  0  0  0  0  0  0  0
    5.6280   11.2710   26.3080 C   0  0  0  0  0  0  0  0  0  0  0  0
    6.0110    9.9760   26.0560 C   0  0  0  0  0  0  0  0  0  0  0  0
    7.0980    9.7170   25.2350 C   0  0  0  0  0  0  0  0  0  0  0  0
 17 16  1  0
 16 15  1  0
 15 21  2  0
 21 20  1  0
 20 19  2  0
 19 18  1  0
 18 14  2  0
 15 14  1  0
 14 13  1  0
 13 11  1  0
 12 11  2  0
 11 10  1  0
 10  8  1  0
  8  6  1  0
  6  7  1  1
  6  5  1  0
  5  4  1  0
  4  2  1  6
  3  2  1  0
  2  1  2  0
  9  4  1  0
 10  9  1  0
M  END
$$$$
