XX01ZVNS2B-x3774_B_203_5_XX01ZVNS2B-x4590+B+203+1__LIG
     RDKit          3D

 28 31  0  0  0  0  0  0  0  0999 V2000
   -9.8940    4.0280  -17.9310 Cl  0  0  0  0  0  0  0  0  0  0  0  0
   -8.5490    4.5770  -16.9580 C   0  0  0  0  0  0  0  0  0  0  0  0
   -8.5480    4.3340  -15.5920 C   0  0  0  0  0  0  0  0  0  0  0  0
   -7.5060    5.2330  -17.5780 C   0  0  0  0  0  0  0  0  0  0  0  0
   -6.4270    5.6760  -16.8230 C   0  0  0  0  0  0  0  0  0  0  0  0
   -5.2200    6.2910  -17.4970 C   0  0  0  0  0  0  0  0  0  0  0  0
   -4.1690    5.4310  -18.1460 C   0  0  0  0  0  0  0  0  0  0  0  0
   -5.0660    6.2540  -18.9930 C   0  0  0  0  0  0  0  0  0  0  0  0
   -6.4430    5.4560  -15.4510 C   0  0  0  0  0  0  0  0  0  0  0  0
   -7.4730    4.7710  -14.8200 C   0  0  0  0  0  0  0  0  0  0  0  0
   -7.3550    4.4470  -13.3350 C   0  0  2  0  0  0  0  0  0  0  0  0
   -6.7470    3.0670  -13.1050 C   0  0  0  0  0  0  0  0  0  0  0  0
   -5.6980    3.0620  -12.2880 N   0  0  0  0  0  0  0  0  0  0  0  0
   -4.5160    2.2590  -12.5440 C   0  0  0  0  0  0  0  0  0  0  0  0
   -3.7050    2.9700  -13.6650 C   0  0  0  0  0  0  0  0  0  0  0  0
   -2.4950    2.3610  -13.7490 F   0  0  0  0  0  0  0  0  0  0  0  0
   -4.3310    2.7040  -14.8400 F   0  0  0  0  0  0  0  0  0  0  0  0
   -7.2240    2.0470  -13.5940 O   0  0  0  0  0  0  0  0  0  0  0  0
   -8.5110    4.6340  -12.4840 N   0  0  0  0  0  0  0  0  0  0  0  0
   -8.4360    4.4950  -11.0970 C   0  0  0  0  0  0  0  0  0  0  0  0
   -8.7260    3.2810  -10.4810 C   0  0  0  0  0  0  0  0  0  0  0  0
   -8.7110    3.1890   -9.0940 C   0  0  0  0  0  0  0  0  0  0  0  0
   -8.9520    2.0040   -8.2080 C   0  0  0  0  0  0  0  0  0  0  0  0
   -8.7020    2.5250   -6.8690 N   0  0  0  0  0  0  0  0  0  0  0  0
   -8.5150    3.9680   -6.9080 C   0  0  0  0  0  0  0  0  0  0  0  0
   -8.4150    4.3450   -8.3510 C   0  0  0  0  0  0  0  0  0  0  0  0
   -8.1250    5.5190   -8.9370 N   0  0  0  0  0  0  0  0  0  0  0  0
   -8.1320    5.5750  -10.2750 C   0  0  0  0  0  0  0  0  0  0  0  0
 18 12  2  0
 13 12  1  0
 14 13  1  0
 15 14  1  0
 17 15  1  0
 16 15  1  0
 12 11  1  0
 11 19  1  6
 20 19  1  0
 20 28  2  0
 28 27  1  0
 27 26  2  0
 26 22  1  0
 22 21  2  0
 21 20  1  0
 23 22  1  0
 24 23  1  0
 25 24  1  0
 26 25  1  0
 11 10  1  0
 10  3  1  0
  3  2  2  0
  2  1  1  0
  4  2  1  0
  5  4  2  0
  6  5  1  0
  6  8  1  0
  8  7  1  0
  7  6  1  0
  9  5  1  0
 10  9  2  0
M  END
$$$$
