A71EV2A-x4874_A_201_1_A71EV2A-x0911+A+147+1__LIG
     RDKit          3D

 18 19  0  0  0  0  0  0  0  0999 V2000
   10.1390   16.6150   19.2090 O   0  0  0  0  0  0  0  0  0  0  0  0
   10.4600   15.4570   19.5000 C   0  0  0  0  0  0  0  0  0  0  0  0
   10.7580   14.5340   18.5900 N   0  0  0  0  0  0  0  0  0  0  0  0
   10.3870   14.9630   20.9320 C   0  0  1  0  0  0  0  0  0  0  0  0
   11.4410   15.6180   21.8410 C   0  0  0  0  0  0  0  0  0  0  0  0
   11.3090   15.0740   23.2610 C   0  0  0  0  0  0  0  0  0  0  0  0
    9.8850   15.2650   23.7680 C   0  0  0  0  0  0  0  0  0  0  0  0
    8.9690   15.1720   21.4790 C   0  0  0  0  0  0  0  0  0  0  0  0
    8.9070   14.6510   22.8480 N   0  0  0  0  0  0  0  0  0  0  0  0
    8.0180   13.6870   23.1740 C   0  0  0  0  0  0  0  0  0  0  0  0
    7.2240   13.2500   22.3560 O   0  0  0  0  0  0  0  0  0  0  0  0
    8.0540   13.1390   24.5870 C   0  0  1  0  0  0  0  0  0  0  0  0
    6.6940   13.3440   25.2610 C   0  0  0  0  0  0  0  0  0  0  0  0
    8.3780   11.6840   24.3730 C   0  0  0  0  0  0  0  0  0  0  0  0
    7.6560   10.6730   24.8820 N   0  0  0  0  0  0  0  0  0  0  0  0
    8.1870    9.4670   24.5340 N   0  0  0  0  0  0  0  0  0  0  0  0
    9.2620    9.7470   23.8090 C   0  0  0  0  0  0  0  0  0  0  0  0
    9.4310   11.1260   23.6880 C   0  0  0  0  0  0  0  0  0  0  0  0
 12 13  1  6
 12 10  1  0
 11 10  2  0
 10  9  1  0
  9  7  1  0
  7  6  1  0
  6  5  1  0
  5  4  1  0
  4  2  1  6
  3  2  1  0
  2  1  2  0
  8  4  1  0
  9  8  1  0
 14 12  1  0
 14 18  2  0
 18 17  1  0
 17 16  2  0
 16 15  1  0
 15 14  1  0
M  END
$$$$
