XX01ZVNS2B-x3477_B_203_1_XX01ZVNS2B-x4590+B+203+1__LIG
     RDKit          3D

 24 27  0  0  0  0  0  0  0  0999 V2000
   -5.8390    6.7550  -18.7130 C   0  0  0  0  0  0  0  0  0  0  0  0
   -5.9120    5.2370  -18.4610 C   0  0  0  0  0  0  0  0  0  0  0  0
   -4.5190    4.6340  -18.2080 C   0  0  0  0  0  0  0  0  0  0  0  0
   -6.5560    4.5590  -19.6820 C   0  0  0  0  0  0  0  0  0  0  0  0
   -6.0580    4.4710  -20.7880 O   0  0  0  0  0  0  0  0  0  0  0  0
   -7.7930    4.1540  -19.3240 N   0  0  0  0  0  0  0  0  0  0  0  0
   -7.9960    4.2820  -17.9370 C   0  0  0  0  0  0  0  0  0  0  0  0
   -9.0750    3.8700  -17.1830 C   0  0  0  0  0  0  0  0  0  0  0  0
   -9.0040    4.0520  -15.8170 C   0  0  0  0  0  0  0  0  0  0  0  0
   -7.9230    4.6910  -15.2230 C   0  0  0  0  0  0  0  0  0  0  0  0
   -7.8150    4.9250  -13.7490 C   0  0  0  0  0  0  0  0  0  0  0  0
   -6.9390    5.6630  -13.3110 O   0  0  0  0  0  0  0  0  0  0  0  0
   -8.6450    4.2020  -12.9590 N   0  0  0  0  0  0  0  0  0  0  0  0
   -8.6830    4.1700  -11.5380 C   0  0  0  0  0  0  0  0  0  0  0  0
   -8.3900    5.3220  -10.8140 C   0  0  0  0  0  0  0  0  0  0  0  0
   -8.4430    5.3130   -9.4310 C   0  0  0  0  0  0  0  0  0  0  0  0
   -8.7030    4.1170   -8.7760 C   0  0  0  0  0  0  0  0  0  0  0  0
   -8.9880    2.9620   -9.4920 C   0  0  0  0  0  0  0  0  0  0  0  0
   -8.9380    2.9590  -10.8780 C   0  0  0  0  0  0  0  0  0  0  0  0
   -9.2740    1.8370   -8.5360 C   0  0  0  0  0  0  0  0  0  0  0  0
   -8.7270    2.3670   -7.2780 N   0  0  0  0  0  0  0  0  0  0  0  0
   -8.8040    3.8360   -7.3040 C   0  0  0  0  0  0  0  0  0  0  0  0
   -6.8420    5.0980  -16.0100 C   0  0  0  0  0  0  0  0  0  0  0  0
   -6.8850    4.8870  -17.3740 C   0  0  0  0  0  0  0  0  0  0  0  0
  1  2  1  0
  2  3  1  0
  2  4  1  0
  4  5  2  0
  4  6  1  0
  6  7  1  0
  7  8  2  0
  8  9  1  0
  9 10  2  0
 10 11  1  0
 11 12  2  0
 11 13  1  0
 13 14  1  0
 14 15  2  0
 15 16  1  0
 16 17  2  0
 17 18  1  0
 18 19  2  0
 18 20  1  0
 20 21  1  0
 21 22  1  0
 10 23  1  0
 23 24  2  0
  2 24  1  0
  7 24  1  0
 14 19  1  0
 17 22  1  0
M  END
$$$$
