XX01ZVNS2B-x4179_B_203_6_XX01ZVNS2B-x4590+B+203+1__LIG
     RDKit          3D

 17 19  0  0  0  0  0  0  0  0999 V2000
  -10.5930    3.9220  -18.3260 Cl  0  0  0  0  0  0  0  0  0  0  0  0
   -9.0910    4.3060  -17.5340 C   0  0  0  0  0  0  0  0  0  0  0  0
   -9.0620    4.3870  -16.1530 C   0  0  0  0  0  0  0  0  0  0  0  0
   -7.9900    4.6040  -18.3050 C   0  0  0  0  0  0  0  0  0  0  0  0
   -6.8350    5.0250  -17.6650 C   0  0  0  0  0  0  0  0  0  0  0  0
   -5.6000    5.3380  -18.1510 N   0  0  0  0  0  0  0  0  0  0  0  0
   -5.1640    5.3490  -19.5520 C   0  0  0  0  0  0  0  0  0  0  0  0
   -4.9880    6.7330  -20.2020 C   0  0  0  0  0  0  0  0  0  0  0  0
   -3.7490    6.2150  -20.8350 N   0  0  0  0  0  0  0  0  0  0  0  0
   -3.6650    5.1190  -19.8360 C   0  0  0  0  0  0  0  0  0  0  0  0
   -4.7380    5.6760  -17.1440 N   0  0  0  0  0  0  0  0  0  0  0  0
   -5.4260    5.5850  -16.0240 C   0  0  0  0  0  0  0  0  0  0  0  0
   -6.7610    5.1700  -16.2670 C   0  0  0  0  0  0  0  0  0  0  0  0
   -7.9050    4.8400  -15.5140 C   0  0  0  0  0  0  0  0  0  0  0  0
   -7.8810    4.9930  -14.0240 C   0  0  0  0  0  0  0  0  0  0  0  0
   -7.1020    5.8090  -13.4950 O   0  0  0  0  0  0  0  0  0  0  0  0
   -8.7210    4.2500  -13.3120 N   0  0  0  0  0  0  0  0  0  0  0  0
 17 15  1  0
 16 15  2  0
 15 14  1  0
 14  3  1  0
  3  2  2  0
  2  1  1  0
  4  2  1  0
  5  4  2  0
  5 13  1  0
 14 13  2  0
 13 12  1  0
 12 11  2  0
 11  6  1  0
  6  5  1  0
  7  6  1  0
  7 10  1  0
 10  9  1  0
  9  8  1  0
  8  7  1  0
M  END
$$$$
