A71EV2A-x4388_A_201_1_A71EV2A-x0911+A+147+1__LIG
     RDKit          3D

 21 22  0  0  0  0  0  0  0  0999 V2000
   10.3410   16.6040   19.2330 O   0  0  0  0  0  0  0  0  0  0  0  0
   10.7390   15.4550   19.4500 C   0  0  0  0  0  0  0  0  0  0  0  0
   11.0500   14.6160   18.4880 N   0  0  0  0  0  0  0  0  0  0  0  0
   10.8080   14.8980   20.8620 C   0  0  1  0  0  0  0  0  0  0  0  0
   11.9790   15.4930   21.6640 C   0  0  0  0  0  0  0  0  0  0  0  0
   12.0330   14.9290   23.0930 C   0  0  0  0  0  0  0  0  0  0  0  0
   10.6860   15.0900   23.7790 C   0  0  0  0  0  0  0  0  0  0  0  0
    9.4910   15.0720   21.6220 C   0  0  0  0  0  0  0  0  0  0  0  0
    9.6190   14.4880   22.9620 N   0  0  0  0  0  0  0  0  0  0  0  0
    8.8430   13.4610   23.3630 C   0  0  0  0  0  0  0  0  0  0  0  0
    7.9260   13.0320   22.6800 O   0  0  0  0  0  0  0  0  0  0  0  0
    9.1620   12.8720   24.7240 C   0  0  0  0  0  0  0  0  0  0  0  0
    8.2110   11.7570   25.0820 C   0  0  0  0  0  0  0  0  0  0  0  0
    8.2960   10.4410   24.5840 C   0  0  0  0  0  0  0  0  0  0  0  0
    9.3150   10.2390   23.7140 O   0  0  0  0  0  0  0  0  0  0  0  0
    9.5980    8.8950   23.3030 C   0  0  0  0  0  0  0  0  0  0  0  0
    7.2020   11.9980   26.0060 C   0  0  0  0  0  0  0  0  0  0  0  0
    6.3690   10.9700   26.3740 C   0  0  0  0  0  0  0  0  0  0  0  0
    4.9760   11.3070   27.6140 Br  0  0  0  0  0  0  0  0  0  0  0  0
    6.5370    9.7180   25.8460 C   0  0  0  0  0  0  0  0  0  0  0  0
    7.4940    9.4450   24.9470 N   0  0  0  0  0  0  0  0  0  0  0  0
 16 15  1  0
 15 14  1  0
 14 21  2  0
 21 20  1  0
 20 18  2  0
 19 18  1  0
 18 17  1  0
 17 13  2  0
 14 13  1  0
 13 12  1  0
 12 10  1  0
 11 10  2  0
 10  9  1  0
  9  7  1  0
  7  6  1  0
  6  5  1  0
  5  4  1  0
  4  2  1  6
  3  2  1  0
  2  1  2  0
  8  4  1  0
  9  8  1  0
M  END
$$$$
