XX01ZVNS2B-x4125_B_203_1_XX01ZVNS2B-x4590+B+203+1__LIG
     RDKit          3D

 23 26  0  0  0  0  0  0  0  0999 V2000
   -6.9090    5.6840  -13.1240 O   0  0  0  0  0  0  0  0  0  0  0  0
   -7.6910    4.8710  -13.6090 C   0  0  0  0  0  0  0  0  0  0  0  0
   -7.7080    4.6250  -15.0860 C   0  0  0  0  0  0  0  0  0  0  0  0
   -6.5670    5.0130  -15.7830 C   0  0  0  0  0  0  0  0  0  0  0  0
   -8.7750    4.0780  -15.7880 C   0  0  0  0  0  0  0  0  0  0  0  0
   -8.7150    3.9280  -17.1640 C   0  0  0  0  0  0  0  0  0  0  0  0
   -7.5630    4.3050  -17.8570 C   0  0  0  0  0  0  0  0  0  0  0  0
   -6.4770    4.8620  -17.1660 C   0  0  0  0  0  0  0  0  0  0  0  0
   -5.2110    5.2070  -17.9140 C   0  0  0  0  0  0  0  0  0  0  0  0
   -5.4300    5.3750  -19.4080 C   0  0  0  0  0  0  0  0  0  0  0  0
   -7.4270    4.0120  -19.2200 N   0  0  0  0  0  0  0  0  0  0  0  0
   -6.4120    4.4120  -20.0100 C   0  0  0  0  0  0  0  0  0  0  0  0
   -6.2900    3.9820  -21.1560 O   0  0  0  0  0  0  0  0  0  0  0  0
   -8.5200    4.1120  -12.8500 N   0  0  0  0  0  0  0  0  0  0  0  0
   -8.5880    4.1120  -11.4210 C   0  0  0  0  0  0  0  0  0  0  0  0
   -8.7800    2.9110  -10.7420 C   0  0  0  0  0  0  0  0  0  0  0  0
   -8.8340    2.8920   -9.3480 C   0  0  0  0  0  0  0  0  0  0  0  0
   -9.1350    1.7470   -8.4250 C   0  0  0  0  0  0  0  0  0  0  0  0
   -8.8170    2.3290   -7.1170 N   0  0  0  0  0  0  0  0  0  0  0  0
   -8.7400    3.7980   -7.1510 C   0  0  0  0  0  0  0  0  0  0  0  0
   -8.6720    4.0690   -8.6260 C   0  0  0  0  0  0  0  0  0  0  0  0
   -8.4860    5.2710   -9.3050 C   0  0  0  0  0  0  0  0  0  0  0  0
   -8.4440    5.2940  -10.6930 C   0  0  0  0  0  0  0  0  0  0  0  0
 13 12  2  0
 12 10  1  0
 10  9  1  0
  9  8  1  0
  8  4  2  0
  4  3  1  0
  3  2  1  0
  2  1  2  0
 14  2  1  0
 15 14  1  0
 15 23  2  0
 23 22  1  0
 22 21  2  0
 21 17  1  0
 17 16  2  0
 16 15  1  0
 18 17  1  0
 19 18  1  0
 20 19  1  0
 21 20  1  0
  5  3  2  0
  6  5  1  0
  7  6  2  0
  8  7  1  0
 11  7  1  0
 12 11  1  0
M  END
$$$$
