XX01ZVNS2B-x5085_B_203_6_XX01ZVNS2B-x4590+B+203+1__LIG
     RDKit          3D

 33 37  0  0  0  0  0  0  0  0999 V2000
  -10.5710    3.8930  -18.0090 Cl  0  0  0  0  0  0  0  0  0  0  0  0
   -9.0680    4.3030  -17.2310 C   0  0  0  0  0  0  0  0  0  0  0  0
   -8.9680    4.1860  -15.8520 C   0  0  0  0  0  0  0  0  0  0  0  0
   -8.0040    4.6900  -18.0170 C   0  0  0  0  0  0  0  0  0  0  0  0
   -6.7940    4.9460  -17.3910 C   0  0  0  0  0  0  0  0  0  0  0  0
   -6.6580    4.8090  -16.0070 C   0  0  0  0  0  0  0  0  0  0  0  0
   -5.3340    5.0050  -15.6380 N   0  0  0  0  0  0  0  0  0  0  0  0
   -4.6900    5.2300  -16.7770 C   0  0  0  0  0  0  0  0  0  0  0  0
   -3.2470    5.4990  -16.8700 C   0  0  0  0  0  0  0  0  0  0  0  0
   -2.4740    5.5950  -15.7150 C   0  0  0  0  0  0  0  0  0  0  0  0
   -1.1240    5.8920  -15.7990 C   0  0  0  0  0  0  0  0  0  0  0  0
   -0.5280    6.0910  -17.0290 C   0  0  0  0  0  0  0  0  0  0  0  0
   -1.2850    5.9910  -18.1820 C   0  0  0  0  0  0  0  0  0  0  0  0
   -2.6350    5.6970  -18.1070 C   0  0  0  0  0  0  0  0  0  0  0  0
   -5.5180    5.2020  -17.8600 N   0  0  0  0  0  0  0  0  0  0  0  0
   -7.7510    4.4240  -15.2090 C   0  0  0  0  0  0  0  0  0  0  0  0
   -7.5870    4.2210  -13.7040 C   0  0  2  0  0  0  0  0  0  0  0  0
   -6.7510    2.9620  -13.3830 C   0  0  0  0  0  0  0  0  0  0  0  0
   -7.1120    1.8450  -13.7430 O   0  0  0  0  0  0  0  0  0  0  0  0
   -5.6480    3.1740  -12.6610 N   0  0  0  0  0  0  0  0  0  0  0  0
   -4.6080    2.1630  -12.4660 C   0  0  0  0  0  0  0  0  0  0  0  0
   -3.6350    2.1890  -13.6280 C   0  0  0  0  0  0  0  0  0  0  0  0
   -3.9180    2.3830  -11.1370 C   0  0  0  0  0  0  0  0  0  0  0  0
   -8.8020    4.1770  -12.9130 N   0  0  0  0  0  0  0  0  0  0  0  0
   -8.7370    4.1780  -11.5140 C   0  0  0  0  0  0  0  0  0  0  0  0
   -9.0250    3.0260  -10.7850 C   0  0  0  0  0  0  0  0  0  0  0  0
   -8.9290    3.0280   -9.3940 C   0  0  0  0  0  0  0  0  0  0  0  0
   -9.1730    1.9210   -8.4090 C   0  0  0  0  0  0  0  0  0  0  0  0
   -8.8660    2.5410   -7.1260 N   0  0  0  0  0  0  0  0  0  0  0  0
   -8.5960    3.9750   -7.2460 C   0  0  0  0  0  0  0  0  0  0  0  0
   -8.5560    4.1890   -8.7310 C   0  0  0  0  0  0  0  0  0  0  0  0
   -8.2520    5.3340   -9.4590 C   0  0  0  0  0  0  0  0  0  0  0  0
   -8.3400    5.3310  -10.8410 C   0  0  0  0  0  0  0  0  0  0  0  0
 23 21  1  0
 22 21  1  0
 21 20  1  0
 20 18  1  0
 19 18  2  0
 18 17  1  0
 17 24  1  1
 25 24  1  0
 25 33  2  0
 33 32  1  0
 32 31  2  0
 31 27  1  0
 27 26  2  0
 26 25  1  0
 28 27  1  0
 29 28  1  0
 30 29  1  0
 31 30  1  0
 17 16  1  0
 16  3  1  0
  3  2  2  0
  2  1  1  0
  4  2  1  0
  5  4  2  0
  5 15  1  0
 15  8  1  0
  9  8  1  0
  9 14  2  0
 14 13  1  0
 13 12  2  0
 12 11  1  0
 11 10  2  0
 10  9  1  0
  8  7  2  0
  7  6  1  0
 16  6  2  0
  6  5  1  0
M  END
$$$$
