A71EV2A-x4846_A_201_1_A71EV2A-x0911+A+147+1__LIG
     RDKit          3D

 19 20  0  0  0  0  0  0  0  0999 V2000
   10.1670   16.5070   19.5330 O   0  0  0  0  0  0  0  0  0  0  0  0
   10.5570   15.3490   19.7420 C   0  0  0  0  0  0  0  0  0  0  0  0
   11.0630   14.5800   18.7860 N   0  0  0  0  0  0  0  0  0  0  0  0
   10.3690   14.6900   21.0990 C   0  0  1  0  0  0  0  0  0  0  0  0
   11.3800   15.1670   22.1540 C   0  0  0  0  0  0  0  0  0  0  0  0
   11.1840   14.3760   23.4570 C   0  0  0  0  0  0  0  0  0  0  0  0
    9.7340   14.4550   23.9590 C   0  0  0  0  0  0  0  0  0  0  0  0
    8.9760   14.9560   21.6610 C   0  0  0  0  0  0  0  0  0  0  0  0
    8.7690   14.1690   22.8830 N   0  0  0  0  0  0  0  0  0  0  0  0
    7.7150   13.3250   22.9480 C   0  0  0  0  0  0  0  0  0  0  0  0
    6.9280   13.1880   22.0180 O   0  0  0  0  0  0  0  0  0  0  0  0
    7.5010   12.5140   24.2000 C   0  0  0  0  0  0  0  0  0  0  0  0
    8.0990   11.2450   24.3280 C   0  0  0  0  0  0  0  0  0  0  0  0
    9.3890   10.7880   23.2040 S   0  0  0  0  0  0  0  0  0  0  0  0
    9.3540    8.9640   23.2090 C   0  0  0  0  0  0  0  0  0  0  0  0
    6.5100   12.8990   25.1060 C   0  0  0  0  0  0  0  0  0  0  0  0
    6.0850   12.0170   26.0900 C   0  0  0  0  0  0  0  0  0  0  0  0
    6.6330   10.7560   26.1730 C   0  0  0  0  0  0  0  0  0  0  0  0
    7.6430   10.3710   25.3080 C   0  0  0  0  0  0  0  0  0  0  0  0
 15 14  1  0
 14 13  1  0
 13 19  2  0
 19 18  1  0
 18 17  2  0
 17 16  1  0
 16 12  2  0
 13 12  1  0
 12 10  1  0
 11 10  2  0
 10  9  1  0
  9  7  1  0
  7  6  1  0
  6  5  1  0
  5  4  1  0
  4  2  1  6
  3  2  1  0
  2  1  2  0
  8  4  1  0
  9  8  1  0
M  END
$$$$
