XX01ZVNS2B-x0693_B_301_1_XX01ZVNS2B-x4590+B+203+1__LIG
     RDKit          3D

 10 10  0  0  0  0  0  0  0  0999 V2000
   -9.1870    4.2870  -18.2370 O   0  0  0  0  0  0  0  0  0  0  0  0
   -8.6130    4.5720  -17.1830 C   0  0  0  0  0  0  0  0  0  0  0  0
   -9.0410    4.1930  -15.9570 N   0  0  0  0  0  0  0  0  0  0  0  0
   -8.1250    4.6460  -15.0120 N   0  0  0  0  0  0  0  0  0  0  0  0
   -7.3680    5.3100  -16.9810 C   0  0  0  0  0  0  0  0  0  0  0  0
   -7.1210    5.3060  -15.6120 C   0  0  0  0  0  0  0  0  0  0  0  0
   -5.9800    5.8660  -14.8250 C   0  0  0  0  0  0  0  0  0  0  0  0
   -6.6240    5.9410  -18.1230 C   0  0  0  0  0  0  0  0  0  0  0  0
   -5.9980    4.9330  -19.0350 C   0  0  0  0  0  0  0  0  0  0  0  0
   -6.5370    5.0400  -20.3410 O   0  0  0  0  0  0  0  0  0  0  0  0
  7  6  1  0
  6  4  1  0
  4  3  1  0
  3  2  1  0
  2  1  2  0
  5  2  1  0
  6  5  2  0
  8  5  1  0
  9  8  1  0
 10  9  1  0
M  END
$$$$
