A71EV2A-x3920_A_201_1_A71EV2A-x0911+A+147+1__LIG
     RDKit          3D

 20 21  0  0  0  0  0  0  0  0999 V2000
   10.3410   16.5400   19.1910 O   0  0  0  0  0  0  0  0  0  0  0  0
   10.7600   15.3990   19.4130 C   0  0  0  0  0  0  0  0  0  0  0  0
   11.1500   14.5780   18.4530 N   0  0  0  0  0  0  0  0  0  0  0  0
   10.8480   14.8550   20.8290 C   0  0  1  0  0  0  0  0  0  0  0  0
   12.0530   15.4470   21.5800 C   0  0  0  0  0  0  0  0  0  0  0  0
   12.1420   14.9360   23.0250 C   0  0  0  0  0  0  0  0  0  0  0  0
   10.8180   15.1110   23.7560 C   0  0  0  0  0  0  0  0  0  0  0  0
    9.5690   15.0860   21.6380 C   0  0  0  0  0  0  0  0  0  0  0  0
    9.7160   14.5180   22.9800 N   0  0  0  0  0  0  0  0  0  0  0  0
    8.9030   13.5270   23.4010 C   0  0  0  0  0  0  0  0  0  0  0  0
    7.9670   13.1250   22.7230 O   0  0  0  0  0  0  0  0  0  0  0  0
    9.2050   12.9370   24.7670 C   0  0  0  0  0  0  0  0  0  0  0  0
    8.2400   11.8360   25.1530 C   0  0  0  0  0  0  0  0  0  0  0  0
    8.2820   10.5290   24.6220 C   0  0  0  0  0  0  0  0  0  0  0  0
    9.2850   10.3050   23.7440 O   0  0  0  0  0  0  0  0  0  0  0  0
    9.5570    8.9530   23.3650 C   0  0  0  0  0  0  0  0  0  0  0  0
    7.2690   12.0650   26.1250 C   0  0  0  0  0  0  0  0  0  0  0  0
    6.4170   11.0510   26.5200 C   0  0  0  0  0  0  0  0  0  0  0  0
    6.5470    9.8210   25.9230 C   0  0  0  0  0  0  0  0  0  0  0  0
    7.4590    9.5490   24.9750 N   0  0  0  0  0  0  0  0  0  0  0  0
 16 15  1  0
 15 14  1  0
 14 20  2  0
 20 19  1  0
 19 18  2  0
 18 17  1  0
 17 13  2  0
 14 13  1  0
 13 12  1  0
 12 10  1  0
 11 10  2  0
 10  9  1  0
  9  7  1  0
  7  6  1  0
  6  5  1  0
  5  4  1  0
  4  2  1  6
  3  2  1  0
  2  1  2  0
  8  4  1  0
  9  8  1  0
M  END
$$$$
