A71EV2A-x3977_A_201_1_A71EV2A-x0911+A+147+1__LIG
     RDKit          3D

 18 18  0  0  0  0  0  0  0  0999 V2000
   10.2680   16.5320   19.1130 O   0  0  0  0  0  0  0  0  0  0  0  0
   10.7660   15.4180   19.3270 C   0  0  0  0  0  0  0  0  0  0  0  0
   11.0940   14.5740   18.3610 N   0  0  0  0  0  0  0  0  0  0  0  0
   11.0480   14.9540   20.7330 C   0  0  0  0  0  0  0  0  0  0  0  0
    9.8270   15.1110   21.6240 C   0  0  0  0  0  0  0  0  0  0  0  0
    9.9820   14.4570   22.9260 N   0  0  0  0  0  0  0  0  0  0  0  0
   11.1560   14.8540   23.7000 C   0  0  0  0  0  0  0  0  0  0  0  0
    9.0830   13.5350   23.3420 C   0  0  0  0  0  0  0  0  0  0  0  0
    8.0810   13.2620   22.6800 O   0  0  0  0  0  0  0  0  0  0  0  0
    9.3190   12.9000   24.7010 C   0  0  0  0  0  0  0  0  0  0  0  0
    8.2040   11.9580   25.0960 C   0  0  0  0  0  0  0  0  0  0  0  0
    8.2170   10.6370   24.6490 C   0  0  0  0  0  0  0  0  0  0  0  0
    9.1720   10.3610   23.7040 O   0  0  0  0  0  0  0  0  0  0  0  0
    9.4250    8.9860   23.3770 C   0  0  0  0  0  0  0  0  0  0  0  0
    7.2160   12.3420   26.0020 C   0  0  0  0  0  0  0  0  0  0  0  0
    6.2990   11.4220   26.4840 C   0  0  0  0  0  0  0  0  0  0  0  0
    6.3550   10.1120   26.0720 C   0  0  0  0  0  0  0  0  0  0  0  0
    7.3050    9.7090   25.1410 C   0  0  0  0  0  0  0  0  0  0  0  0
 14 13  1  0
 13 12  1  0
 12 18  2  0
 18 17  1  0
 17 16  2  0
 16 15  1  0
 15 11  2  0
 12 11  1  0
 11 10  1  0
 10  8  1  0
  9  8  2  0
  8  6  1  0
  7  6  1  0
  6  5  1  0
  5  4  1  0
  4  2  1  0
  3  2  1  0
  2  1  2  0
M  END
$$$$
