XX01ZVNS2B-x3743_B_203_1_XX01ZVNS2B-x4590+B+203+1__LIG
     RDKit          3D

 28 31  0  0  0  0  0  0  0  0999 V2000
   -9.9470    3.9900  -18.1980 Br  0  0  0  0  0  0  0  0  0  0  0  0
   -8.5400    4.5380  -17.0350 C   0  0  0  0  0  0  0  0  0  0  0  0
   -8.5810    4.1690  -15.6880 C   0  0  0  0  0  0  0  0  0  0  0  0
   -7.5260    5.3380  -17.5540 C   0  0  0  0  0  0  0  0  0  0  0  0
   -6.5540    5.8250  -16.6780 C   0  0  0  0  0  0  0  0  0  0  0  0
   -6.6000    5.4700  -15.3280 C   0  0  0  0  0  0  0  0  0  0  0  0
   -5.5730    6.1370  -14.7100 N   0  0  0  0  0  0  0  0  0  0  0  0
   -4.9510    6.8490  -15.6770 C   0  0  0  0  0  0  0  0  0  0  0  0
   -5.4860    6.7020  -16.8740 N   0  0  0  0  0  0  0  0  0  0  0  0
   -7.5820    4.6150  -14.8160 C   0  0  0  0  0  0  0  0  0  0  0  0
   -7.4600    4.1450  -13.3690 C   0  0  2  0  0  0  0  0  0  0  0  0
   -6.9250    2.6790  -13.2800 C   0  0  0  0  0  0  0  0  0  0  0  0
   -5.8020    2.5250  -12.5740 N   0  0  0  0  0  0  0  0  0  0  0  0
   -4.7360    3.5180  -12.5390 C   0  0  0  0  0  0  0  0  0  0  0  0
   -3.7720    3.4360  -13.8050 C   0  0  0  0  0  0  0  0  0  0  0  0
   -4.3210    2.6960  -14.8060 F   0  0  0  0  0  0  0  0  0  0  0  0
   -2.6220    2.7950  -13.4680 F   0  0  0  0  0  0  0  0  0  0  0  0
   -7.5310    1.7370  -13.7770 O   0  0  0  0  0  0  0  0  0  0  0  0
   -8.6270    4.3510  -12.5400 N   0  0  0  0  0  0  0  0  0  0  0  0
   -8.5500    4.2750  -11.1490 C   0  0  0  0  0  0  0  0  0  0  0  0
   -8.8310    3.0710  -10.5040 C   0  0  0  0  0  0  0  0  0  0  0  0
   -8.8360    3.0060   -9.1150 C   0  0  0  0  0  0  0  0  0  0  0  0
   -9.0950    1.8310   -8.2180 C   0  0  0  0  0  0  0  0  0  0  0  0
   -8.9710    2.4150   -6.8820 N   0  0  0  0  0  0  0  0  0  0  0  0
   -8.7280    3.8570   -6.9010 C   0  0  0  0  0  0  0  0  0  0  0  0
   -8.5650    4.1420   -8.3640 C   0  0  0  0  0  0  0  0  0  0  0  0
   -8.2590    5.3360   -9.0100 C   0  0  0  0  0  0  0  0  0  0  0  0
   -8.2480    5.4020  -10.3920 C   0  0  0  0  0  0  0  0  0  0  0  0
 18 12  2  0
 13 12  1  0
 14 13  1  0
 15 14  1  0
 17 15  1  0
 16 15  1  0
 12 11  1  0
 11 19  1  6
 20 19  1  0
 20 28  2  0
 28 27  1  0
 27 26  2  0
 26 22  1  0
 22 21  2  0
 21 20  1  0
 23 22  1  0
 24 23  1  0
 25 24  1  0
 26 25  1  0
 11 10  1  0
 10  3  1  0
  3  2  2  0
  2  1  1  0
  4  2  1  0
  5  4  2  0
  5  9  1  0
  9  8  2  0
  8  7  1  0
  7  6  1  0
 10  6  2  0
  6  5  1  0
M  END
$$$$
