XX01ZVNS2B-x4849_B_203_6_XX01ZVNS2B-x4590+B+203+1__LIG
     RDKit          3D

 28 32  0  0  0  0  0  0  0  0999 V2000
  -10.5840    4.0670  -18.2900 Cl  0  0  0  0  0  0  0  0  0  0  0  0
   -9.0340    4.3890  -17.5590 C   0  0  0  0  0  0  0  0  0  0  0  0
   -7.9550    4.6450  -18.3810 C   0  0  0  0  0  0  0  0  0  0  0  0
   -6.7670    5.0180  -17.7740 C   0  0  0  0  0  0  0  0  0  0  0  0
   -6.6320    5.1550  -16.3830 C   0  0  0  0  0  0  0  0  0  0  0  0
   -5.2710    5.5120  -16.1900 C   0  0  0  0  0  0  0  0  0  0  0  0
   -4.6240    5.5770  -17.3360 N   0  0  0  0  0  0  0  0  0  0  0  0
   -5.5370    5.2770  -18.3090 N   0  0  0  0  0  0  0  0  0  0  0  0
   -5.1440    5.2770  -19.7190 C   0  0  0  0  0  0  0  0  0  0  0  0
   -3.6420    5.1160  -20.0440 C   0  0  0  0  0  0  0  0  0  0  0  0
   -5.0570    6.6600  -20.3980 C   0  0  0  0  0  0  0  0  0  0  0  0
   -3.8150    6.1860  -21.0530 N   0  0  0  0  0  0  0  0  0  0  0  0
   -8.9450    4.4650  -16.1770 C   0  0  0  0  0  0  0  0  0  0  0  0
   -7.7490    4.8740  -15.5770 C   0  0  0  0  0  0  0  0  0  0  0  0
   -7.6750    5.0710  -14.0910 C   0  0  0  0  0  0  0  0  0  0  0  0
   -6.7960    5.7710  -13.5970 O   0  0  0  0  0  0  0  0  0  0  0  0
   -8.5920    4.4040  -13.3490 N   0  0  0  0  0  0  0  0  0  0  0  0
   -8.6410    4.3750  -11.9310 C   0  0  0  0  0  0  0  0  0  0  0  0
   -8.5990    5.5930  -11.2350 C   0  0  0  0  0  0  0  0  0  0  0  0
   -8.5970    6.8460  -11.7900 O   0  0  0  0  0  0  0  0  0  0  0  0
   -8.2480    7.8010  -10.7070 C   0  0  0  0  0  0  0  0  0  0  0  0
   -9.1720    8.9950  -10.8690 C   0  0  0  0  0  0  0  0  0  0  0  0
   -6.7910    8.1770  -10.9170 C   0  0  0  0  0  0  0  0  0  0  0  0
   -8.4850    7.0260   -9.3920 C   0  0  0  0  0  0  0  0  0  0  0  0
   -8.5460    5.5950   -9.8520 C   0  0  0  0  0  0  0  0  0  0  0  0
   -8.5530    4.3940   -9.1500 C   0  0  0  0  0  0  0  0  0  0  0  0
   -8.6140    3.1920   -9.8340 C   0  0  0  0  0  0  0  0  0  0  0  0
   -8.6620    3.1750  -11.2180 C   0  0  0  0  0  0  0  0  0  0  0  0
 12 10  1  0
 10  9  1  0
  9  8  1  0
  8  7  1  0
  7  6  2  0
  6  5  1  0
  5 14  2  0
 15 14  1  0
 16 15  2  0
 17 15  1  0
 18 17  1  0
 18 28  2  0
 28 27  1  0
 27 26  2  0
 26 25  1  0
 25 19  2  0
 19 18  1  0
 20 19  1  0
 21 20  1  0
 22 21  1  0
 23 21  1  0
 24 21  1  0
 25 24  1  0
 14 13  1  0
 13  2  2  0
  2  1  1  0
  3  2  1  0
  4  3  2  0
  5  4  1  0
  8  4  1  0
 11  9  1  0
 12 11  1  0
M  END
$$$$
