A71EV2A-x4874_C_201_1_A71EV2A-x0911+A+147+1__LIG
     RDKit          3D

 18 19  0  0  0  0  0  0  0  0999 V2000
   10.3180   16.6630   19.2080 O   0  0  0  0  0  0  0  0  0  0  0  0
   10.6620   15.5020   19.4810 C   0  0  0  0  0  0  0  0  0  0  0  0
   10.9110   14.5730   18.5500 N   0  0  0  0  0  0  0  0  0  0  0  0
   10.6500   15.0060   20.9160 C   0  0  1  0  0  0  0  0  0  0  0  0
   11.7020   15.7230   21.7900 C   0  0  0  0  0  0  0  0  0  0  0  0
   11.6340   15.1960   23.2250 C   0  0  0  0  0  0  0  0  0  0  0  0
   10.2180   15.3400   23.7790 C   0  0  0  0  0  0  0  0  0  0  0  0
    9.2600   15.2100   21.5270 C   0  0  0  0  0  0  0  0  0  0  0  0
    9.2430   14.6810   22.8920 N   0  0  0  0  0  0  0  0  0  0  0  0
    8.3630   13.7170   23.2480 C   0  0  0  0  0  0  0  0  0  0  0  0
    7.5270   13.2870   22.4700 O   0  0  0  0  0  0  0  0  0  0  0  0
    8.4600   13.1560   24.6540 C   0  0  1  0  0  0  0  0  0  0  0  0
    7.1350   13.3930   25.3890 C   0  0  0  0  0  0  0  0  0  0  0  0
    8.7130   11.6970   24.3920 C   0  0  0  0  0  0  0  0  0  0  0  0
    7.9660   10.7110   24.8990 N   0  0  0  0  0  0  0  0  0  0  0  0
    8.4290    9.4920   24.5260 N   0  0  0  0  0  0  0  0  0  0  0  0
    9.4980    9.7350   23.7800 C   0  0  0  0  0  0  0  0  0  0  0  0
    9.7160   11.1090   23.6640 C   0  0  0  0  0  0  0  0  0  0  0  0
 12 13  1  6
 12 10  1  0
 11 10  2  0
 10  9  1  0
  9  7  1  0
  7  6  1  0
  6  5  1  0
  5  4  1  0
  4  2  1  6
  3  2  1  0
  2  1  2  0
  8  4  1  0
  9  8  1  0
 14 12  1  0
 14 18  2  0
 18 17  1  0
 17 16  2  0
 16 15  1  0
 15 14  1  0
M  END
$$$$
