A71EV2A-x5512_A_201_5_A71EV2A-x0911+A+147+1__LIG
     RDKit          3D

 29 31  0  0  0  0  0  0  0  0999 V2000
   10.4370   16.6960   19.1810 O   0  0  0  0  0  0  0  0  0  0  0  0
   10.7780   15.5420   19.4410 C   0  0  0  0  0  0  0  0  0  0  0  0
   11.1440   14.6790   18.5070 N   0  0  0  0  0  0  0  0  0  0  0  0
   10.7410   15.0160   20.8660 C   0  0  1  0  0  0  0  0  0  0  0  0
   11.8390   15.6570   21.7300 C   0  0  0  0  0  0  0  0  0  0  0  0
   11.7740   15.1440   23.1800 C   0  0  0  0  0  0  0  0  0  0  0  0
   10.3810   15.3330   23.7620 C   0  0  0  0  0  0  0  0  0  0  0  0
    9.3640   15.2450   21.5050 C   0  0  0  0  0  0  0  0  0  0  0  0
    9.3580   14.7440   22.8830 N   0  0  0  0  0  0  0  0  0  0  0  0
    8.4670   13.8030   23.2680 C   0  0  0  0  0  0  0  0  0  0  0  0
    7.6610   13.3190   22.4900 O   0  0  0  0  0  0  0  0  0  0  0  0
    8.5120   13.3690   24.7220 C   0  0  0  0  0  0  0  0  0  0  0  0
    7.5590   12.2310   25.0020 C   0  0  0  0  0  0  0  0  0  0  0  0
    7.8110   10.8950   24.6560 C   0  0  0  0  0  0  0  0  0  0  0  0
    9.2950   10.5340   23.7600 S   0  0  0  0  0  0  0  0  0  0  0  0
    9.1770    8.7750   23.4200 C   0  0  0  0  0  0  0  0  0  0  0  0
    6.3790   12.5360   25.6870 C   0  0  0  0  0  0  0  0  0  0  0  0
    5.4600   11.5490   26.0270 C   0  0  0  0  0  0  0  0  0  0  0  0
    5.7410   10.2250   25.6990 C   0  0  0  0  0  0  0  0  0  0  0  0
    6.9090    9.8960   25.0260 C   0  0  0  0  0  0  0  0  0  0  0  0
    4.1660   11.9990   26.6380 C   0  0  0  0  0  0  0  0  0  0  0  0
    3.7830   13.1600   26.5140 O   0  0  0  0  0  0  0  0  0  0  0  0
    3.4630   11.0610   27.3100 N   0  0  0  0  0  0  0  0  0  0  0  0
    2.2120   11.2370   27.9640 C   0  0  0  0  0  0  0  0  0  0  0  0
    1.2890   12.2350   27.6580 C   0  0  0  0  0  0  0  0  0  0  0  0
    0.0900   12.2560   28.3470 C   0  0  0  0  0  0  0  0  0  0  0  0
   -0.2390   11.3730   29.2930 N   0  0  0  0  0  0  0  0  0  0  0  0
    0.6750   10.4500   29.6010 C   0  0  0  0  0  0  0  0  0  0  0  0
    1.9020   10.3410   28.9770 C   0  0  0  0  0  0  0  0  0  0  0  0
 16 15  1  0
 15 14  1  0
 14 20  2  0
 20 19  1  0
 19 18  2  0
 21 18  1  0
 22 21  2  0
 23 21  1  0
 24 23  1  0
 24 29  2  0
 29 28  1  0
 28 27  2  0
 27 26  1  0
 26 25  2  0
 25 24  1  0
 18 17  1  0
 17 13  2  0
 14 13  1  0
 13 12  1  0
 12 10  1  0
 11 10  2  0
 10  9  1  0
  9  7  1  0
  7  6  1  0
  6  5  1  0
  5  4  1  0
  4  2  1  6
  3  2  1  0
  2  1  2  0
  8  4  1  0
  9  8  1  0
M  END
$$$$
