XX01ZVNS2B-x3093_B_203_1_XX01ZVNS2B-x4590+B+203+1__LIG
     RDKit          3D

 26 29  0  0  0  0  0  0  0  0999 V2000
   -6.7170    5.7290  -13.8950 O   0  0  0  0  0  0  0  0  0  0  0  0
   -7.6080    4.9390  -14.2050 C   0  0  0  0  0  0  0  0  0  0  0  0
   -8.4010    4.2970  -13.2840 N   0  0  0  0  0  0  0  0  0  0  0  0
   -8.4090    4.4500  -11.8670 C   0  0  0  0  0  0  0  0  0  0  0  0
   -8.0650    5.6680  -11.2910 C   0  0  0  0  0  0  0  0  0  0  0  0
   -8.1020    5.8130   -9.9140 C   0  0  0  0  0  0  0  0  0  0  0  0
   -8.4920    4.7560   -9.1090 C   0  0  0  0  0  0  0  0  0  0  0  0
   -8.7970    3.3920  -11.0490 C   0  0  0  0  0  0  0  0  0  0  0  0
   -8.8630    3.5410   -9.6660 C   0  0  0  0  0  0  0  0  0  0  0  0
   -9.4240    2.4270   -8.7850 C   0  0  0  0  0  0  0  0  0  0  0  0
   -8.3390    1.5850   -8.3060 N   0  0  0  0  0  0  0  0  0  0  0  0
   -7.9180    4.6600  -15.6650 C   0  0  0  0  0  0  0  0  0  0  0  0
   -6.9790    4.8520  -16.7300 C   0  0  0  0  0  0  0  0  0  0  0  0
   -7.3770    4.5590  -18.0260 N   0  0  0  0  0  0  0  0  0  0  0  0
   -8.6470    4.1040  -18.3320 C   0  0  0  0  0  0  0  0  0  0  0  0
   -9.5410    3.9410  -17.3390 C   0  0  0  0  0  0  0  0  0  0  0  0
   -9.1790    4.2130  -15.9970 C   0  0  0  0  0  0  0  0  0  0  0  0
   -5.7270    5.2690  -16.7000 N   0  0  0  0  0  0  0  0  0  0  0  0
   -5.3010    5.2520  -18.0180 C   0  0  0  0  0  0  0  0  0  0  0  0
   -6.2960    4.8110  -18.8410 C   0  0  0  0  0  0  0  0  0  0  0  0
   -3.9200    5.7260  -18.3570 C   0  0  0  0  0  0  0  0  0  0  0  0
   -3.4780    6.8720  -17.5610 N   0  0  0  0  0  0  0  0  0  0  0  0
   -4.3810    8.0260  -17.6590 C   0  0  0  0  0  0  0  0  0  0  0  0
   -3.5780    9.1650  -17.0680 C   0  0  0  0  0  0  0  0  0  0  0  0
   -2.1250    8.7950  -17.3690 C   0  0  0  0  0  0  0  0  0  0  0  0
   -2.1770    7.4010  -17.9880 C   0  0  0  0  0  0  0  0  0  0  0  0
 11 10  1  0
 10  9  1  0
  9  7  2  0
  7  6  1  0
  6  5  2  0
  5  4  1  0
  4  3  1  0
  3  2  1  0
  2  1  2  0
 12  2  1  0
 12 17  2  0
 17 16  1  0
 16 15  2  0
 15 14  1  0
 14 20  1  0
 20 19  2  0
 21 19  1  0
 22 21  1  0
 22 26  1  0
 26 25  1  0
 25 24  1  0
 24 23  1  0
 23 22  1  0
 19 18  1  0
 18 13  2  0
 13 12  1  0
 14 13  1  0
  8  4  2  0
  9  8  1  0
M  END
$$$$
