XX01ZVNS2B-x0945_B_301_1_XX01ZVNS2B-x4590+B+203+1__LIG
     RDKit          3D

 14 15  0  0  0  0  0  0  0  0999 V2000
  -10.4370    4.4810  -18.4830 C   0  0  0  0  0  0  0  0  0  0  0  0
   -9.8540    3.8430  -17.3450 O   0  0  0  0  0  0  0  0  0  0  0  0
   -8.7080    4.3550  -16.8600 C   0  0  0  0  0  0  0  0  0  0  0  0
   -7.7460    4.6950  -17.7040 N   0  0  0  0  0  0  0  0  0  0  0  0
   -6.6210    5.1850  -17.1640 C   0  0  0  0  0  0  0  0  0  0  0  0
   -6.3990    5.3660  -15.8530 N   0  0  0  0  0  0  0  0  0  0  0  0
   -7.4050    4.9970  -15.0420 C   0  0  0  0  0  0  0  0  0  0  0  0
   -8.6080    4.4740  -15.4760 C   0  0  0  0  0  0  0  0  0  0  0  0
   -5.5980    5.4900  -18.0190 N   0  0  0  0  0  0  0  0  0  0  0  0
   -5.7560    5.4820  -19.4800 C   0  0  0  0  0  0  0  0  0  0  0  0
   -4.9260    6.5760  -20.1440 C   0  0  0  0  0  0  0  0  0  0  0  0
   -4.1700    7.3910  -19.1530 N   0  0  0  0  0  0  0  0  0  0  0  0
   -3.3770    6.5500  -18.2080 C   0  0  0  0  0  0  0  0  0  0  0  0
   -4.1850    5.3980  -17.6270 C   0  0  0  0  0  0  0  0  0  0  0  0
  2  1  1  0
  3  2  1  0
  3  8  2  0
  8  7  1  0
  7  6  2  0
  6  5  1  0
  5  4  2  0
  4  3  1  0
  9  5  1  0
  9 14  1  0
 14 13  1  0
 13 12  1  0
 12 11  1  0
 11 10  1  0
 10  9  1  0
M  END
$$$$
