A71EV2A-x3989_A_201_1_A71EV2A-x0911+A+147+1__LIG
     RDKit          3D

 22 23  0  0  0  0  0  0  0  0999 V2000
    9.5240   11.1190   23.3130 Cl  0  0  0  0  0  0  0  0  0  0  0  0
    8.2950   11.4190   24.5040 C   0  0  0  0  0  0  0  0  0  0  0  0
    7.7800   10.3420   25.2030 C   0  0  0  0  0  0  0  0  0  0  0  0
    6.8480   10.5560   26.2030 C   0  0  0  0  0  0  0  0  0  0  0  0
    6.4300   11.8460   26.5040 C   0  0  0  0  0  0  0  0  0  0  0  0
    5.4410   12.1110   27.5870 C   0  0  0  0  0  0  0  0  0  0  0  0
    5.4620   11.1920   28.5290 F   0  0  0  0  0  0  0  0  0  0  0  0
    5.6760   13.2420   28.2200 F   0  0  0  0  0  0  0  0  0  0  0  0
    4.2000   12.2250   27.1200 F   0  0  0  0  0  0  0  0  0  0  0  0
    6.9540   12.9060   25.7770 C   0  0  0  0  0  0  0  0  0  0  0  0
    7.8830   12.7220   24.7590 C   0  0  0  0  0  0  0  0  0  0  0  0
    8.3230   13.9030   23.9260 C   0  0  0  0  0  0  0  0  0  0  0  0
    9.7830   14.2500   24.1400 C   0  0  0  0  0  0  0  0  0  0  0  0
   10.3010   14.1990   25.2430 O   0  0  0  0  0  0  0  0  0  0  0  0
   10.4630   14.6510   23.0460 N   0  0  0  0  0  0  0  0  0  0  0  0
   11.8450   15.1420   23.0980 C   0  0  0  0  0  0  0  0  0  0  0  0
   12.0260   15.7820   21.7240 C   0  0  0  0  0  0  0  0  0  0  0  0
    9.9120   14.6990   21.6850 C   0  0  0  0  0  0  0  0  0  0  0  0
   11.1680   14.8670   20.8330 C   0  0  1  0  0  0  0  0  0  0  0  0
   10.8640   15.3900   19.4380 C   0  0  0  0  0  0  0  0  0  0  0  0
   10.4120   16.5280   19.2590 O   0  0  0  0  0  0  0  0  0  0  0  0
   11.1040   14.5440   18.4480 N   0  0  0  0  0  0  0  0  0  0  0  0
 22 20  1  0
 21 20  2  0
 19 20  1  6
 19 17  1  0
 17 16  1  0
 16 15  1  0
 15 13  1  0
 14 13  2  0
 13 12  1  0
 12 11  1  0
 11 10  2  0
 10  5  1  0
  6  5  1  0
  9  6  1  0
  8  6  1  0
  7  6  1  0
  5  4  2  0
  4  3  1  0
  3  2  2  0
 11  2  1  0
  2  1  1  0
 18 15  1  0
 19 18  1  0
M  END
$$$$
