A71EV2A-x4774_A_201_3_A71EV2A-x0911+A+147+1__LIG
     RDKit          3D

 20 21  0  0  0  0  0  0  0  0999 V2000
   10.5210   16.7120   19.1980 O   0  0  0  0  0  0  0  0  0  0  0  0
   10.7850   15.5270   19.4230 C   0  0  0  0  0  0  0  0  0  0  0  0
   11.0970   14.6690   18.4680 N   0  0  0  0  0  0  0  0  0  0  0  0
   10.8150   14.9840   20.8440 C   0  0  1  0  0  0  0  0  0  0  0  0
   11.8960   15.6830   21.6850 C   0  0  0  0  0  0  0  0  0  0  0  0
   11.9890   15.0770   23.0870 C   0  0  0  0  0  0  0  0  0  0  0  0
   10.6480   15.1450   23.7830 C   0  0  0  0  0  0  0  0  0  0  0  0
    9.4880   15.1400   21.5910 C   0  0  0  0  0  0  0  0  0  0  0  0
    9.5810   14.5750   22.9420 N   0  0  0  0  0  0  0  0  0  0  0  0
    8.7130   13.6300   23.3700 C   0  0  0  0  0  0  0  0  0  0  0  0
    7.9290   13.0820   22.6120 O   0  0  0  0  0  0  0  0  0  0  0  0
    8.7310   13.2860   24.8480 C   0  0  0  0  0  0  0  0  0  0  0  0
    7.9420   12.0510   25.1750 C   0  0  0  0  0  0  0  0  0  0  0  0
    8.2260   10.7020   24.6900 C   0  0  0  0  0  0  0  0  0  0  0  0
    9.5800   10.4700   23.5940 S   0  0  0  0  0  0  0  0  0  0  0  0
    9.5520    8.6990   23.3230 C   0  0  0  0  0  0  0  0  0  0  0  0
    6.9270   12.2400   26.0290 N   0  0  0  0  0  0  0  0  0  0  0  0
    6.2210   11.1680   26.4190 C   0  0  0  0  0  0  0  0  0  0  0  0
    6.4940    9.9020   25.9510 C   0  0  0  0  0  0  0  0  0  0  0  0
    7.4920    9.6570   25.0820 N   0  0  0  0  0  0  0  0  0  0  0  0
 16 15  1  0
 15 14  1  0
 14 20  2  0
 20 19  1  0
 19 18  2  0
 18 17  1  0
 17 13  2  0
 14 13  1  0
 13 12  1  0
 12 10  1  0
 11 10  2  0
 10  9  1  0
  9  7  1  0
  7  6  1  0
  6  5  1  0
  5  4  1  0
  4  2  1  6
  3  2  1  0
  2  1  2  0
  8  4  1  0
  9  8  1  0
M  END
$$$$
