XX01ZVNS2B-x3060_B_203_1_XX01ZVNS2B-x4590+B+203+1__LIG
     RDKit          3D

 20 21  0  0  0  0  0  0  0  0999 V2000
  -10.8550    4.1170  -18.2370 Cl  0  0  0  0  0  0  0  0  0  0  0  0
   -9.2870    4.3680  -17.5220 C   0  0  0  0  0  0  0  0  0  0  0  0
   -9.1790    4.4590  -16.1490 C   0  0  0  0  0  0  0  0  0  0  0  0
   -8.1900    4.4910  -18.3470 C   0  0  0  0  0  0  0  0  0  0  0  0
   -6.9390    4.7310  -17.7940 C   0  0  0  0  0  0  0  0  0  0  0  0
   -5.7410    4.9500  -18.6770 C   0  0  0  0  0  0  0  0  0  0  0  0
   -6.1100    5.7730  -19.8280 N   0  0  0  0  0  0  0  0  0  0  0  0
   -6.8150    4.8170  -16.4110 C   0  0  0  0  0  0  0  0  0  0  0  0
   -7.9300    4.6920  -15.5860 C   0  0  0  0  0  0  0  0  0  0  0  0
   -7.7010    4.9370  -14.1280 C   0  0  0  0  0  0  0  0  0  0  0  0
   -6.7800    5.6610  -13.7540 O   0  0  0  0  0  0  0  0  0  0  0  0
   -8.5640    4.3380  -13.2680 N   0  0  0  0  0  0  0  0  0  0  0  0
   -8.5780    4.4650  -11.8460 C   0  0  0  0  0  0  0  0  0  0  0  0
   -8.2920    5.6920  -11.2550 C   0  0  0  0  0  0  0  0  0  0  0  0
   -8.3270    5.8170   -9.8760 C   0  0  0  0  0  0  0  0  0  0  0  0
   -8.6580    4.7310   -9.0830 C   0  0  0  0  0  0  0  0  0  0  0  0
   -8.8930    3.3750  -11.0380 C   0  0  0  0  0  0  0  0  0  0  0  0
   -8.9500    3.5010   -9.6540 C   0  0  0  0  0  0  0  0  0  0  0  0
   -9.3740    2.3580   -8.8050 C   0  0  0  0  0  0  0  0  0  0  0  0
   -8.2310    1.8380   -8.0650 N   0  0  0  0  0  0  0  0  0  0  0  0
 20 19  1  0
 19 18  1  0
 18 16  2  0
 16 15  1  0
 15 14  2  0
 14 13  1  0
 13 12  1  0
 12 10  1  0
 11 10  2  0
 10  9  1  0
  9  3  1  0
  3  2  2  0
  2  1  1  0
  4  2  1  0
  5  4  2  0
  6  5  1  0
  7  6  1  0
  8  5  1  0
  9  8  2  0
 17 13  2  0
 18 17  1  0
M  END
$$$$
