A71EV2A-x4490_A_201_1_A71EV2A-x0911+A+147+1__LIG
     RDKit          3D

 20 22  0  0  0  0  0  0  0  0999 V2000
   11.4170   14.5900   25.0130 O   0  0  0  0  0  0  0  0  0  0  0  0
   11.3000   14.7700   23.8110 C   0  0  0  0  0  0  0  0  0  0  0  0
   12.4560   15.3330   23.0200 C   0  0  0  0  0  0  0  0  0  0  0  0
   12.1190   15.8670   21.6230 C   0  0  0  0  0  0  0  0  0  0  0  0
   10.1320   14.5640   23.1560 N   0  0  0  0  0  0  0  0  0  0  0  0
    9.8750   14.8090   21.7290 C   0  0  0  0  0  0  0  0  0  0  0  0
   11.1660   14.8930   20.9030 C   0  0  1  0  0  0  0  0  0  0  0  0
   10.8990   15.3160   19.4660 C   0  0  0  0  0  0  0  0  0  0  0  0
   11.1370   14.5570   18.5280 O   0  0  0  0  0  0  0  0  0  0  0  0
   10.3510   16.5040   19.2900 N   0  0  0  0  0  0  0  0  0  0  0  0
    8.9470   14.1600   23.9160 C   0  0  0  0  0  0  0  0  0  0  0  0
    8.7800   12.6580   24.0010 C   0  0  0  0  0  0  0  0  0  0  0  0
    7.8120   12.0730   24.8320 C   0  0  0  0  0  0  0  0  0  0  0  0
    6.9120   12.6620   25.6900 N   0  0  0  0  0  0  0  0  0  0  0  0
    6.1630   11.6760   26.2880 C   0  0  0  0  0  0  0  0  0  0  0  0
    6.5590   10.4580   25.8440 C   0  0  0  0  0  0  0  0  0  0  0  0
    7.6340   10.6760   24.9170 C   0  0  0  0  0  0  0  0  0  0  0  0
    8.4830    9.8560   24.1640 C   0  0  0  0  0  0  0  0  0  0  0  0
    9.4640   10.4170   23.3620 C   0  0  0  0  0  0  0  0  0  0  0  0
    9.6060   11.7980   23.2780 C   0  0  0  0  0  0  0  0  0  0  0  0
 10  8  1  0
  9  8  2  0
  7  8  1  6
  7  4  1  0
  4  3  1  0
  3  2  1  0
  2  1  2  0
  5  2  1  0
 11  5  1  0
 12 11  1  0
 12 20  1  0
 20 19  2  0
 19 18  1  0
 18 17  2  0
 17 16  1  0
 16 15  2  0
 15 14  1  0
 14 13  1  0
 13 12  2  0
 17 13  1  0
  6  5  1  0
  7  6  1  0
M  END
$$$$
