A71EV2A-x4840_A_201_1_A71EV2A-x0911+A+147+1__LIG
     RDKit          3D

 21 22  0  0  0  0  0  0  0  0999 V2000
   10.3030   16.6110   19.0700 O   0  0  0  0  0  0  0  0  0  0  0  0
   10.7490   15.4900   19.3380 C   0  0  0  0  0  0  0  0  0  0  0  0
   11.2480   14.6780   18.4240 N   0  0  0  0  0  0  0  0  0  0  0  0
   10.7610   14.9680   20.7650 C   0  0  1  0  0  0  0  0  0  0  0  0
   11.9260   15.5550   21.5760 C   0  0  0  0  0  0  0  0  0  0  0  0
   11.9960   14.9490   22.9770 C   0  0  0  0  0  0  0  0  0  0  0  0
   10.6610   15.0660   23.6910 C   0  0  0  0  0  0  0  0  0  0  0  0
    9.4500   15.1630   21.5320 C   0  0  0  0  0  0  0  0  0  0  0  0
    9.5560   14.5530   22.8610 N   0  0  0  0  0  0  0  0  0  0  0  0
    8.6700   13.6150   23.2640 C   0  0  0  0  0  0  0  0  0  0  0  0
    7.6680   13.3510   22.6190 O   0  0  0  0  0  0  0  0  0  0  0  0
    8.9810   12.9180   24.5770 C   0  0  0  0  0  0  0  0  0  0  0  0
    7.8980   11.9610   25.0260 C   0  0  0  0  0  0  0  0  0  0  0  0
    8.0080   10.5710   24.8440 C   0  0  0  0  0  0  0  0  0  0  0  0
    9.1380    9.9350   24.0870 C   0  0  0  0  0  0  0  0  0  0  0  0
   10.2130   10.5350   23.9560 O   0  0  0  0  0  0  0  0  0  0  0  0
    8.9580    8.7170   23.5970 N   0  0  0  0  0  0  0  0  0  0  0  0
    6.8420   12.4550   25.7870 C   0  0  0  0  0  0  0  0  0  0  0  0
    5.9550   11.6000   26.4160 C   0  0  0  0  0  0  0  0  0  0  0  0
    6.0810   10.2450   26.2610 C   0  0  0  0  0  0  0  0  0  0  0  0
    7.0780    9.7260   25.4520 C   0  0  0  0  0  0  0  0  0  0  0  0
 17 15  1  0
 16 15  2  0
 15 14  1  0
 14 21  2  0
 21 20  1  0
 20 19  2  0
 19 18  1  0
 18 13  2  0
 14 13  1  0
 13 12  1  0
 12 10  1  0
 11 10  2  0
 10  9  1  0
  9  7  1  0
  7  6  1  0
  6  5  1  0
  5  4  1  0
  4  2  1  6
  3  2  1  0
  2  1  2  0
  8  4  1  0
  9  8  1  0
M  END
$$$$
