XX01ZVNS2B-x5211_B_203_7_XX01ZVNS2B-x4590+B+203+1__LIG
     RDKit          3D

 26 30  0  0  0  0  0  0  0  0999 V2000
  -10.2910    4.1150  -17.6260 F   0  0  0  0  0  0  0  0  0  0  0  0
   -9.0920    4.3950  -17.0360 C   0  0  0  0  0  0  0  0  0  0  0  0
   -9.0270    4.4220  -15.6510 C   0  0  0  0  0  0  0  0  0  0  0  0
   -8.0150    4.6250  -17.8610 C   0  0  0  0  0  0  0  0  0  0  0  0
   -6.8090    4.9000  -17.2430 C   0  0  0  0  0  0  0  0  0  0  0  0
   -5.5330    5.1180  -17.7380 N   0  0  0  0  0  0  0  0  0  0  0  0
   -5.1640    5.1280  -19.1530 C   0  0  0  0  0  0  0  0  0  0  0  0
   -3.6410    5.1660  -19.4060 C   0  0  0  0  0  0  0  0  0  0  0  0
   -3.9270    6.0820  -20.5380 N   0  0  0  0  0  0  0  0  0  0  0  0
   -5.1590    6.5120  -19.8280 C   0  0  0  0  0  0  0  0  0  0  0  0
   -4.7320    5.3100  -16.6440 C   0  0  0  0  0  0  0  0  0  0  0  0
   -5.3660    5.2430  -15.4950 N   0  0  0  0  0  0  0  0  0  0  0  0
   -6.6820    4.9700  -15.8520 C   0  0  0  0  0  0  0  0  0  0  0  0
   -7.8010    4.7300  -15.0390 C   0  0  0  0  0  0  0  0  0  0  0  0
   -7.7140    4.8810  -13.5430 C   0  0  0  0  0  0  0  0  0  0  0  0
   -6.8990    5.6560  -13.0460 O   0  0  0  0  0  0  0  0  0  0  0  0
   -8.5560    4.1140  -12.7970 N   0  0  0  0  0  0  0  0  0  0  0  0
   -8.6580    4.1170  -11.3690 C   0  0  0  0  0  0  0  0  0  0  0  0
   -8.8930    2.9300  -10.6770 C   0  0  0  0  0  0  0  0  0  0  0  0
   -8.9450    2.9220   -9.2800 C   0  0  0  0  0  0  0  0  0  0  0  0
   -9.2300    1.7960   -8.3280 C   0  0  0  0  0  0  0  0  0  0  0  0
   -8.8470    2.3720   -7.0250 N   0  0  0  0  0  0  0  0  0  0  0  0
   -8.8420    3.8490   -7.0970 C   0  0  0  0  0  0  0  0  0  0  0  0
   -8.7430    4.1020   -8.5740 C   0  0  0  0  0  0  0  0  0  0  0  0
   -8.5300    5.2930   -9.2620 C   0  0  0  0  0  0  0  0  0  0  0  0
   -8.4870    5.3020  -10.6510 C   0  0  0  0  0  0  0  0  0  0  0  0
 16 15  2  0
 17 15  1  0
 18 17  1  0
 18 26  2  0
 26 25  1  0
 25 24  2  0
 24 20  1  0
 20 19  2  0
 19 18  1  0
 21 20  1  0
 22 21  1  0
 23 22  1  0
 24 23  1  0
 15 14  1  0
 14  3  1  0
  3  2  2  0
  2  1  1  0
  4  2  1  0
  5  4  2  0
  5 13  1  0
 14 13  2  0
 13 12  1  0
 12 11  2  0
 11  6  1  0
  6  5  1  0
  7  6  1  0
  7 10  1  0
 10  9  1  0
  9  8  1  0
  8  7  1  0
M  END
$$$$
