XX01ZVNS2B-x4017_B_203_1_XX01ZVNS2B-x4590+B+203+1__LIG
     RDKit          3D

 23 26  0  0  0  0  0  0  0  0999 V2000
   -6.5820    5.3400  -12.8530 O   0  0  0  0  0  0  0  0  0  0  0  0
   -7.4620    4.6700  -13.3860 C   0  0  0  0  0  0  0  0  0  0  0  0
   -7.5230    4.5290  -14.8750 C   0  0  0  0  0  0  0  0  0  0  0  0
   -8.7130    4.3000  -15.5600 C   0  0  0  0  0  0  0  0  0  0  0  0
   -6.3340    4.6830  -15.5990 C   0  0  0  0  0  0  0  0  0  0  0  0
   -6.3260    4.5980  -16.9800 C   0  0  0  0  0  0  0  0  0  0  0  0
   -7.5040    4.3600  -17.6820 C   0  0  0  0  0  0  0  0  0  0  0  0
   -8.7020    4.2330  -16.9500 C   0  0  0  0  0  0  0  0  0  0  0  0
  -10.0660    4.0170  -18.0040 S   0  0  0  0  0  0  0  0  0  0  0  0
   -9.0460    4.0400  -19.3910 C   0  0  0  0  0  0  0  0  0  0  0  0
   -7.7300    4.2150  -19.0920 C   0  0  0  0  0  0  0  0  0  0  0  0
   -6.7150    4.1520  -20.1050 C   0  0  0  0  0  0  0  0  0  0  0  0
   -5.8720    4.0830  -20.8690 N   0  0  0  0  0  0  0  0  0  0  0  0
   -8.3930    3.9900  -12.6710 N   0  0  0  0  0  0  0  0  0  0  0  0
   -8.4880    3.9570  -11.2470 C   0  0  0  0  0  0  0  0  0  0  0  0
   -8.7310    2.7520  -10.5930 C   0  0  0  0  0  0  0  0  0  0  0  0
   -8.7680    2.7060   -9.1980 C   0  0  0  0  0  0  0  0  0  0  0  0
   -9.0410    1.5410   -8.2940 C   0  0  0  0  0  0  0  0  0  0  0  0
   -8.7970    2.1090   -6.9550 N   0  0  0  0  0  0  0  0  0  0  0  0
   -8.6340    3.5700   -6.9870 C   0  0  0  0  0  0  0  0  0  0  0  0
   -8.5770    3.8670   -8.4570 C   0  0  0  0  0  0  0  0  0  0  0  0
   -8.3520    5.0740   -9.1120 C   0  0  0  0  0  0  0  0  0  0  0  0
   -8.3020    5.1180  -10.4990 C   0  0  0  0  0  0  0  0  0  0  0  0
 13 12  3  0
 12 11  1  0
 11 10  2  0
 10  9  1  0
  9  8  1  0
  8  4  2  0
  4  3  1  0
  3  2  1  0
  2  1  2  0
 14  2  1  0
 15 14  1  0
 15 23  2  0
 23 22  1  0
 22 21  2  0
 21 17  1  0
 17 16  2  0
 16 15  1  0
 18 17  1  0
 19 18  1  0
 20 19  1  0
 21 20  1  0
  5  3  2  0
  6  5  1  0
  7  6  2  0
 11  7  1  0
  8  7  1  0
M  END
$$$$
