XX01ZVNS2B-x5124_B_203_6_XX01ZVNS2B-x4590+B+203+1__LIG
     RDKit          3D

 28 32  0  0  0  0  0  0  0  0999 V2000
  -10.2470    3.9060  -18.0800 Cl  0  0  0  0  0  0  0  0  0  0  0  0
   -8.7530    4.2410  -17.2370 C   0  0  0  0  0  0  0  0  0  0  0  0
   -8.7420    4.2450  -15.8440 C   0  0  0  0  0  0  0  0  0  0  0  0
   -7.6150    4.4920  -17.9830 C   0  0  0  0  0  0  0  0  0  0  0  0
   -6.4430    4.7550  -17.2860 C   0  0  0  0  0  0  0  0  0  0  0  0
   -5.1900    5.0600  -17.7360 N   0  0  0  0  0  0  0  0  0  0  0  0
   -4.7730    5.2760  -19.1280 C   0  0  2  0  0  0  0  0  0  0  0  0
   -3.3950    4.6890  -19.3710 C   0  0  0  0  0  0  0  0  0  0  0  0
   -2.9800    4.8550  -20.7700 N   0  0  0  0  0  0  0  0  0  0  0  0
   -2.9770    6.2870  -21.1760 C   0  0  0  0  0  0  0  0  0  0  0  0
   -4.3440    6.9360  -20.9770 C   0  0  0  0  0  0  0  0  0  0  0  0
   -4.8230    6.7490  -19.5300 C   0  0  0  0  0  0  0  0  0  0  0  0
   -4.3170    5.2400  -16.6980 N   0  0  0  0  0  0  0  0  0  0  0  0
   -5.0170    5.0660  -15.5940 C   0  0  0  0  0  0  0  0  0  0  0  0
   -6.3730    4.7630  -15.8820 C   0  0  0  0  0  0  0  0  0  0  0  0
   -7.5530    4.5150  -15.1510 C   0  0  0  0  0  0  0  0  0  0  0  0
   -7.5190    4.6740  -13.6520 C   0  0  0  0  0  0  0  0  0  0  0  0
   -6.6530    5.3740  -13.1270 O   0  0  0  0  0  0  0  0  0  0  0  0
   -8.4410    3.9830  -12.9200 N   0  0  0  0  0  0  0  0  0  0  0  0
   -8.5310    3.9700  -11.4920 C   0  0  0  0  0  0  0  0  0  0  0  0
   -8.7440    2.7950  -10.7730 C   0  0  0  0  0  0  0  0  0  0  0  0
   -8.8090    2.8200   -9.3790 C   0  0  0  0  0  0  0  0  0  0  0  0
   -9.1500    1.7280   -8.4070 C   0  0  0  0  0  0  0  0  0  0  0  0
   -8.8730    2.3540   -7.1030 N   0  0  0  0  0  0  0  0  0  0  0  0
   -8.7250    3.8040   -7.2170 C   0  0  0  0  0  0  0  0  0  0  0  0
   -8.6260    4.0190   -8.7000 C   0  0  0  0  0  0  0  0  0  0  0  0
   -8.3950    5.1890   -9.4130 C   0  0  0  0  0  0  0  0  0  0  0  0
   -8.3610    5.1700  -10.8000 C   0  0  0  0  0  0  0  0  0  0  0  0
 18 17  2  0
 19 17  1  0
 20 19  1  0
 20 28  2  0
 28 27  1  0
 27 26  2  0
 26 22  1  0
 22 21  2  0
 21 20  1  0
 23 22  1  0
 24 23  1  0
 25 24  1  0
 26 25  1  0
 17 16  1  0
 16  3  1  0
  3  2  2  0
  2  1  1  0
  4  2  1  0
  5  4  2  0
  5 15  1  0
 16 15  2  0
 15 14  1  0
 14 13  2  0
 13  6  1  0
  6  5  1  0
  7  6  1  1
  7 12  1  0
 12 11  1  0
 11 10  1  0
 10  9  1  0
  9  8  1  0
  8  7  1  0
M  END
$$$$
