A71EV2A-x4670_A_201_3_A71EV2A-x0911+A+147+1__LIG
     RDKit          3D

 21 22  0  0  0  0  0  0  0  0999 V2000
   10.3980   16.5810   18.9060 O   0  0  0  0  0  0  0  0  0  0  0  0
   10.8270   15.4650   19.2000 C   0  0  0  0  0  0  0  0  0  0  0  0
   11.2590   14.6010   18.2960 N   0  0  0  0  0  0  0  0  0  0  0  0
   10.8780   15.0010   20.6450 C   0  0  1  0  0  0  0  0  0  0  0  0
   11.9200   15.7960   21.4440 C   0  0  0  0  0  0  0  0  0  0  0  0
   11.9190   15.3980   22.9200 C   0  0  0  0  0  0  0  0  0  0  0  0
   10.5270   15.5370   23.5150 C   0  0  0  0  0  0  0  0  0  0  0  0
    9.5060   15.2130   21.2910 C   0  0  0  0  0  0  0  0  0  0  0  0
    9.5330   14.8170   22.7020 N   0  0  0  0  0  0  0  0  0  0  0  0
    8.6740   13.8930   23.1790 C   0  0  0  0  0  0  0  0  0  0  0  0
    7.7450   13.4650   22.5120 O   0  0  0  0  0  0  0  0  0  0  0  0
    8.9090   13.4210   24.6020 C   0  0  0  0  0  0  0  0  0  0  0  0
    7.8410   12.4740   25.1090 C   0  0  0  0  0  0  0  0  0  0  0  0
    6.7980   12.9130   25.9340 C   0  0  0  0  0  0  0  0  0  0  0  0
    6.6550   14.6300   26.3220 S   0  0  0  0  0  0  0  0  0  0  0  0
    7.4420   14.7550   27.9280 C   0  0  0  0  0  0  0  0  0  0  0  0
    7.9010   11.1110   24.8180 C   0  0  0  0  0  0  0  0  0  0  0  0
    9.3030   10.4270   23.7350 Br  0  0  0  0  0  0  0  0  0  0  0  0
    6.9790   10.2100   25.3170 C   0  0  0  0  0  0  0  0  0  0  0  0
    5.9750   10.6620   26.1500 C   0  0  0  0  0  0  0  0  0  0  0  0
    5.8760   12.0060   26.4570 C   0  0  0  0  0  0  0  0  0  0  0  0
 16 15  1  0
 15 14  1  0
 14 21  2  0
 21 20  1  0
 20 19  2  0
 19 17  1  0
 18 17  1  0
 17 13  2  0
 14 13  1  0
 13 12  1  0
 12 10  1  0
 11 10  2  0
 10  9  1  0
  9  7  1  0
  7  6  1  0
  6  5  1  0
  5  4  1  0
  4  2  1  6
  3  2  1  0
  2  1  2  0
  8  4  1  0
  9  8  1  0
M  END
$$$$
