A71EV2A-x5200_A_201_3_A71EV2A-x0911+A+147+1__LIG
     RDKit          3D

 21 22  0  0  0  0  0  0  0  0999 V2000
   10.2110   16.7660   19.1420 O   0  0  0  0  0  0  0  0  0  0  0  0
   10.4940   15.5930   19.4130 C   0  0  0  0  0  0  0  0  0  0  0  0
   11.0950   14.7840   18.5590 N   0  0  0  0  0  0  0  0  0  0  0  0
   10.2750   15.0320   20.8080 C   0  0  1  0  0  0  0  0  0  0  0  0
   11.5210   15.3280   21.6560 C   0  0  0  0  0  0  0  0  0  0  0  0
   11.3160   14.7000   23.0360 C   0  0  1  0  0  0  0  0  0  0  0  0
   12.6000   14.6800   23.8520 C   0  0  0  0  0  0  0  0  0  0  0  0
   10.1680   15.4220   23.7400 C   0  0  0  0  0  0  0  0  0  0  0  0
    9.0020   15.4500   21.5730 C   0  0  0  0  0  0  0  0  0  0  0  0
    9.0380   14.9260   22.9460 N   0  0  0  0  0  0  0  0  0  0  0  0
    8.2430   13.8990   23.3550 C   0  0  0  0  0  0  0  0  0  0  0  0
    7.4590   13.3430   22.6040 O   0  0  0  0  0  0  0  0  0  0  0  0
    8.4300   13.4070   24.7800 C   0  0  0  0  0  0  0  0  0  0  0  0
    7.6450   12.1500   25.0780 C   0  0  0  0  0  0  0  0  0  0  0  0
    8.0110   10.8820   24.5940 C   0  0  0  0  0  0  0  0  0  0  0  0
    9.3550   10.7520   23.4420 S   0  0  0  0  0  0  0  0  0  0  0  0
    9.5590    8.9890   23.2050 C   0  0  0  0  0  0  0  0  0  0  0  0
    6.5740   12.2370   25.9730 C   0  0  0  0  0  0  0  0  0  0  0  0
    5.9030   11.1080   26.4020 C   0  0  0  0  0  0  0  0  0  0  0  0
    6.2720    9.8690   25.9300 C   0  0  0  0  0  0  0  0  0  0  0  0
    7.3180    9.7490   25.0270 C   0  0  0  0  0  0  0  0  0  0  0  0
 17 16  1  0
 16 15  1  0
 15 21  2  0
 21 20  1  0
 20 19  2  0
 19 18  1  0
 18 14  2  0
 15 14  1  0
 14 13  1  0
 13 11  1  0
 12 11  2  0
 11 10  1  0
 10  8  1  0
  8  6  1  0
  6  7  1  1
  6  5  1  0
  5  4  1  0
  4  2  1  6
  3  2  1  0
  2  1  2  0
  9  4  1  0
 10  9  1  0
M  END
$$$$
