A71EV2A-x4365_A_201_1_A71EV2A-x0911+A+147+1__LIG
     RDKit          3D

 22 24  0  0  0  0  0  0  0  0999 V2000
    7.8720   13.5680   22.6130 O   0  0  0  0  0  0  0  0  0  0  0  0
    8.8350   13.9310   23.2800 C   0  0  0  0  0  0  0  0  0  0  0  0
    9.5760   15.0080   22.9590 N   0  0  0  0  0  0  0  0  0  0  0  0
   10.7350   15.4950   23.7200 C   0  0  0  0  0  0  0  0  0  0  0  0
   12.0220   15.2160   22.9450 C   0  0  0  0  0  0  0  0  0  0  0  0
   11.9180   15.7360   21.5090 C   0  0  0  0  0  0  0  0  0  0  0  0
    9.4380   15.6050   21.6300 C   0  0  0  0  0  0  0  0  0  0  0  0
   10.6580   15.1860   20.8110 C   0  0  1  0  0  0  0  0  0  0  0  0
   10.5700   15.6290   19.3620 C   0  0  0  0  0  0  0  0  0  0  0  0
   10.3070   16.7960   19.0680 O   0  0  0  0  0  0  0  0  0  0  0  0
   10.7870   14.6860   18.4560 N   0  0  0  0  0  0  0  0  0  0  0  0
    9.3380   13.1320   24.4640 C   0  0  0  0  0  0  0  0  0  0  0  0
    8.5330   11.8690   24.6110 C   0  0  0  0  0  0  0  0  0  0  0  0
    7.3910   11.8490   25.4050 C   0  0  0  0  0  0  0  0  0  0  0  0
    6.9550   13.0550   25.8950 O   0  0  0  0  0  0  0  0  0  0  0  0
    6.0900   12.9860   27.0570 C   0  0  0  0  0  0  0  0  0  0  0  0
    5.0750   11.8960   26.9180 C   0  0  0  0  0  0  0  0  0  0  0  0
    5.6050   10.6180   26.4650 O   0  0  0  0  0  0  0  0  0  0  0  0
    6.6920   10.6680   25.6270 C   0  0  0  0  0  0  0  0  0  0  0  0
    7.1150    9.4960   25.0220 C   0  0  0  0  0  0  0  0  0  0  0  0
    8.2360    9.5100   24.2090 C   0  0  0  0  0  0  0  0  0  0  0  0
    8.9410   10.6840   24.0030 C   0  0  0  0  0  0  0  0  0  0  0  0
 11  9  1  0
 10  9  2  0
  8  9  1  6
  8  6  1  0
  6  5  1  0
  5  4  1  0
  4  3  1  0
  3  2  1  0
  2  1  2  0
 12  2  1  0
 13 12  1  0
 13 22  1  0
 22 21  2  0
 21 20  1  0
 20 19  2  0
 19 14  1  0
 14 13  2  0
 15 14  1  0
 16 15  1  0
 17 16  1  0
 18 17  1  0
 19 18  1  0
  7  3  1  0
  8  7  1  0
M  END
$$$$
