XX01ZVNS2B-x0884_B_301_1_XX01ZVNS2B-x4590+B+203+1__LIG
     RDKit          3D

 14 14  0  0  0  0  0  0  0  0999 V2000
   -3.5470    6.6240  -14.9470 O   0  0  0  0  0  0  0  0  0  0  0  0
   -4.3510    6.4990  -15.8750 C   0  0  0  0  0  0  0  0  0  0  0  0
   -5.0900    7.4960  -16.3400 N   0  0  0  0  0  0  0  0  0  0  0  0
   -4.4980    5.1360  -16.5500 C   0  0  2  0  0  0  0  0  0  0  0  0
   -3.1700    4.6890  -17.1190 C   0  0  0  0  0  0  0  0  0  0  0  0
   -5.4000    5.2330  -17.6530 O   0  0  0  0  0  0  0  0  0  0  0  0
   -6.6960    4.8050  -17.4890 C   0  0  0  0  0  0  0  0  0  0  0  0
   -7.3500    4.4310  -18.6710 C   0  0  0  0  0  0  0  0  0  0  0  0
   -6.6190    4.3710  -19.9110 C   0  0  0  0  0  0  0  0  0  0  0  0
   -6.0720    4.3130  -20.9140 N   0  0  0  0  0  0  0  0  0  0  0  0
   -8.7020    4.0910  -18.6270 C   0  0  0  0  0  0  0  0  0  0  0  0
   -9.3750    4.0810  -17.4210 C   0  0  0  0  0  0  0  0  0  0  0  0
   -8.7190    4.4180  -16.2570 C   0  0  0  0  0  0  0  0  0  0  0  0
   -7.3850    4.7890  -16.2840 C   0  0  0  0  0  0  0  0  0  0  0  0
  4  5  1  6
  6  4  1  0
  7  6  1  0
  7 14  2  0
 14 13  1  0
 13 12  2  0
 12 11  1  0
 11  8  2  0
  8  7  1  0
  9  8  1  0
 10  9  3  0
  4  2  1  0
  2  1  2  0
  3  2  1  0
M  END
$$$$
