XX01ZVNS2B-x4025_B_203_1_XX01ZVNS2B-x4590+B+203+1__LIG
     RDKit          3D

 25 28  0  0  0  0  0  0  0  0999 V2000
   -6.8960    5.6760  -14.1020 O   0  0  0  0  0  0  0  0  0  0  0  0
   -7.6930    4.8330  -14.4970 C   0  0  0  0  0  0  0  0  0  0  0  0
   -7.9170    4.5910  -15.9650 C   0  0  0  0  0  0  0  0  0  0  0  0
   -6.9200    4.8310  -16.9260 C   0  0  0  0  0  0  0  0  0  0  0  0
   -5.4900    5.2600  -16.7990 C   0  0  0  0  0  0  0  0  0  0  0  0
   -9.1530    4.1070  -16.3930 C   0  0  0  0  0  0  0  0  0  0  0  0
   -9.3950    3.8680  -17.7390 C   0  0  0  0  0  0  0  0  0  0  0  0
   -8.4110    4.0970  -18.6900 C   0  0  0  0  0  0  0  0  0  0  0  0
   -7.1790    4.5860  -18.2690 C   0  0  0  0  0  0  0  0  0  0  0  0
   -6.0310    4.8490  -19.0170 N   0  0  0  0  0  0  0  0  0  0  0  0
   -4.9830    5.1960  -18.2240 C   0  0  0  0  0  0  0  0  0  0  0  0
   -3.8220    5.3480  -18.6020 O   0  0  0  0  0  0  0  0  0  0  0  0
   -8.4370    4.0720  -13.6240 N   0  0  0  0  0  0  0  0  0  0  0  0
   -8.3760    4.1430  -12.2200 C   0  0  0  0  0  0  0  0  0  0  0  0
   -8.0520    5.1920  -11.3960 C   0  0  0  0  0  0  0  0  0  0  0  0
   -8.1540    4.7310  -10.1370 N   0  0  0  0  0  0  0  0  0  0  0  0
   -8.5380    3.4310  -10.0910 N   0  0  0  0  0  0  0  0  0  0  0  0
   -8.6660    3.0810  -11.3600 C   0  0  0  0  0  0  0  0  0  0  0  0
   -7.8870    5.4520   -8.8830 C   0  0  0  0  0  0  0  0  0  0  0  0
   -6.4710    5.2690   -8.3820 C   0  0  0  0  0  0  0  0  0  0  0  0
   -5.6170    4.3440   -8.9540 C   0  0  0  0  0  0  0  0  0  0  0  0
   -4.3330    4.2140   -8.4600 C   0  0  0  0  0  0  0  0  0  0  0  0
   -3.8530    4.9370   -7.4430 N   0  0  0  0  0  0  0  0  0  0  0  0
   -4.6870    5.8290   -6.8970 C   0  0  0  0  0  0  0  0  0  0  0  0
   -5.9850    6.0230   -7.3260 C   0  0  0  0  0  0  0  0  0  0  0  0
 12 11  2  0
 11  5  1  0
  5  4  1  0
  4  9  2  0
  9  8  1  0
  8  7  2  0
  7  6  1  0
  6  3  2  0
  4  3  1  0
  3  2  1  0
  2  1  2  0
 13  2  1  0
 14 13  1  0
 14 18  1  0
 18 17  2  0
 17 16  1  0
 19 16  1  0
 20 19  1  0
 20 25  2  0
 25 24  1  0
 24 23  2  0
 23 22  1  0
 22 21  2  0
 21 20  1  0
 16 15  1  0
 15 14  2  0
 10  9  1  0
 11 10  1  0
M  END
$$$$
