XX01ZVNS2B-x3677_B_203_1_XX01ZVNS2B-x4590+B+203+1__LIG
     RDKit          3D

 22 25  0  0  0  0  0  0  0  0999 V2000
   -6.6760    5.4760  -13.3230 O   0  0  0  0  0  0  0  0  0  0  0  0
   -7.4490    4.6330  -13.7660 C   0  0  0  0  0  0  0  0  0  0  0  0
   -7.5860    4.4200  -15.2410 C   0  0  0  0  0  0  0  0  0  0  0  0
   -6.5230    4.7070  -16.0990 C   0  0  0  0  0  0  0  0  0  0  0  0
   -8.8050    3.9970  -15.7870 C   0  0  0  0  0  0  0  0  0  0  0  0
   -8.9710    3.8670  -17.1590 C   0  0  0  0  0  0  0  0  0  0  0  0
   -7.8870    4.1310  -17.9900 C   0  0  0  0  0  0  0  0  0  0  0  0
   -6.6690    4.5610  -17.4750 C   0  0  0  0  0  0  0  0  0  0  0  0
   -5.7210    4.7590  -18.6220 C   0  0  0  0  0  0  0  0  0  0  0  0
   -7.7670    3.9570  -19.3730 N   0  0  0  0  0  0  0  0  0  0  0  0
   -6.5220    4.2820  -19.8150 C   0  0  0  0  0  0  0  0  0  0  0  0
   -6.1220    4.1650  -20.9770 O   0  0  0  0  0  0  0  0  0  0  0  0
   -8.2690    3.8850  -12.9760 N   0  0  0  0  0  0  0  0  0  0  0  0
   -8.4190    3.9490  -11.5640 C   0  0  0  0  0  0  0  0  0  0  0  0
   -8.6720    2.7870  -10.8330 C   0  0  0  0  0  0  0  0  0  0  0  0
   -8.7520    2.8380   -9.4420 C   0  0  0  0  0  0  0  0  0  0  0  0
   -9.0670    1.7450   -8.4630 C   0  0  0  0  0  0  0  0  0  0  0  0
   -8.7330    2.3870   -7.1900 N   0  0  0  0  0  0  0  0  0  0  0  0
   -8.6300    3.8390   -7.2920 C   0  0  0  0  0  0  0  0  0  0  0  0
   -8.5640    4.0420   -8.7770 C   0  0  0  0  0  0  0  0  0  0  0  0
   -8.3360    5.2040   -9.5090 C   0  0  0  0  0  0  0  0  0  0  0  0
   -8.2730    5.1610  -10.8920 C   0  0  0  0  0  0  0  0  0  0  0  0
 12 11  2  0
 11  9  1  0
  9  8  1  0
  8  4  2  0
  4  3  1  0
  3  2  1  0
  2  1  2  0
 13  2  1  0
 14 13  1  0
 14 22  2  0
 22 21  1  0
 21 20  2  0
 20 16  1  0
 16 15  2  0
 15 14  1  0
 17 16  1  0
 18 17  1  0
 19 18  1  0
 20 19  1  0
  5  3  2  0
  6  5  1  0
  7  6  2  0
  8  7  1  0
 10  7  1  0
 11 10  1  0
M  END
$$$$
