A71EV2A-x5079_C_201_2_A71EV2A-x0911+A+147+1__LIG
     RDKit          3D

 19 20  0  0  0  0  0  0  0  0999 V2000
    9.5240   10.0260   23.5290 Cl  0  0  0  0  0  0  0  0  0  0  0  0
    8.2610   10.4730   24.6380 C   0  0  0  0  0  0  0  0  0  0  0  0
    7.4220    9.5160   24.9960 N   0  0  0  0  0  0  0  0  0  0  0  0
    6.4930    9.8440   25.9110 C   0  0  0  0  0  0  0  0  0  0  0  0
    6.3720   11.1070   26.4570 C   0  0  0  0  0  0  0  0  0  0  0  0
    7.2540   12.1000   26.0450 C   0  0  0  0  0  0  0  0  0  0  0  0
    8.2460   11.8090   25.1110 C   0  0  0  0  0  0  0  0  0  0  0  0
    9.2660   12.8580   24.7210 C   0  0  0  0  0  0  0  0  0  0  0  0
    8.9360   13.5250   23.3990 C   0  0  0  0  0  0  0  0  0  0  0  0
    7.9960   13.1310   22.7120 O   0  0  0  0  0  0  0  0  0  0  0  0
    9.7290   14.5580   23.0150 N   0  0  0  0  0  0  0  0  0  0  0  0
   10.7730   15.2120   23.8250 C   0  0  0  0  0  0  0  0  0  0  0  0
   12.1260   15.1170   23.1140 C   0  0  0  0  0  0  0  0  0  0  0  0
   12.0330   15.6500   21.6710 C   0  0  0  0  0  0  0  0  0  0  0  0
    9.6020   15.1160   21.6640 C   0  0  0  0  0  0  0  0  0  0  0  0
   10.9130   14.9300   20.8880 C   0  0  1  0  0  0  0  0  0  0  0  0
   10.7990   15.4680   19.4710 C   0  0  0  0  0  0  0  0  0  0  0  0
   10.4040   16.6250   19.2560 O   0  0  0  0  0  0  0  0  0  0  0  0
   11.0940   14.6030   18.4980 N   0  0  0  0  0  0  0  0  0  0  0  0
 19 17  1  0
 18 17  2  0
 16 17  1  6
 16 14  1  0
 14 13  1  0
 13 12  1  0
 12 11  1  0
 11  9  1  0
 10  9  2  0
  9  8  1  0
  8  7  1  0
  7  6  2  0
  6  5  1  0
  5  4  2  0
  4  3  1  0
  3  2  2  0
  7  2  1  0
  2  1  1  0
 15 11  1  0
 16 15  1  0
M  END
$$$$
