A71EV2A-x4207_C_201_1_A71EV2A-x0911+A+147+1__LIG
     RDKit          3D

 24 25  0  0  0  0  0  0  0  0999 V2000
   10.2760   16.6760   19.3340 O   0  0  0  0  0  0  0  0  0  0  0  0
   10.6960   15.5260   19.5310 C   0  0  0  0  0  0  0  0  0  0  0  0
   10.8900   14.6500   18.5520 N   0  0  0  0  0  0  0  0  0  0  0  0
   11.0170   15.0370   20.9350 C   0  0  1  0  0  0  0  0  0  0  0  0
   12.2150   15.8120   21.5230 C   0  0  0  0  0  0  0  0  0  0  0  0
   12.4400   15.4790   22.9970 C   0  0  0  0  0  0  0  0  0  0  0  0
   11.1720   15.7160   23.7920 C   0  0  0  0  0  0  0  0  0  0  0  0
    9.7690   15.2370   21.8090 C   0  0  0  0  0  0  0  0  0  0  0  0
   10.0590   14.9450   23.2190 N   0  0  0  0  0  0  0  0  0  0  0  0
    9.3890   14.0620   23.9910 C   0  0  0  0  0  0  0  0  0  0  0  0
    9.7930   13.7430   25.1070 O   0  0  0  0  0  0  0  0  0  0  0  0
    8.0730   13.4530   23.4470 C   0  0  2  0  0  0  0  0  0  0  0  0
    7.0900   14.5180   23.2790 N   0  0  0  0  0  0  0  0  0  0  0  0
    6.1830   14.5300   22.2810 C   0  0  0  0  0  0  0  0  0  0  0  0
    6.1440   13.6490   21.4190 O   0  0  0  0  0  0  0  0  0  0  0  0
    5.2260   15.6780   22.2820 C   0  0  0  0  0  0  0  0  0  0  0  0
    7.5720   12.4160   24.4440 C   0  0  0  0  0  0  0  0  0  0  0  0
    7.9600   11.0850   24.3170 C   0  0  0  0  0  0  0  0  0  0  0  0
    8.8940   10.8430   23.3420 O   0  0  0  0  0  0  0  0  0  0  0  0
    9.4120    9.5120   23.2260 C   0  0  0  0  0  0  0  0  0  0  0  0
    6.6830   12.7480   25.4650 C   0  0  0  0  0  0  0  0  0  0  0  0
    6.1730   11.7780   26.3140 C   0  0  0  0  0  0  0  0  0  0  0  0
    6.5400   10.4640   26.1550 C   0  0  0  0  0  0  0  0  0  0  0  0
    7.4370   10.1070   25.1580 C   0  0  0  0  0  0  0  0  0  0  0  0
 20 19  1  0
 19 18  1  0
 18 24  2  0
 24 23  1  0
 23 22  2  0
 22 21  1  0
 21 17  2  0
 18 17  1  0
 17 12  1  0
 12 13  1  1
 14 13  1  0
 16 14  1  0
 15 14  2  0
 12 10  1  0
 11 10  2  0
 10  9  1  0
  9  7  1  0
  7  6  1  0
  6  5  1  0
  5  4  1  0
  4  2  1  6
  3  2  1  0
  2  1  2  0
  8  4  1  0
  9  8  1  0
M  END
$$$$
