A71EV2A-x4882_C_201_1_A71EV2A-x0911+A+147+1__LIG
     RDKit          3D

 21 22  0  0  0  0  0  0  0  0999 V2000
    9.6660   10.1310   23.7530 Br  0  0  0  0  0  0  0  0  0  0  0  0
    8.2330   10.7740   24.8170 C   0  0  0  0  0  0  0  0  0  0  0  0
    7.3040    9.8460   25.2560 C   0  0  0  0  0  0  0  0  0  0  0  0
    6.2660   10.2840   26.0320 C   0  0  0  0  0  0  0  0  0  0  0  0
    5.2400    9.4510   26.3280 F   0  0  0  0  0  0  0  0  0  0  0  0
    6.1730   11.5820   26.4030 C   0  0  0  0  0  0  0  0  0  0  0  0
    5.0910   11.9740   27.1130 F   0  0  0  0  0  0  0  0  0  0  0  0
    7.1010   12.5080   25.9860 C   0  0  0  0  0  0  0  0  0  0  0  0
    8.1550   12.1220   25.1580 C   0  0  0  0  0  0  0  0  0  0  0  0
    9.1820   13.1560   24.7410 C   0  0  0  0  0  0  0  0  0  0  0  0
    8.8950   13.7380   23.3700 C   0  0  0  0  0  0  0  0  0  0  0  0
    7.9750   13.3140   22.6760 O   0  0  0  0  0  0  0  0  0  0  0  0
    9.7240   14.7260   22.9480 N   0  0  0  0  0  0  0  0  0  0  0  0
   10.7820   15.3710   23.7470 C   0  0  0  0  0  0  0  0  0  0  0  0
   12.1360   15.2370   23.0520 C   0  0  0  0  0  0  0  0  0  0  0  0
   12.0540   15.7570   21.6140 C   0  0  0  0  0  0  0  0  0  0  0  0
    9.6090   15.2310   21.5780 C   0  0  0  0  0  0  0  0  0  0  0  0
   10.9370   15.0210   20.8400 C   0  0  1  0  0  0  0  0  0  0  0  0
   10.7970   15.5510   19.4230 C   0  0  0  0  0  0  0  0  0  0  0  0
   10.4190   16.7150   19.2140 O   0  0  0  0  0  0  0  0  0  0  0  0
   11.0200   14.6670   18.4590 N   0  0  0  0  0  0  0  0  0  0  0  0
 21 19  1  0
 20 19  2  0
 18 19  1  6
 18 16  1  0
 16 15  1  0
 15 14  1  0
 14 13  1  0
 13 11  1  0
 12 11  2  0
 11 10  1  0
 10  9  1  0
  9  8  2  0
  8  6  1  0
  7  6  1  0
  6  4  2  0
  5  4  1  0
  4  3  1  0
  3  2  2  0
  9  2  1  0
  2  1  1  0
 17 13  1  0
 18 17  1  0
M  END
$$$$
