A71EV2A-x2293_E_201_1_A71EV2A-x0911+A+147+1__LIG
     RDKit          3D

 24 27  0  0  0  0  0  0  0  0999 V2000
   10.3290   14.5820   23.3500 O   0  0  0  0  0  0  0  0  0  0  0  0
   10.7010   13.5310   22.8360 C   0  0  0  0  0  0  0  0  0  0  0  0
   10.0260   12.2380   23.1870 C   0  0  0  0  0  0  0  0  0  0  0  0
   10.3760   11.0940   22.6150 N   0  0  0  0  0  0  0  0  0  0  0  0
    9.0290   12.0210   24.1840 C   0  0  0  0  0  0  0  0  0  0  0  0
    8.7680   10.6440   24.1480 C   0  0  0  0  0  0  0  0  0  0  0  0
    7.8150   10.0500   24.9630 C   0  0  0  0  0  0  0  0  0  0  0  0
    7.1280   10.8830   25.8430 C   0  0  0  0  0  0  0  0  0  0  0  0
    7.3870   12.2410   25.8920 C   0  0  0  0  0  0  0  0  0  0  0  0
    8.3430   12.8280   25.0830 C   0  0  0  0  0  0  0  0  0  0  0  0
    9.6150   10.1230   23.2150 N   0  0  0  0  0  0  0  0  0  0  0  0
    9.8690    8.7200   22.9110 C   0  0  0  0  0  0  0  0  0  0  0  0
   11.7210   13.4440   21.9840 N   0  0  0  0  0  0  0  0  0  0  0  0
   12.4830   14.6440   21.5960 C   0  0  0  0  0  0  0  0  0  0  0  0
   12.5950   14.7620   20.0630 C   0  0  1  0  0  0  0  0  0  0  0  0
   11.2680   14.6390   19.4510 N   0  0  0  0  0  0  0  0  0  0  0  0
   10.3470   15.7240   19.7600 C   0  0  0  0  0  0  0  0  0  0  0  0
   10.9750   17.0910   19.6580 C   0  0  0  0  0  0  0  0  0  0  0  0
   12.3730   17.2490   19.6600 C   0  0  0  0  0  0  0  0  0  0  0  0
   13.2890   16.0450   19.6200 C   0  0  0  0  0  0  0  0  0  0  0  0
   10.1580   18.2150   19.5290 C   0  0  0  0  0  0  0  0  0  0  0  0
   10.7060   19.4810   19.4090 C   0  0  0  0  0  0  0  0  0  0  0  0
   12.0750   19.6410   19.4360 C   0  0  0  0  0  0  0  0  0  0  0  0
   12.9070   18.5360   19.5610 C   0  0  0  0  0  0  0  0  0  0  0  0
 12 11  1  0
 11  4  1  0
  4  3  2  0
  3  2  1  0
  2  1  2  0
 13  2  1  0
 14 13  1  0
 15 14  1  1
 15 20  1  0
 20 19  1  0
 19 24  2  0
 24 23  1  0
 23 22  2  0
 22 21  1  0
 21 18  2  0
 19 18  1  0
 18 17  1  0
 17 16  1  0
 16 15  1  0
  5  3  1  0
  5 10  2  0
 10  9  1  0
  9  8  2  0
  8  7  1  0
  7  6  2  0
  6  5  1  0
 11  6  1  0
M  END
$$$$
