A71EV2A-x3571_C_201_1_A71EV2A-x0911+A+147+1__LIG
     RDKit          3D

 21 22  0  0  0  0  0  0  0  0999 V2000
   10.3140   16.6590   19.2440 O   0  0  0  0  0  0  0  0  0  0  0  0
   10.6940   15.5010   19.5050 C   0  0  0  0  0  0  0  0  0  0  0  0
   10.9670   14.5880   18.5690 N   0  0  0  0  0  0  0  0  0  0  0  0
   10.7900   15.0170   20.9410 C   0  0  1  0  0  0  0  0  0  0  0  0
   12.0130   15.6310   21.6400 C   0  0  0  0  0  0  0  0  0  0  0  0
   12.3480   15.0290   23.0160 C   0  0  0  0  0  0  0  0  0  0  0  0
   11.5470   15.4870   24.2290 C   0  0  0  0  0  0  0  0  0  0  0  0
   10.0840   15.7520   24.0380 C   0  0  0  0  0  0  0  0  0  0  0  0
    9.4840   15.3230   21.6530 C   0  0  0  0  0  0  0  0  0  0  0  0
    9.4470   14.8770   23.0460 N   0  0  0  0  0  0  0  0  0  0  0  0
    8.7690   13.7430   23.3470 C   0  0  0  0  0  0  0  0  0  0  0  0
    7.9720   13.2320   22.5720 O   0  0  0  0  0  0  0  0  0  0  0  0
    9.0110   13.1600   24.7270 C   0  0  0  0  0  0  0  0  0  0  0  0
    8.0440   12.0420   25.0640 C   0  0  0  0  0  0  0  0  0  0  0  0
    8.2860   10.7470   24.6130 C   0  0  0  0  0  0  0  0  0  0  0  0
    9.3650   10.6160   23.7800 O   0  0  0  0  0  0  0  0  0  0  0  0
    9.6710    9.3150   23.3030 C   0  0  0  0  0  0  0  0  0  0  0  0
    7.0070   12.2340   25.9800 C   0  0  0  0  0  0  0  0  0  0  0  0
    6.2410   11.1720   26.4270 C   0  0  0  0  0  0  0  0  0  0  0  0
    6.4880    9.9050   25.9710 C   0  0  0  0  0  0  0  0  0  0  0  0
    7.5090    9.6810   25.0530 C   0  0  0  0  0  0  0  0  0  0  0  0
 17 16  1  0
 16 15  1  0
 15 21  2  0
 21 20  1  0
 20 19  2  0
 19 18  1  0
 18 14  2  0
 15 14  1  0
 14 13  1  0
 13 11  1  0
 12 11  2  0
 11 10  1  0
 10  8  1  0
  8  7  1  0
  7  6  1  0
  6  5  1  0
  5  4  1  0
  4  2  1  6
  3  2  1  0
  2  1  2  0
  9  4  1  0
 10  9  1  0
M  END
$$$$
