XX01ZVNS2B-x0465_B_301_1_XX01ZVNS2B-x4590+B+203+1__LIG
     RDKit          3D

 13 14  0  0  0  0  0  0  0  0999 V2000
  -10.9440    4.9080  -17.8100 O   0  0  0  0  0  0  0  0  0  0  0  0
   -9.7400    5.0350  -17.7770 C   0  0  0  0  0  0  0  0  0  0  0  0
   -8.9760    5.0780  -16.4810 C   0  0  0  0  0  0  0  0  0  0  0  0
   -7.6250    4.3760  -16.5860 C   0  0  0  0  0  0  0  0  0  0  0  0
   -6.8750    4.8060  -17.7770 N   0  0  0  0  0  0  0  0  0  0  0  0
   -7.6310    4.4960  -18.9940 C   0  0  0  0  0  0  0  0  0  0  0  0
   -8.9400    5.2640  -19.0250 C   0  0  0  0  0  0  0  0  0  0  0  0
   -5.4820    4.8120  -17.7870 C   0  0  0  0  0  0  0  0  0  0  0  0
   -4.8890    4.8640  -19.0030 N   0  0  0  0  0  0  0  0  0  0  0  0
   -3.5440    4.8480  -19.0370 C   0  0  0  0  0  0  0  0  0  0  0  0
   -2.7440    4.7840  -17.9070 C   0  0  0  0  0  0  0  0  0  0  0  0
   -3.3610    4.7320  -16.6710 C   0  0  0  0  0  0  0  0  0  0  0  0
   -4.7470    4.7500  -16.5810 C   0  0  0  0  0  0  0  0  0  0  0  0
  2  1  2  0
  2  7  1  0
  7  6  1  0
  6  5  1  0
  5  4  1  0
  4  3  1  0
  3  2  1  0
  8  5  1  0
  8 13  2  0
 13 12  1  0
 12 11  2  0
 11 10  1  0
 10  9  2  0
  9  8  1  0
M  END
$$$$
