XX01ZVNS2B-x0182_B_401_1_XX01ZVNS2B-x4590+B+203+1__LIG
     RDKit          3D

 16 17  0  0  0  0  0  0  0  0999 V2000
  -10.5270    4.1060  -17.8370 F   0  0  0  0  0  0  0  0  0  0  0  0
   -9.2240    4.4290  -17.6110 C   0  0  0  0  0  0  0  0  0  0  0  0
   -8.8210    4.6720  -16.3240 C   0  0  0  0  0  0  0  0  0  0  0  0
   -7.5320    5.1320  -16.1170 C   0  0  0  0  0  0  0  0  0  0  0  0
   -8.3950    4.5770  -18.6870 C   0  0  0  0  0  0  0  0  0  0  0  0
   -7.1120    5.0430  -18.4670 C   0  0  0  0  0  0  0  0  0  0  0  0
   -6.6620    5.3430  -17.1840 C   0  0  0  0  0  0  0  0  0  0  0  0
   -5.2600    5.9220  -16.9520 C   0  0  1  0  0  0  0  0  0  0  0  0
   -5.3990    7.4530  -16.7820 C   0  0  0  0  0  0  0  0  0  0  0  0
   -5.8390    7.8910  -15.6090 N   0  0  0  0  0  0  0  0  0  0  0  0
   -5.1140    8.2210  -17.7000 O   0  0  0  0  0  0  0  0  0  0  0  0
   -4.5950    5.3170  -15.6850 C   0  0  0  0  0  0  0  0  0  0  0  0
   -3.2790    4.5810  -15.9190 C   0  0  0  0  0  0  0  0  0  0  0  0
   -2.3420    5.4520  -16.7360 C   0  0  0  0  0  0  0  0  0  0  0  0
   -2.9260    6.0250  -17.9760 N   0  0  0  0  0  0  0  0  0  0  0  0
   -4.3230    5.6450  -18.1640 C   0  0  0  0  0  0  0  0  0  0  0  0
 11  9  2  0
 10  9  1  0
  8  9  1  1
  8  7  1  0
  7  4  2  0
  4  3  1  0
  3  2  2  0
  2  1  1  0
  5  2  1  0
  6  5  2  0
  7  6  1  0
  8 16  1  0
 16 15  1  0
 15 14  1  0
 14 13  1  0
 13 12  1  0
 12  8  1  0
M  END
$$$$
