A71EV2A-x4994_A_201_3_A71EV2A-x0911+A+147+1__LIG
     RDKit          3D

 20 22  0  0  0  0  0  0  0  0999 V2000
   10.2920   16.1340   19.1370 O   0  0  0  0  0  0  0  0  0  0  0  0
   10.8020   15.0320   19.3420 C   0  0  0  0  0  0  0  0  0  0  0  0
   11.4080   14.3370   18.4010 N   0  0  0  0  0  0  0  0  0  0  0  0
   10.7490   14.3840   20.7140 C   0  0  0  0  0  0  0  0  0  0  0  0
    9.4540   14.6560   21.5110 C   0  0  0  0  0  0  0  0  0  0  0  0
   11.5370   15.0240   21.8830 C   0  0  0  0  0  0  0  0  0  0  0  0
   10.3080   14.9140   22.6730 N   0  0  0  0  0  0  0  0  0  0  0  0
   10.1250   14.5220   23.9390 C   0  0  0  0  0  0  0  0  0  0  0  0
   11.0390   14.4430   24.7250 O   0  0  0  0  0  0  0  0  0  0  0  0
    8.6930   14.2310   24.3350 C   0  0  0  0  0  0  0  0  0  0  0  0
    8.3940   12.7640   24.3790 C   0  0  0  0  0  0  0  0  0  0  0  0
    9.0410   11.9360   23.6150 N   0  0  0  0  0  0  0  0  0  0  0  0
    7.4660   12.0670   25.2280 C   0  0  0  0  0  0  0  0  0  0  0  0
    7.6430   10.7230   24.9040 C   0  0  0  0  0  0  0  0  0  0  0  0
    8.6140   10.6810   23.9530 N   0  0  0  0  0  0  0  0  0  0  0  0
    9.4510    9.5510   23.5830 C   0  0  0  0  0  0  0  0  0  0  0  0
    6.9010    9.7270   25.5210 C   0  0  0  0  0  0  0  0  0  0  0  0
    5.9650   10.0950   26.4740 C   0  0  0  0  0  0  0  0  0  0  0  0
    5.7830   11.4260   26.8110 C   0  0  0  0  0  0  0  0  0  0  0  0
    6.5290   12.4170   26.1940 C   0  0  0  0  0  0  0  0  0  0  0  0
 16 15  1  0
 15 12  1  0
 12 11  2  0
 11 10  1  0
 10  8  1  0
  9  8  2  0
  8  7  1  0
  7  5  1  0
  5  4  1  0
  4  2  1  0
  3  2  1  0
  2  1  2  0
  6  4  1  0
  7  6  1  0
 13 11  1  0
 13 20  2  0
 20 19  1  0
 19 18  2  0
 18 17  1  0
 17 14  2  0
 14 13  1  0
 15 14  1  0
M  END
$$$$
