XX01ZVNS2B-x3685_B_203_5_XX01ZVNS2B-x4590+B+203+1__LIG
     RDKit          3D

 28 32  0  0  0  0  0  0  0  0999 V2000
  -10.4220    3.8360  -17.6530 F   0  0  0  0  0  0  0  0  0  0  0  0
   -9.2040    4.1730  -17.1570 C   0  0  0  0  0  0  0  0  0  0  0  0
   -9.0540    4.2750  -15.7890 C   0  0  0  0  0  0  0  0  0  0  0  0
   -8.1870    4.3810  -18.0520 C   0  0  0  0  0  0  0  0  0  0  0  0
   -6.9420    4.7050  -17.5330 C   0  0  0  0  0  0  0  0  0  0  0  0
   -6.7150    4.8350  -16.1470 C   0  0  0  0  0  0  0  0  0  0  0  0
   -5.3370    5.1440  -16.0470 C   0  0  0  0  0  0  0  0  0  0  0  0
   -4.7600    5.1810  -17.2330 N   0  0  0  0  0  0  0  0  0  0  0  0
   -5.7460    4.9140  -18.1390 N   0  0  0  0  0  0  0  0  0  0  0  0
   -7.7960    4.6080  -15.2750 C   0  0  0  0  0  0  0  0  0  0  0  0
   -7.6060    4.7400  -13.7880 C   0  0  0  0  0  0  0  0  0  0  0  0
   -6.6310    5.3320  -13.3390 O   0  0  0  0  0  0  0  0  0  0  0  0
   -8.5410    4.1560  -12.9940 N   0  0  0  0  0  0  0  0  0  0  0  0
   -8.5520    4.1290  -11.5720 C   0  0  0  0  0  0  0  0  0  0  0  0
   -8.3540    5.3090  -10.8530 C   0  0  0  0  0  0  0  0  0  0  0  0
   -8.3900    5.2980   -9.4540 C   0  0  0  0  0  0  0  0  0  0  0  0
   -8.2460    6.6180   -8.7690 C   0  0  0  0  0  0  0  0  0  0  0  0
   -9.0330    7.7650   -9.3880 C   0  0  0  0  0  0  0  0  0  0  0  0
   -9.2110    8.8620   -8.3360 C   0  0  0  0  0  0  0  0  0  0  0  0
   -7.9690    9.1680   -7.6810 O   0  0  0  0  0  0  0  0  0  0  0  0
   -7.4980    8.0710   -6.8980 C   0  0  0  0  0  0  0  0  0  0  0  0
   -7.5080    6.7780   -7.6430 C   0  0  0  0  0  0  0  0  0  0  0  0
   -8.6250    4.0920   -8.7730 C   0  0  0  0  0  0  0  0  0  0  0  0
   -8.7480    3.8310   -7.2990 C   0  0  0  0  0  0  0  0  0  0  0  0
   -8.7720    2.3740   -7.2670 N   0  0  0  0  0  0  0  0  0  0  0  0
   -9.1000    1.7800   -8.5570 C   0  0  0  0  0  0  0  0  0  0  0  0
   -8.8160    2.9180   -9.4920 C   0  0  0  0  0  0  0  0  0  0  0  0
   -8.7710    2.9350  -10.8850 C   0  0  0  0  0  0  0  0  0  0  0  0
 12 11  2  0
 13 11  1  0
 14 13  1  0
 14 28  2  0
 28 27  1  0
 27 23  2  0
 23 16  1  0
 17 16  1  0
 17 22  2  0
 22 21  1  0
 21 20  1  0
 20 19  1  0
 19 18  1  0
 18 17  1  0
 16 15  2  0
 15 14  1  0
 24 23  1  0
 25 24  1  0
 26 25  1  0
 27 26  1  0
 11 10  1  0
 10  3  1  0
  3  2  2  0
  2  1  1  0
  4  2  1  0
  5  4  2  0
  5  9  1  0
  9  8  1  0
  8  7  2  0
  7  6  1  0
 10  6  2  0
  6  5  1  0
M  END
$$$$
