A71EV2A-x4020_C_201_1_A71EV2A-x0911+A+147+1__LIG
     RDKit          3D

 19 20  0  0  0  0  0  0  0  0999 V2000
   10.3430   16.8070   19.0980 O   0  0  0  0  0  0  0  0  0  0  0  0
   10.6840   15.6470   19.3640 C   0  0  0  0  0  0  0  0  0  0  0  0
   10.9310   14.7310   18.4370 N   0  0  0  0  0  0  0  0  0  0  0  0
   10.7940   15.1790   20.8020 C   0  0  1  0  0  0  0  0  0  0  0  0
   12.0160   15.8080   21.5010 C   0  0  0  0  0  0  0  0  0  0  0  0
   12.0970   15.3810   22.9750 C   0  0  0  0  0  0  0  0  0  0  0  0
   10.7970   15.6810   23.6920 C   0  0  0  0  0  0  0  0  0  0  0  0
    9.5290   15.5490   21.5840 C   0  0  0  0  0  0  0  0  0  0  0  0
    9.6660   15.0830   22.9680 N   0  0  0  0  0  0  0  0  0  0  0  0
    8.9100   14.0480   23.3880 C   0  0  0  0  0  0  0  0  0  0  0  0
    8.0410   13.5490   22.6870 O   0  0  0  0  0  0  0  0  0  0  0  0
    9.2180   13.4850   24.7640 C   0  0  0  0  0  0  0  0  0  0  0  0
    8.6800   12.0790   24.8960 C   0  0  0  0  0  0  0  0  0  0  0  0
    7.6120   11.7930   25.7440 C   0  0  0  0  0  0  0  0  0  0  0  0
    7.0970   10.5110   25.8080 C   0  0  0  0  0  0  0  0  0  0  0  0
    7.6420    9.5070   25.0210 C   0  0  0  0  0  0  0  0  0  0  0  0
    9.2240   11.0510   24.1330 C   0  0  0  0  0  0  0  0  0  0  0  0
    8.7260    9.7580   24.1910 C   0  0  0  0  0  0  0  0  0  0  0  0
    9.3780    8.6450   23.4080 C   0  0  0  0  0  0  0  0  0  0  0  0
 19 18  1  0
 18 16  2  0
 16 15  1  0
 15 14  2  0
 14 13  1  0
 13 12  1  0
 12 10  1  0
 11 10  2  0
 10  9  1  0
  9  7  1  0
  7  6  1  0
  6  5  1  0
  5  4  1  0
  4  2  1  6
  3  2  1  0
  2  1  2  0
  8  4  1  0
  9  8  1  0
 17 13  2  0
 18 17  1  0
M  END
$$$$
