A71EV2A-x3914_A_201_1_A71EV2A-x0911+A+147+1__LIG
     RDKit          3D

 22 24  0  0  0  0  0  0  0  0999 V2000
   10.5450   16.6190   19.0670 O   0  0  0  0  0  0  0  0  0  0  0  0
   10.7700   15.4470   19.3800 C   0  0  0  0  0  0  0  0  0  0  0  0
   11.1200   14.5270   18.4970 N   0  0  0  0  0  0  0  0  0  0  0  0
   10.7400   14.9990   20.8320 C   0  0  1  0  0  0  0  0  0  0  0  0
   11.8400   15.7090   21.6390 C   0  0  0  0  0  0  0  0  0  0  0  0
   11.8290   15.3120   23.1180 C   0  0  0  0  0  0  0  0  0  0  0  0
   10.4460   15.5020   23.7090 C   0  0  0  0  0  0  0  0  0  0  0  0
    9.3750   15.1820   21.5110 C   0  0  0  0  0  0  0  0  0  0  0  0
    9.4350   14.7760   22.9190 N   0  0  0  0  0  0  0  0  0  0  0  0
    8.5600   13.8770   23.4340 C   0  0  0  0  0  0  0  0  0  0  0  0
    7.7760   13.2540   22.7260 O   0  0  0  0  0  0  0  0  0  0  0  0
    8.5480   13.7120   24.9440 C   0  0  0  0  0  0  0  0  0  0  0  0
    7.8480   12.4430   25.3880 C   0  0  0  0  0  0  0  0  0  0  0  0
    6.8440   12.4940   26.3580 C   0  0  0  0  0  0  0  0  0  0  0  0
    6.1830   11.3480   26.7780 C   0  0  0  0  0  0  0  0  0  0  0  0
    6.4980   10.1140   26.2270 C   0  0  0  0  0  0  0  0  0  0  0  0
    7.5060   10.0200   25.2490 C   0  0  0  0  0  0  0  0  0  0  0  0
    8.1960   11.1840   24.8480 C   0  0  0  0  0  0  0  0  0  0  0  0
    9.1940   10.7170   23.9490 C   0  0  0  0  0  0  0  0  0  0  0  0
    8.0030    8.8990   24.6110 N   0  0  0  0  0  0  0  0  0  0  0  0
    9.0250    9.3950   23.8550 N   0  0  0  0  0  0  0  0  0  0  0  0
    9.7990    8.5160   22.9790 C   0  0  0  0  0  0  0  0  0  0  0  0
 22 21  1  0
 21 19  1  0
 19 18  2  0
 18 13  1  0
 13 12  1  0
 12 10  1  0
 11 10  2  0
 10  9  1  0
  9  7  1  0
  7  6  1  0
  6  5  1  0
  5  4  1  0
  4  2  1  6
  3  2  1  0
  2  1  2  0
  8  4  1  0
  9  8  1  0
 14 13  2  0
 15 14  1  0
 16 15  2  0
 17 16  1  0
 18 17  1  0
 20 17  2  0
 21 20  1  0
M  END
$$$$
