XX01ZVNS2B-x4827_B_203_6_XX01ZVNS2B-x4590+B+203+1__LIG
     RDKit          3D

 30 34  0  0  0  0  0  0  0  0999 V2000
  -10.5490    4.0200  -18.3160 Cl  0  0  0  0  0  0  0  0  0  0  0  0
   -8.9980    4.3910  -17.6070 C   0  0  0  0  0  0  0  0  0  0  0  0
   -7.9220    4.6200  -18.4430 C   0  0  0  0  0  0  0  0  0  0  0  0
   -6.7190    4.9740  -17.8500 C   0  0  0  0  0  0  0  0  0  0  0  0
   -6.5690    5.1120  -16.4610 C   0  0  0  0  0  0  0  0  0  0  0  0
   -5.2050    5.4640  -16.2810 C   0  0  0  0  0  0  0  0  0  0  0  0
   -4.5720    5.5390  -17.4340 N   0  0  0  0  0  0  0  0  0  0  0  0
   -5.4970    5.2410  -18.3980 N   0  0  0  0  0  0  0  0  0  0  0  0
   -5.1080    5.2380  -19.8100 C   0  0  0  0  0  0  0  0  0  0  0  0
   -3.6010    5.1100  -20.1270 C   0  0  0  0  0  0  0  0  0  0  0  0
   -5.0380    6.6280  -20.4750 C   0  0  0  0  0  0  0  0  0  0  0  0
   -3.7640    6.2080  -21.1070 N   0  0  0  0  0  0  0  0  0  0  0  0
   -8.8990    4.4930  -16.2290 C   0  0  0  0  0  0  0  0  0  0  0  0
   -7.6860    4.8760  -15.6450 C   0  0  0  0  0  0  0  0  0  0  0  0
   -7.5830    5.0970  -14.1660 C   0  0  0  0  0  0  0  0  0  0  0  0
   -6.6000    5.6520  -13.6820 O   0  0  0  0  0  0  0  0  0  0  0  0
   -8.5960    4.6110  -13.4160 N   0  0  0  0  0  0  0  0  0  0  0  0
   -8.6240    4.5810  -12.0010 C   0  0  0  0  0  0  0  0  0  0  0  0
   -8.5430    5.7590  -11.2360 C   0  0  0  0  0  0  0  0  0  0  0  0
   -8.5500    5.6870   -9.8470 C   0  0  0  0  0  0  0  0  0  0  0  0
   -8.6390    4.4480   -9.2600 C   0  0  0  0  0  0  0  0  0  0  0  0
   -8.7220    4.3860   -7.9050 F   0  0  0  0  0  0  0  0  0  0  0  0
   -8.7060    3.2820   -9.9710 C   0  0  0  0  0  0  0  0  0  0  0  0
   -8.7030    3.3520  -11.3510 C   0  0  0  0  0  0  0  0  0  0  0  0
   -8.3860    7.0750  -11.7920 N   0  0  0  0  0  0  0  0  0  0  0  0
   -9.2460    7.7090  -12.6600 C   0  0  0  0  0  0  0  0  0  0  0  0
  -10.1510    7.1660  -13.2760 O   0  0  0  0  0  0  0  0  0  0  0  0
   -8.8590    9.1590  -12.7210 C   0  0  0  0  0  0  0  0  0  0  0  0
   -7.4170    9.1860  -12.2370 C   0  0  0  0  0  0  0  0  0  0  0  0
   -7.2410    7.9230  -11.4020 C   0  0  0  0  0  0  0  0  0  0  0  0
 12 10  1  0
 10  9  1  0
  9  8  1  0
  8  7  1  0
  7  6  2  0
  6  5  1  0
  5 14  2  0
 15 14  1  0
 16 15  2  0
 17 15  1  0
 18 17  1  0
 18 24  1  0
 24 23  2  0
 23 21  1  0
 22 21  1  0
 21 20  2  0
 20 19  1  0
 19 18  2  0
 25 19  1  0
 25 30  1  0
 30 29  1  0
 29 28  1  0
 28 26  1  0
 26 25  1  0
 27 26  2  0
 14 13  1  0
 13  2  2  0
  2  1  1  0
  3  2  1  0
  4  3  2  0
  5  4  1  0
  8  4  1  0
 11  9  1  0
 12 11  1  0
M  END
$$$$
