XX01ZVNS2B-x4019_B_203_1_XX01ZVNS2B-x4590+B+203+1__LIG
     RDKit          3D

 25 29  0  0  0  0  0  0  0  0999 V2000
   -6.5850    5.1590  -13.1840 O   0  0  0  0  0  0  0  0  0  0  0  0
   -7.5400    4.5550  -13.6660 C   0  0  0  0  0  0  0  0  0  0  0  0
   -7.7160    4.4750  -15.1530 C   0  0  0  0  0  0  0  0  0  0  0  0
   -6.6530    4.7530  -16.0320 C   0  0  0  0  0  0  0  0  0  0  0  0
   -5.3610    5.0850  -15.7970 N   0  0  0  0  0  0  0  0  0  0  0  0
   -4.6580    5.2250  -16.9640 N   0  0  0  0  0  0  0  0  0  0  0  0
   -5.5000    4.9900  -17.9500 C   0  0  0  0  0  0  0  0  0  0  0  0
   -5.0670    5.0650  -19.3890 C   0  0  0  0  0  0  0  0  0  0  0  0
   -4.8150    6.5080  -19.8900 C   0  0  0  0  0  0  0  0  0  0  0  0
   -3.5500    6.0510  -20.5180 N   0  0  0  0  0  0  0  0  0  0  0  0
   -3.5620    4.8280  -19.6820 C   0  0  0  0  0  0  0  0  0  0  0  0
   -6.8110    4.6800  -17.4280 C   0  0  0  0  0  0  0  0  0  0  0  0
   -8.0550    4.3380  -17.9520 C   0  0  0  0  0  0  0  0  0  0  0  0
   -9.1120    4.0640  -17.0950 C   0  0  0  0  0  0  0  0  0  0  0  0
   -8.9440    4.1260  -15.7160 C   0  0  0  0  0  0  0  0  0  0  0  0
   -8.4780    3.9370  -12.9100 N   0  0  0  0  0  0  0  0  0  0  0  0
   -8.5400    3.9310  -11.4910 C   0  0  0  0  0  0  0  0  0  0  0  0
   -8.8400    2.7650  -10.7930 C   0  0  0  0  0  0  0  0  0  0  0  0
   -8.8950    2.7770   -9.4030 C   0  0  0  0  0  0  0  0  0  0  0  0
   -9.1920    1.6580   -8.4500 C   0  0  0  0  0  0  0  0  0  0  0  0
   -8.7980    2.2490   -7.1720 N   0  0  0  0  0  0  0  0  0  0  0  0
   -8.7260    3.7080   -7.2270 C   0  0  0  0  0  0  0  0  0  0  0  0
   -8.6400    3.9490   -8.7060 C   0  0  0  0  0  0  0  0  0  0  0  0
   -8.3440    5.1140   -9.4040 C   0  0  0  0  0  0  0  0  0  0  0  0
   -8.2970    5.1080  -10.7860 C   0  0  0  0  0  0  0  0  0  0  0  0
  2  1  2  0
 16  2  1  0
 17 16  1  0
 17 25  2  0
 25 24  1  0
 24 23  2  0
 23 19  1  0
 19 18  2  0
 18 17  1  0
 20 19  1  0
 21 20  1  0
 22 21  1  0
 23 22  1  0
  3  2  1  0
  3 15  1  0
 15 14  2  0
 14 13  1  0
 13 12  2  0
 12  7  1  0
  8  7  1  0
  8 11  1  0
 11 10  1  0
 10  9  1  0
  9  8  1  0
  7  6  2  0
  6  5  1  0
  5  4  1  0
  4  3  2  0
 12  4  1  0
M  END
$$$$
