XX01ZVNS2B-x3792_B_203_1_XX01ZVNS2B-x4590+B+203+1__LIG
     RDKit          3D

 24 28  0  0  0  0  0  0  0  0999 V2000
   -6.4630    5.2860  -13.2410 O   0  0  0  0  0  0  0  0  0  0  0  0
   -7.4060    4.6500  -13.7070 C   0  0  0  0  0  0  0  0  0  0  0  0
   -7.5810    4.5070  -15.1910 C   0  0  0  0  0  0  0  0  0  0  0  0
   -6.5660    4.8660  -16.0940 C   0  0  0  0  0  0  0  0  0  0  0  0
   -5.2630    5.2650  -15.8670 N   0  0  0  0  0  0  0  0  0  0  0  0
   -4.6370    5.4320  -17.0880 C   0  0  0  0  0  0  0  0  0  0  0  0
   -3.2360    5.6500  -17.5750 C   0  0  0  0  0  0  0  0  0  0  0  0
   -3.3560    5.5320  -19.1030 C   0  0  0  0  0  0  0  0  0  0  0  0
   -4.8490    5.4240  -19.4410 C   0  0  0  0  0  0  0  0  0  0  0  0
   -5.5190    5.1900  -18.0990 C   0  0  0  0  0  0  0  0  0  0  0  0
   -6.7600    4.7970  -17.4880 C   0  0  0  0  0  0  0  0  0  0  0  0
   -7.9770    4.3340  -17.9810 C   0  0  0  0  0  0  0  0  0  0  0  0
   -8.9780    3.9610  -17.0950 C   0  0  0  0  0  0  0  0  0  0  0  0
   -8.7860    4.0450  -15.7210 C   0  0  0  0  0  0  0  0  0  0  0  0
   -8.3290    4.0180  -12.9380 N   0  0  0  0  0  0  0  0  0  0  0  0
   -8.3810    3.9870  -11.5220 C   0  0  0  0  0  0  0  0  0  0  0  0
   -8.6720    2.8020  -10.8500 C   0  0  0  0  0  0  0  0  0  0  0  0
   -8.7630    2.7930   -9.4610 C   0  0  0  0  0  0  0  0  0  0  0  0
   -9.0910    1.6590   -8.5360 C   0  0  0  0  0  0  0  0  0  0  0  0
   -8.7660    2.2410   -7.2370 N   0  0  0  0  0  0  0  0  0  0  0  0
   -8.6570    3.7010   -7.2670 C   0  0  0  0  0  0  0  0  0  0  0  0
   -8.5370    3.9580   -8.7390 C   0  0  0  0  0  0  0  0  0  0  0  0
   -8.2390    5.1390   -9.4150 C   0  0  0  0  0  0  0  0  0  0  0  0
   -8.1680    5.1560  -10.7960 C   0  0  0  0  0  0  0  0  0  0  0  0
  2  1  2  0
 15  2  1  0
 16 15  1  0
 16 24  2  0
 24 23  1  0
 23 22  2  0
 22 18  1  0
 18 17  2  0
 17 16  1  0
 19 18  1  0
 20 19  1  0
 21 20  1  0
 22 21  1  0
  3  2  1  0
  3 14  1  0
 14 13  2  0
 13 12  1  0
 12 11  2  0
 11 10  1  0
 10  6  2  0
  6  5  1  0
  5  4  1  0
  4  3  2  0
 11  4  1  0
  7  6  1  0
  8  7  1  0
  9  8  1  0
 10  9  1  0
M  END
$$$$
