XX01ZVNS2B-x4131_B_203_1_XX01ZVNS2B-x4590+B+203+1__LIG
     RDKit          3D

 25 29  0  0  0  0  0  0  0  0999 V2000
   -6.9260    5.5900  -13.1730 O   0  0  0  0  0  0  0  0  0  0  0  0
   -7.7660    4.8280  -13.6470 C   0  0  0  0  0  0  0  0  0  0  0  0
   -7.8900    4.6670  -15.1410 C   0  0  0  0  0  0  0  0  0  0  0  0
   -6.8200    4.9860  -15.9980 C   0  0  0  0  0  0  0  0  0  0  0  0
   -5.4600    5.3550  -15.8360 C   0  0  0  0  0  0  0  0  0  0  0  0
   -4.8550    5.4920  -16.9970 N   0  0  0  0  0  0  0  0  0  0  0  0
   -5.7980    5.2330  -17.9530 N   0  0  0  0  0  0  0  0  0  0  0  0
   -5.4450    5.3500  -19.3710 C   0  0  0  0  0  0  0  0  0  0  0  0
   -3.9680    5.0990  -19.7470 C   0  0  0  0  0  0  0  0  0  0  0  0
   -4.0370    6.3000  -20.6120 N   0  0  0  0  0  0  0  0  0  0  0  0
   -5.2470    6.7840  -19.9040 C   0  0  0  0  0  0  0  0  0  0  0  0
   -7.0000    4.9100  -17.3940 C   0  0  0  0  0  0  0  0  0  0  0  0
   -8.2140    4.5180  -17.9470 C   0  0  0  0  0  0  0  0  0  0  0  0
   -9.2540    4.1850  -17.0900 C   0  0  0  0  0  0  0  0  0  0  0  0
   -9.0930    4.2560  -15.7120 C   0  0  0  0  0  0  0  0  0  0  0  0
   -8.6130    4.0940  -12.8700 N   0  0  0  0  0  0  0  0  0  0  0  0
   -8.6680    4.0890  -11.4420 C   0  0  0  0  0  0  0  0  0  0  0  0
   -8.8890    2.9020  -10.7440 C   0  0  0  0  0  0  0  0  0  0  0  0
   -8.9310    2.9010   -9.3530 C   0  0  0  0  0  0  0  0  0  0  0  0
   -9.1910    1.7630   -8.4100 C   0  0  0  0  0  0  0  0  0  0  0  0
   -8.8550    2.3600   -7.1110 N   0  0  0  0  0  0  0  0  0  0  0  0
   -8.8030    3.8320   -7.1700 C   0  0  0  0  0  0  0  0  0  0  0  0
   -8.7400    4.0820   -8.6480 C   0  0  0  0  0  0  0  0  0  0  0  0
   -8.5220    5.2680   -9.3420 C   0  0  0  0  0  0  0  0  0  0  0  0
   -8.4910    5.2740  -10.7280 C   0  0  0  0  0  0  0  0  0  0  0  0
  2  1  2  0
 16  2  1  0
 17 16  1  0
 17 25  2  0
 25 24  1  0
 24 23  2  0
 23 19  1  0
 19 18  2  0
 18 17  1  0
 20 19  1  0
 21 20  1  0
 22 21  1  0
 23 22  1  0
  3  2  1  0
  3 15  2  0
 15 14  1  0
 14 13  2  0
 13 12  1  0
 12  4  2  0
  4  3  1  0
  5  4  1  0
  6  5  2  0
  7  6  1  0
 12  7  1  0
  8  7  1  0
  8 11  1  0
 11 10  1  0
 10  9  1  0
  9  8  1  0
M  END
$$$$
