A71EV2A-x3694_C_201_1_A71EV2A-x0911+A+147+1__LIG
     RDKit          3D

 20 21  0  0  0  0  0  0  0  0999 V2000
   10.6200   16.6980   19.0130 O   0  0  0  0  0  0  0  0  0  0  0  0
   11.1710   15.5980   19.2020 C   0  0  0  0  0  0  0  0  0  0  0  0
   11.0970   14.5940   18.3460 N   0  0  0  0  0  0  0  0  0  0  0  0
   11.9390   15.3240   20.4730 C   0  0  0  0  0  0  0  0  0  0  0  0
   11.2690   15.8530   21.6920 C   0  0  2  0  0  0  0  0  0  0  0  0
   12.0890   15.5920   22.9680 C   0  0  0  0  0  0  0  0  0  0  0  0
   11.5180   14.3220   23.5760 C   0  0  0  0  0  0  0  0  0  0  0  0
    9.9030   15.1870   21.9390 C   0  0  0  0  0  0  0  0  0  0  0  0
   10.1270   14.2850   23.0700 N   0  0  0  0  0  0  0  0  0  0  0  0
    9.1430   13.4860   23.5120 C   0  0  0  0  0  0  0  0  0  0  0  0
    8.0420   13.4320   22.9610 O   0  0  0  0  0  0  0  0  0  0  0  0
    9.4950   12.6680   24.7410 C   0  0  0  0  0  0  0  0  0  0  0  0
    8.3850   11.7180   25.1400 C   0  0  0  0  0  0  0  0  0  0  0  0
    8.3610   10.4190   24.6340 C   0  0  0  0  0  0  0  0  0  0  0  0
    9.3200   10.1520   23.6960 O   0  0  0  0  0  0  0  0  0  0  0  0
    9.4820    8.8050   23.2640 C   0  0  0  0  0  0  0  0  0  0  0  0
    7.4230   12.0790   26.0820 C   0  0  0  0  0  0  0  0  0  0  0  0
    6.4730   11.1690   26.5110 C   0  0  0  0  0  0  0  0  0  0  0  0
    6.4610    9.8890   26.0110 C   0  0  0  0  0  0  0  0  0  0  0  0
    7.4070    9.4980   25.0700 C   0  0  0  0  0  0  0  0  0  0  0  0
 16 15  1  0
 15 14  1  0
 14 20  2  0
 20 19  1  0
 19 18  2  0
 18 17  1  0
 17 13  2  0
 14 13  1  0
 13 12  1  0
 12 10  1  0
 11 10  2  0
 10  9  1  0
  9  7  1  0
  7  6  1  0
  6  5  1  0
  5  4  1  6
  4  2  1  0
  3  2  1  0
  2  1  2  0
  8  5  1  0
  9  8  1  0
M  END
$$$$
