A71EV2A-x4908_A_201_1_A71EV2A-x0911+A+147+1__LIG
     RDKit          3D

 21 23  0  0  0  0  0  0  0  0999 V2000
    8.0540   13.2680   22.5010 O   0  0  0  0  0  0  0  0  0  0  0  0
    8.7660   13.8720   23.2860 C   0  0  0  0  0  0  0  0  0  0  0  0
    9.5570   14.8930   22.8950 N   0  0  0  0  0  0  0  0  0  0  0  0
   10.5600   15.5660   23.7350 C   0  0  0  0  0  0  0  0  0  0  0  0
   11.9370   15.4940   23.0880 C   0  0  0  0  0  0  0  0  0  0  0  0
   11.8890   15.9540   21.6270 C   0  0  0  0  0  0  0  0  0  0  0  0
    9.4870   15.4220   21.5310 C   0  0  0  0  0  0  0  0  0  0  0  0
   10.8270   15.1880   20.8290 C   0  0  1  0  0  0  0  0  0  0  0  0
   10.7880   15.6310   19.3780 C   0  0  0  0  0  0  0  0  0  0  0  0
   10.5970   16.8110   19.0750 O   0  0  0  0  0  0  0  0  0  0  0  0
   10.9470   14.6750   18.4770 N   0  0  0  0  0  0  0  0  0  0  0  0
    8.7910   13.5070   24.7570 C   0  0  0  0  0  0  0  0  0  0  0  0
    8.1160   12.1780   25.0110 C   0  0  0  0  0  0  0  0  0  0  0  0
    8.5730   11.0050   24.4160 C   0  0  0  0  0  0  0  0  0  0  0  0
    9.6570   10.9120   23.5810 O   0  0  0  0  0  0  0  0  0  0  0  0
    9.7420    9.5770   23.2400 C   0  0  0  0  0  0  0  0  0  0  0  0
    8.7780    8.8500   23.8040 C   0  0  0  0  0  0  0  0  0  0  0  0
    7.9870    9.7520   24.5990 C   0  0  0  0  0  0  0  0  0  0  0  0
    6.8830    9.7040   25.4600 C   0  0  0  0  0  0  0  0  0  0  0  0
    6.4030   10.8550   26.0770 C   0  0  0  0  0  0  0  0  0  0  0  0
    7.0080   12.0820   25.8500 C   0  0  0  0  0  0  0  0  0  0  0  0
 11  9  1  0
 10  9  2  0
  8  9  1  6
  8  6  1  0
  6  5  1  0
  5  4  1  0
  4  3  1  0
  3  2  1  0
  2  1  2  0
 12  2  1  0
 13 12  1  0
 13 21  1  0
 21 20  2  0
 20 19  1  0
 19 18  2  0
 18 17  1  0
 17 16  2  0
 16 15  1  0
 15 14  1  0
 14 13  2  0
 18 14  1  0
  7  3  1  0
  8  7  1  0
M  END
$$$$
