XX01ZVNS2B-x4103_B_203_1_XX01ZVNS2B-x4590+B+203+1__LIG
     RDKit          3D

 26 30  0  0  0  0  0  0  0  0999 V2000
  -10.4020    4.0060  -17.9890 Cl  0  0  0  0  0  0  0  0  0  0  0  0
   -8.8750    4.2770  -17.1900 C   0  0  0  0  0  0  0  0  0  0  0  0
   -8.8270    4.2840  -15.8020 C   0  0  0  0  0  0  0  0  0  0  0  0
   -7.7540    4.4970  -17.9640 C   0  0  0  0  0  0  0  0  0  0  0  0
   -6.5530    4.7400  -17.3150 C   0  0  0  0  0  0  0  0  0  0  0  0
   -5.3020    4.9840  -17.8000 N   0  0  0  0  0  0  0  0  0  0  0  0
   -4.9010    5.0770  -19.2070 C   0  0  0  0  0  0  0  0  0  0  0  0
   -4.7560    6.4860  -19.8140 C   0  0  0  0  0  0  0  0  0  0  0  0
   -3.5640    5.9690  -20.5290 N   0  0  0  0  0  0  0  0  0  0  0  0
   -3.4280    4.8280  -19.5920 C   0  0  0  0  0  0  0  0  0  0  0  0
   -4.4000    5.1610  -16.7870 N   0  0  0  0  0  0  0  0  0  0  0  0
   -5.0800    5.0390  -15.6640 C   0  0  0  0  0  0  0  0  0  0  0  0
   -6.4500    4.7670  -15.9120 C   0  0  0  0  0  0  0  0  0  0  0  0
   -7.6130    4.5370  -15.1490 C   0  0  0  0  0  0  0  0  0  0  0  0
   -7.5420    4.6860  -13.6470 C   0  0  0  0  0  0  0  0  0  0  0  0
   -6.7140    5.4440  -13.1410 O   0  0  0  0  0  0  0  0  0  0  0  0
   -8.4110    3.9560  -12.8910 N   0  0  0  0  0  0  0  0  0  0  0  0
   -8.5120    3.9750  -11.4630 C   0  0  0  0  0  0  0  0  0  0  0  0
   -8.7220    2.7930  -10.7560 C   0  0  0  0  0  0  0  0  0  0  0  0
   -8.8450    2.8150   -9.3660 C   0  0  0  0  0  0  0  0  0  0  0  0
   -9.1340    1.6880   -8.4210 C   0  0  0  0  0  0  0  0  0  0  0  0
   -8.8410    2.3010   -7.1260 N   0  0  0  0  0  0  0  0  0  0  0  0
   -8.8720    3.7810   -7.1970 C   0  0  0  0  0  0  0  0  0  0  0  0
   -8.7260    4.0120   -8.6730 C   0  0  0  0  0  0  0  0  0  0  0  0
   -8.5000    5.1920   -9.3740 C   0  0  0  0  0  0  0  0  0  0  0  0
   -8.4040    5.1790  -10.7590 C   0  0  0  0  0  0  0  0  0  0  0  0
 16 15  2  0
 17 15  1  0
 18 17  1  0
 18 26  2  0
 26 25  1  0
 25 24  2  0
 24 20  1  0
 20 19  2  0
 19 18  1  0
 21 20  1  0
 22 21  1  0
 23 22  1  0
 24 23  1  0
 15 14  1  0
 14  3  1  0
  3  2  2  0
  2  1  1  0
  4  2  1  0
  5  4  2  0
  5 13  1  0
 14 13  2  0
 13 12  1  0
 12 11  2  0
 11  6  1  0
  6  5  1  0
  7  6  1  0
  7 10  1  0
 10  9  1  0
  9  8  1  0
  8  7  1  0
M  END
$$$$
