A71EV2A-x4753_A_201_1_A71EV2A-x0911+A+147+1__LIG
     RDKit          3D

 21 22  0  0  0  0  0  0  0  0999 V2000
   10.2650   16.8090   19.2890 O   0  0  0  0  0  0  0  0  0  0  0  0
   10.6860   15.6690   19.4950 C   0  0  0  0  0  0  0  0  0  0  0  0
   11.0970   14.8490   18.5400 N   0  0  0  0  0  0  0  0  0  0  0  0
   10.7420   15.1550   20.9420 C   0  0  1  0  0  0  0  0  0  0  0  0
   11.0490   13.8070   20.9770 F   0  0  0  0  0  0  0  0  0  0  0  0
   11.8080   15.8660   21.7570 C   0  0  0  0  0  0  0  0  0  0  0  0
   11.8110   15.4110   23.2170 C   0  0  0  0  0  0  0  0  0  0  0  0
   10.4190   15.5300   23.8090 C   0  0  0  0  0  0  0  0  0  0  0  0
    9.3500   15.3790   21.5880 C   0  0  0  0  0  0  0  0  0  0  0  0
    9.4070   14.8760   22.9630 N   0  0  0  0  0  0  0  0  0  0  0  0
    8.5140   13.9570   23.3930 C   0  0  0  0  0  0  0  0  0  0  0  0
    7.5990   13.5560   22.6880 O   0  0  0  0  0  0  0  0  0  0  0  0
    8.6690   13.4760   24.8220 C   0  0  0  0  0  0  0  0  0  0  0  0
    7.7580   12.3040   25.1140 C   0  0  0  0  0  0  0  0  0  0  0  0
    7.9800   11.0100   24.6160 C   0  0  0  0  0  0  0  0  0  0  0  0
    9.3520   10.7820   23.5240 S   0  0  0  0  0  0  0  0  0  0  0  0
    9.3740    9.0110   23.2220 C   0  0  0  0  0  0  0  0  0  0  0  0
    6.6630   12.5080   25.9510 C   0  0  0  0  0  0  0  0  0  0  0  0
    5.8370   11.4580   26.3180 C   0  0  0  0  0  0  0  0  0  0  0  0
    6.0780   10.1950   25.8510 C   0  0  0  0  0  0  0  0  0  0  0  0
    7.1360    9.9610   24.9820 C   0  0  0  0  0  0  0  0  0  0  0  0
 17 16  1  0
 16 15  1  0
 15 21  2  0
 21 20  1  0
 20 19  2  0
 19 18  1  0
 18 14  2  0
 15 14  1  0
 14 13  1  0
 13 11  1  0
 12 11  2  0
 11 10  1  0
 10  8  1  0
  8  7  1  0
  7  6  1  0
  6  4  1  0
  4  5  1  6
  4  2  1  0
  3  2  1  0
  2  1  2  0
  9  4  1  0
 10  9  1  0
M  END
$$$$
