A71EV2A-x4771_A_201_1_A71EV2A-x0911+A+147+1__LIG
     RDKit          3D

 22 24  0  0  0  0  0  0  0  0999 V2000
    2.7860   14.9140   20.8040 O   0  0  0  0  0  0  0  0  0  0  0  0
    2.7550   14.7890   22.0330 C   0  0  0  0  0  0  0  0  0  0  0  0
    1.5510   14.6320   22.6910 N   0  0  0  0  0  0  0  0  0  0  0  0
    1.4400   14.6060   24.0350 C   0  0  0  0  0  0  0  0  0  0  0  0
    2.4340   14.7390   24.8730 N   0  0  0  0  0  0  0  0  0  0  0  0
    3.8950   14.8990   22.9120 C   0  0  0  0  0  0  0  0  0  0  0  0
    3.6800   14.8990   24.2780 C   0  0  0  0  0  0  0  0  0  0  0  0
    4.7810   15.1660   25.2590 C   0  0  0  0  0  0  0  0  0  0  0  0
    6.0320   15.6740   24.5500 C   0  0  0  0  0  0  0  0  0  0  0  0
    5.2800   14.9750   22.3200 C   0  0  0  0  0  0  0  0  0  0  0  0
    6.3120   14.8740   23.3500 N   0  0  0  0  0  0  0  0  0  0  0  0
    7.4000   14.0830   23.1890 C   0  0  0  0  0  0  0  0  0  0  0  0
    7.6670   13.5550   22.1240 O   0  0  0  0  0  0  0  0  0  0  0  0
    8.2870   13.8550   24.3970 C   0  0  0  0  0  0  0  0  0  0  0  0
    7.8330   12.6470   25.1830 C   0  0  0  0  0  0  0  0  0  0  0  0
    8.1490   11.3300   24.8260 C   0  0  0  0  0  0  0  0  0  0  0  0
    9.2010   11.0110   23.4370 S   0  0  0  0  0  0  0  0  0  0  0  0
    9.6070    9.2730   23.5900 C   0  0  0  0  0  0  0  0  0  0  0  0
    6.9680   12.8460   26.2560 C   0  0  0  0  0  0  0  0  0  0  0  0
    6.3880   11.7880   26.9210 C   0  0  0  0  0  0  0  0  0  0  0  0
    6.6910   10.5130   26.5590 C   0  0  0  0  0  0  0  0  0  0  0  0
    7.5860   10.2740   25.5310 C   0  0  0  0  0  0  0  0  0  0  0  0
 18 17  1  0
 17 16  1  0
 16 22  2  0
 22 21  1  0
 21 20  2  0
 20 19  1  0
 19 15  2  0
 16 15  1  0
 15 14  1  0
 14 12  1  0
 13 12  2  0
 12 11  1  0
 11  9  1  0
  9  8  1  0
  8  7  1  0
  7  5  1  0
  5  4  2  0
  4  3  1  0
  3  2  1  0
  2  1  2  0
  6  2  1  0
  7  6  2  0
 10  6  1  0
 11 10  1  0
M  END
$$$$
