XX01ZVNS2B-x0884_B_401_1_XX01ZVNS2B-x0777+B+301+1__LIG
     RDKit          3D

 14 14  0  0  0  0  0  0  0  0999 V2000
   -9.9190  -12.6340   -8.2970 O   0  0  0  0  0  0  0  0  0  0  0  0
  -10.1980  -11.4440   -8.1210 C   0  0  0  0  0  0  0  0  0  0  0  0
   -9.3370  -10.5600   -7.6400 N   0  0  0  0  0  0  0  0  0  0  0  0
  -11.6010  -10.9390   -8.4690 C   0  0  1  0  0  0  0  0  0  0  0  0
  -12.5090  -12.0660   -8.9230 C   0  0  0  0  0  0  0  0  0  0  0  0
  -12.1580  -10.3250   -7.3020 O   0  0  0  0  0  0  0  0  0  0  0  0
  -13.5030  -10.0070   -7.2800 C   0  0  0  0  0  0  0  0  0  0  0  0
  -13.8980   -8.8180   -7.9180 C   0  0  0  0  0  0  0  0  0  0  0  0
  -12.9130   -7.9250   -8.4710 C   0  0  0  0  0  0  0  0  0  0  0  0
  -12.1610   -7.1900   -8.9170 N   0  0  0  0  0  0  0  0  0  0  0  0
  -15.2490   -8.4710   -7.9360 C   0  0  0  0  0  0  0  0  0  0  0  0
  -16.1850   -9.2820   -7.3150 C   0  0  0  0  0  0  0  0  0  0  0  0
  -15.7890  -10.4280   -6.6640 C   0  0  0  0  0  0  0  0  0  0  0  0
  -14.4520  -10.7940   -6.6380 C   0  0  0  0  0  0  0  0  0  0  0  0
  4  5  1  1
  6  4  1  0
  7  6  1  0
  7 14  2  0
 14 13  1  0
 13 12  2  0
 12 11  1  0
 11  8  2  0
  8  7  1  0
  9  8  1  0
 10  9  3  0
  4  2  1  0
  2  1  2  0
  3  2  1  0
M  END
$$$$
