A71EV2A-x4331_C_201_1_A71EV2A-x0911+A+147+1__LIG
     RDKit          3D

 20 21  0  0  0  0  0  0  0  0999 V2000
   10.5010   16.7820   19.1570 O   0  0  0  0  0  0  0  0  0  0  0  0
   10.8430   15.6100   19.3500 C   0  0  0  0  0  0  0  0  0  0  0  0
   11.1290   14.7650   18.3680 N   0  0  0  0  0  0  0  0  0  0  0  0
   10.9630   15.0490   20.7570 C   0  0  1  0  0  0  0  0  0  0  0  0
   12.0890   15.7410   21.5510 C   0  0  0  0  0  0  0  0  0  0  0  0
   12.1000   15.3240   23.0280 C   0  0  0  0  0  0  0  0  0  0  0  0
   10.7070   15.4390   23.6540 C   0  0  0  0  0  0  0  0  0  0  0  0
    9.6180   15.2500   21.4620 C   0  0  0  0  0  0  0  0  0  0  0  0
    9.6980   14.7480   22.8350 N   0  0  0  0  0  0  0  0  0  0  0  0
    8.8530   13.7910   23.2880 C   0  0  0  0  0  0  0  0  0  0  0  0
    7.9670   13.3230   22.5880 O   0  0  0  0  0  0  0  0  0  0  0  0
    9.0270   13.3440   24.7300 C   0  0  0  0  0  0  0  0  0  0  0  0
    8.0470   12.2550   25.1210 C   0  0  0  0  0  0  0  0  0  0  0  0
    8.2190   10.9160   24.7240 C   0  0  0  0  0  0  0  0  0  0  0  0
    9.4040   10.4840   23.8790 C   0  0  0  0  0  0  0  0  0  0  0  0
    9.5350    9.0120   23.5310 C   0  0  0  0  0  0  0  0  0  0  0  0
    6.9840   12.5790   25.9620 C   0  0  0  0  0  0  0  0  0  0  0  0
    6.1020   11.6090   26.4070 C   0  0  0  0  0  0  0  0  0  0  0  0
    6.2610   10.3010   26.0080 C   0  0  0  0  0  0  0  0  0  0  0  0
    7.3090    9.9550   25.1690 C   0  0  0  0  0  0  0  0  0  0  0  0
 16 15  1  0
 15 14  1  0
 14 20  2  0
 20 19  1  0
 19 18  2  0
 18 17  1  0
 17 13  2  0
 14 13  1  0
 13 12  1  0
 12 10  1  0
 11 10  2  0
 10  9  1  0
  9  7  1  0
  7  6  1  0
  6  5  1  0
  5  4  1  0
  4  2  1  6
  3  2  1  0
  2  1  2  0
  8  4  1  0
  9  8  1  0
M  END
$$$$
