XX01ZVNS2B-x4756_B_203_6_XX01ZVNS2B-x4590+B+203+1__LIG
     RDKit          3D

 23 26  0  0  0  0  0  0  0  0999 V2000
   -6.0650    3.7930  -21.2870 O   0  0  0  0  0  0  0  0  0  0  0  0
   -6.5040    3.9760  -20.1510 C   0  0  0  0  0  0  0  0  0  0  0  0
   -7.7540    3.6440  -19.7280 N   0  0  0  0  0  0  0  0  0  0  0  0
   -7.9550    3.9890  -18.3850 C   0  0  0  0  0  0  0  0  0  0  0  0
   -9.0500    3.7330  -17.5690 C   0  0  0  0  0  0  0  0  0  0  0  0
   -8.9610    4.0570  -16.2210 C   0  0  0  0  0  0  0  0  0  0  0  0
   -5.7680    4.5900  -18.9790 C   0  0  0  0  0  0  0  0  0  0  0  0
   -6.8070    4.6120  -17.8980 C   0  0  0  0  0  0  0  0  0  0  0  0
   -6.7460    4.9380  -16.5480 C   0  0  0  0  0  0  0  0  0  0  0  0
   -7.8130    4.6470  -15.6990 C   0  0  0  0  0  0  0  0  0  0  0  0
   -7.6830    4.9500  -14.2390 C   0  0  0  0  0  0  0  0  0  0  0  0
   -6.9220    5.8260  -13.8540 O   0  0  0  0  0  0  0  0  0  0  0  0
   -8.4110    4.1760  -13.3920 N   0  0  0  0  0  0  0  0  0  0  0  0
   -8.4000    4.2670  -11.9780 C   0  0  0  0  0  0  0  0  0  0  0  0
   -8.2060    5.5040  -11.3570 C   0  0  0  0  0  0  0  0  0  0  0  0
   -8.2060    5.5960   -9.9720 C   0  0  0  0  0  0  0  0  0  0  0  0
   -8.5980    3.1320  -11.1970 C   0  0  0  0  0  0  0  0  0  0  0  0
   -8.6090    3.2300   -9.8060 C   0  0  0  0  0  0  0  0  0  0  0  0
   -8.3970    4.4580   -9.1950 C   0  0  0  0  0  0  0  0  0  0  0  0
   -8.4000    4.2880   -7.7030 C   0  0  0  0  0  0  0  0  0  0  0  0
   -8.8790    2.1870   -8.7620 C   0  0  0  0  0  0  0  0  0  0  0  0
   -8.3560    2.8220   -7.5370 N   0  0  0  0  0  0  0  0  0  0  0  0
   -9.0260    2.3600   -6.3290 C   0  0  0  0  0  0  0  0  0  0  0  0
 23 22  1  0
 22 20  1  0
 20 19  1  0
 19 16  1  0
 16 15  2  0
 15 14  1  0
 14 13  1  0
 13 11  1  0
 12 11  2  0
 11 10  1  0
 10  6  1  0
  6  5  2  0
  5  4  1  0
  4  8  2  0
  9  8  1  0
 10  9  2  0
  8  7  1  0
  7  2  1  0
  2  1  2  0
  3  2  1  0
  4  3  1  0
 17 14  2  0
 18 17  1  0
 19 18  2  0
 21 18  1  0
 22 21  1  0
M  END
$$$$
