XX01ZVNS2B-x3699_B_203_1_XX01ZVNS2B-x4590+B+203+1__LIG
     RDKit          3D

 30 34  0  0  0  0  0  0  0  0999 V2000
  -10.4170    3.6880  -17.7280 F   0  0  0  0  0  0  0  0  0  0  0  0
   -9.1920    4.0830  -17.2900 C   0  0  0  0  0  0  0  0  0  0  0  0
   -9.0090    4.2510  -15.9380 C   0  0  0  0  0  0  0  0  0  0  0  0
   -8.2140    4.3100  -18.2240 C   0  0  0  0  0  0  0  0  0  0  0  0
   -6.9730    4.7300  -17.7590 C   0  0  0  0  0  0  0  0  0  0  0  0
   -6.7140    4.9290  -16.3880 C   0  0  0  0  0  0  0  0  0  0  0  0
   -5.3450    5.2860  -16.3380 C   0  0  0  0  0  0  0  0  0  0  0  0
   -4.8070    5.3110  -17.5430 N   0  0  0  0  0  0  0  0  0  0  0  0
   -5.8070    4.9780  -18.4100 N   0  0  0  0  0  0  0  0  0  0  0  0
   -7.7650    4.6900  -15.4810 C   0  0  0  0  0  0  0  0  0  0  0  0
   -7.5990    4.9160  -14.0070 C   0  0  0  0  0  0  0  0  0  0  0  0
   -6.7450    5.6920  -13.5830 O   0  0  0  0  0  0  0  0  0  0  0  0
   -8.4240    4.1960  -13.2020 N   0  0  0  0  0  0  0  0  0  0  0  0
   -8.4540    4.1840  -11.7850 C   0  0  0  0  0  0  0  0  0  0  0  0
   -8.1940    5.3430  -11.0570 C   0  0  0  0  0  0  0  0  0  0  0  0
   -8.7490    3.0050  -11.1070 C   0  0  0  0  0  0  0  0  0  0  0  0
   -8.7900    2.9860   -9.7180 C   0  0  0  0  0  0  0  0  0  0  0  0
   -9.1480    1.8600   -8.7920 C   0  0  0  0  0  0  0  0  0  0  0  0
   -8.8110    2.4280   -7.4980 N   0  0  0  0  0  0  0  0  0  0  0  0
   -8.6370    3.8780   -7.5200 C   0  0  0  0  0  0  0  0  0  0  0  0
   -8.5230    4.1410   -8.9920 C   0  0  0  0  0  0  0  0  0  0  0  0
   -8.2170    5.3420   -9.6640 C   0  0  0  0  0  0  0  0  0  0  0  0
   -7.8930    6.6120   -8.9570 C   0  0  0  0  0  0  0  0  0  0  0  0
   -6.6270    7.1810   -9.0630 C   0  0  0  0  0  0  0  0  0  0  0  0
   -8.8540    7.3020   -8.2290 C   0  0  0  0  0  0  0  0  0  0  0  0
   -8.5210    8.5110   -7.6540 C   0  0  0  0  0  0  0  0  0  0  0  0
   -7.3090    9.0790   -7.7530 N   0  0  0  0  0  0  0  0  0  0  0  0
   -6.4020    8.4070   -8.4490 C   0  0  0  0  0  0  0  0  0  0  0  0
   -5.1670    8.9260   -8.5780 O   0  0  0  0  0  0  0  0  0  0  0  0
   -4.7910    9.4250   -9.8600 C   0  0  0  0  0  0  0  0  0  0  0  0
 30 29  1  0
 29 28  1  0
 28 24  2  0
 24 23  1  0
 23 22  1  0
 22 15  2  0
 15 14  1  0
 14 13  1  0
 13 11  1  0
 12 11  2  0
 11 10  1  0
 10  3  1  0
  3  2  2  0
  2  1  1  0
  4  2  1  0
  5  4  2  0
  5  9  1  0
  9  8  1  0
  8  7  2  0
  7  6  1  0
 10  6  2  0
  6  5  1  0
 16 14  2  0
 17 16  1  0
 17 21  2  0
 22 21  1  0
 21 20  1  0
 20 19  1  0
 19 18  1  0
 18 17  1  0
 25 23  2  0
 26 25  1  0
 27 26  2  0
 28 27  1  0
M  END
$$$$
