A71EV2A-x3218_A_201_1_A71EV2A-x0911+A+147+1__LIG
     RDKit          3D

 20 22  0  0  0  0  0  0  0  0999 V2000
    7.6270   13.2630   22.6570 O   0  0  0  0  0  0  0  0  0  0  0  0
    8.6100   13.5700   23.3090 C   0  0  0  0  0  0  0  0  0  0  0  0
    9.4100   14.5890   22.9400 N   0  0  0  0  0  0  0  0  0  0  0  0
   10.4220   15.2280   23.7970 C   0  0  0  0  0  0  0  0  0  0  0  0
   11.8010   15.1650   23.1530 C   0  0  0  0  0  0  0  0  0  0  0  0
   11.7510   15.6760   21.7090 C   0  0  0  0  0  0  0  0  0  0  0  0
    9.3430   15.1240   21.5780 C   0  0  0  0  0  0  0  0  0  0  0  0
   10.6930   14.9220   20.8930 C   0  0  1  0  0  0  0  0  0  0  0  0
   10.6120   15.4380   19.4680 C   0  0  0  0  0  0  0  0  0  0  0  0
   10.2950   16.6100   19.2310 O   0  0  0  0  0  0  0  0  0  0  0  0
   10.8830   14.5540   18.5210 N   0  0  0  0  0  0  0  0  0  0  0  0
    9.0780   12.6870   24.4560 C   0  0  1  0  0  0  0  0  0  0  0  0
    7.8880   12.1350   25.2210 C   0  0  0  0  0  0  0  0  0  0  0  0
    6.8510   12.6690   26.0150 C   0  0  0  0  0  0  0  0  0  0  0  0
    6.0560   11.7230   26.5080 N   0  0  0  0  0  0  0  0  0  0  0  0
    6.5730   10.5550   26.0250 N   0  0  0  0  0  0  0  0  0  0  0  0
    7.6470   10.7880   25.2660 C   0  0  0  0  0  0  0  0  0  0  0  0
    8.3650    9.9260   24.5800 N   0  0  0  0  0  0  0  0  0  0  0  0
    9.7850   10.2010   24.4180 C   0  0  0  0  0  0  0  0  0  0  0  0
   10.0110   11.5870   23.8520 C   0  0  0  0  0  0  0  0  0  0  0  0
 11  9  1  0
 10  9  2  0
  8  9  1  6
  8  6  1  0
  6  5  1  0
  5  4  1  0
  4  3  1  0
  3  2  1  0
  2  1  2  0
 12  2  1  6
 12 20  1  0
 20 19  1  0
 19 18  1  0
 18 17  1  0
 17 16  1  0
 16 15  1  0
 15 14  2  0
 14 13  1  0
 17 13  2  0
 13 12  1  0
  7  3  1  0
  8  7  1  0
M  END
$$$$
