XX01ZVNS2B-x3898_B_203_1_XX01ZVNS2B-x4590+B+203+1__LIG
     RDKit          3D

 30 32  0  0  0  0  0  0  0  0999 V2000
   -4.0860    1.5110  -14.2540 F   0  0  0  0  0  0  0  0  0  0  0  0
   -3.5500    2.3940  -13.3690 C   0  0  0  0  0  0  0  0  0  0  0  0
   -3.2030    3.4870  -14.1040 F   0  0  0  0  0  0  0  0  0  0  0  0
   -4.6610    2.7560  -12.2960 C   0  0  0  0  0  0  0  0  0  0  0  0
   -5.7490    3.5210  -12.8910 N   0  0  0  0  0  0  0  0  0  0  0  0
   -6.8390    2.9570  -13.4140 C   0  0  0  0  0  0  0  0  0  0  0  0
   -6.9080    1.7720  -13.7360 O   0  0  0  0  0  0  0  0  0  0  0  0
   -8.0430    3.9140  -13.5910 C   0  0  2  0  0  0  0  0  0  0  0  0
   -8.0600    4.4630  -15.0120 C   0  0  0  0  0  0  0  0  0  0  0  0
   -9.0840    4.1030  -15.8850 C   0  0  0  0  0  0  0  0  0  0  0  0
   -8.9990    4.4210  -17.2240 C   0  0  0  0  0  0  0  0  0  0  0  0
  -10.3390    4.0380  -18.2710 Cl  0  0  0  0  0  0  0  0  0  0  0  0
   -7.9040    5.0750  -17.7410 C   0  0  0  0  0  0  0  0  0  0  0  0
   -6.8950    5.4760  -16.8860 C   0  0  0  0  0  0  0  0  0  0  0  0
   -6.9910    5.2010  -15.5250 C   0  0  0  0  0  0  0  0  0  0  0  0
   -6.1270    5.7150  -14.5860 O   0  0  0  0  0  0  0  0  0  0  0  0
   -4.8150    6.1080  -15.0100 C   0  0  0  0  0  0  0  0  0  0  0  0
   -4.7600    7.5960  -15.2130 C   0  0  0  0  0  0  0  0  0  0  0  0
   -4.5130    7.9140  -16.4610 O   0  0  0  0  0  0  0  0  0  0  0  0
   -4.9370    8.4100  -14.3220 O   0  0  0  0  0  0  0  0  0  0  0  0
   -8.1430    4.9450  -12.5780 N   0  0  0  0  0  0  0  0  0  0  0  0
   -8.3320    4.6880  -11.2160 C   0  0  0  0  0  0  0  0  0  0  0  0
   -8.7150    3.4290  -10.7530 C   0  0  0  0  0  0  0  0  0  0  0  0
   -8.8700    3.2010   -9.3890 C   0  0  0  0  0  0  0  0  0  0  0  0
   -9.2370    1.9380   -8.6680 C   0  0  0  0  0  0  0  0  0  0  0  0
   -9.0830    2.3260   -7.2630 N   0  0  0  0  0  0  0  0  0  0  0  0
   -8.8970    3.7640   -7.0770 C   0  0  0  0  0  0  0  0  0  0  0  0
   -8.6590    4.2340   -8.4820 C   0  0  0  0  0  0  0  0  0  0  0  0
   -8.2890    5.4920   -8.9470 C   0  0  0  0  0  0  0  0  0  0  0  0
   -8.1230    5.7180  -10.3010 C   0  0  0  0  0  0  0  0  0  0  0  0
 20 18  2  0
 19 18  1  0
 18 17  1  0
 17 16  1  0
 16 15  1  0
 15 14  1  0
 14 13  2  0
 13 11  1  0
 12 11  1  0
 11 10  2  0
 10  9  1  0
 15  9  2  0
  9  8  1  0
  8 21  1  1
 22 21  1  0
 22 30  2  0
 30 29  1  0
 29 28  2  0
 28 24  1  0
 24 23  2  0
 23 22  1  0
 25 24  1  0
 26 25  1  0
 27 26  1  0
 28 27  1  0
  8  6  1  0
  7  6  2  0
  6  5  1  0
  5  4  1  0
  4  2  1  0
  3  2  1  0
  2  1  1  0
M  END
$$$$
