A71EV2A-x3883_A_201_1_A71EV2A-x0911+A+147+1__LIG
     RDKit          3D

 22 23  0  0  0  0  0  0  0  0999 V2000
   10.2520   16.5820   19.0510 O   0  0  0  0  0  0  0  0  0  0  0  0
   10.6550   15.4380   19.3070 C   0  0  0  0  0  0  0  0  0  0  0  0
   11.0780   14.5940   18.3790 N   0  0  0  0  0  0  0  0  0  0  0  0
   10.6890   14.9220   20.7340 C   0  0  1  0  0  0  0  0  0  0  0  0
   11.7720   15.6270   21.5860 C   0  0  0  0  0  0  0  0  0  0  0  0
   11.8050   15.0220   22.9860 C   0  0  0  0  0  0  0  0  0  0  0  0
   10.4390   15.1200   23.6470 C   0  0  0  0  0  0  0  0  0  0  0  0
    9.3340   15.0720   21.4210 C   0  0  0  0  0  0  0  0  0  0  0  0
    9.3900   14.5360   22.7890 N   0  0  0  0  0  0  0  0  0  0  0  0
    8.4580   13.6610   23.2300 C   0  0  0  0  0  0  0  0  0  0  0  0
    7.5540   13.2860   22.5140 O   0  0  0  0  0  0  0  0  0  0  0  0
    8.4770   13.2910   24.7290 C   0  0  1  0  0  0  0  0  0  0  0  0
    8.2390   14.4170   25.5810 O   0  0  0  0  0  0  0  0  0  0  0  0
    7.1770   15.2490   25.1360 C   0  0  0  0  0  0  0  0  0  0  0  0
    7.5530   12.1410   25.0790 C   0  0  0  0  0  0  0  0  0  0  0  0
    7.8300   10.8370   24.6740 C   0  0  0  0  0  0  0  0  0  0  0  0
    8.9180   10.6970   23.8480 O   0  0  0  0  0  0  0  0  0  0  0  0
    9.2880    9.3640   23.4410 C   0  0  0  0  0  0  0  0  0  0  0  0
    6.4770   12.3490   25.9390 C   0  0  0  0  0  0  0  0  0  0  0  0
    5.7010   11.2980   26.3920 C   0  0  0  0  0  0  0  0  0  0  0  0
    5.9770   10.0210   25.9810 C   0  0  0  0  0  0  0  0  0  0  0  0
    7.0430    9.7790   25.1230 C   0  0  0  0  0  0  0  0  0  0  0  0
 18 17  1  0
 17 16  1  0
 16 22  2  0
 22 21  1  0
 21 20  2  0
 20 19  1  0
 19 15  2  0
 16 15  1  0
 15 12  1  0
 12 13  1  1
 14 13  1  0
 12 10  1  0
 11 10  2  0
 10  9  1  0
  9  7  1  0
  7  6  1  0
  6  5  1  0
  5  4  1  0
  4  2  1  6
  3  2  1  0
  2  1  2  0
  8  4  1  0
  9  8  1  0
M  END
$$$$
