XX01ZVNS2B-x1234_B_301_1_XX01ZVNS2B-x4590+B+203+1__LIG
     RDKit          3D

 23 25  0  0  0  0  0  0  0  0999 V2000
   -4.1950    9.8460  -17.0130 C   0  0  0  0  0  0  0  0  0  0  0  0
   -3.4140    8.6750  -17.2310 O   0  0  0  0  0  0  0  0  0  0  0  0
   -3.8910    7.5100  -16.7200 C   0  0  0  0  0  0  0  0  0  0  0  0
   -3.0940    6.8120  -15.8300 C   0  0  0  0  0  0  0  0  0  0  0  0
   -3.4790    5.6550  -15.2780 N   0  0  0  0  0  0  0  0  0  0  0  0
   -4.6620    5.1600  -15.6540 C   0  0  0  0  0  0  0  0  0  0  0  0
   -5.5320    5.7710  -16.5490 C   0  0  0  0  0  0  0  0  0  0  0  0
   -6.8280    5.1510  -16.9600 C   0  0  0  0  0  0  0  0  0  0  0  0
   -7.0140    4.8000  -18.2980 C   0  0  0  0  0  0  0  0  0  0  0  0
   -8.1630    4.1680  -18.7280 C   0  0  0  0  0  0  0  0  0  0  0  0
   -9.1810    3.9110  -17.8420 C   0  0  0  0  0  0  0  0  0  0  0  0
   -9.0110    4.2120  -16.5070 C   0  0  0  0  0  0  0  0  0  0  0  0
   -7.8720    4.8840  -16.0580 C   0  0  0  0  0  0  0  0  0  0  0  0
   -7.8290    5.1830  -14.5880 C   0  0  0  0  0  0  0  0  0  0  0  0
   -7.4470    6.2660  -14.1740 O   0  0  0  0  0  0  0  0  0  0  0  0
   -8.2110    4.1680  -13.7610 N   0  0  0  0  0  0  0  0  0  0  0  0
   -8.2470    4.1960  -12.3560 C   0  0  0  0  0  0  0  0  0  0  0  0
   -8.4820    3.1080  -11.5030 C   0  0  0  0  0  0  0  0  0  0  0  0
   -8.4670    3.4650  -10.2280 N   0  0  0  0  0  0  0  0  0  0  0  0
   -8.2220    4.8140  -10.2500 N   0  0  0  0  0  0  0  0  0  0  0  0
   -8.1310    5.5610   -8.9990 C   0  0  0  0  0  0  0  0  0  0  0  0
   -8.0950    5.2890  -11.5120 C   0  0  0  0  0  0  0  0  0  0  0  0
   -5.1010    6.9750  -17.1090 C   0  0  0  0  0  0  0  0  0  0  0  0
  1  2  1  0
  2  3  1  0
  3  4  2  0
  4  5  1  0
  5  6  2  0
  6  7  1  0
  7  8  1  0
  8  9  2  0
  9 10  1  0
 10 11  2  0
 11 12  1  0
 12 13  2  0
 13 14  1  0
 14 15  2  0
 14 16  1  0
 16 17  1  0
 17 18  1  0
 18 19  2  0
 19 20  1  0
 20 21  1  0
 20 22  1  0
  7 23  2  0
  3 23  1  0
  8 13  1  0
 17 22  2  0
M  END
$$$$
