XX01ZVNS2B-x2500_B_301_1_XX01ZVNS2B-x4590+B+203+1__LIG
     RDKit          3D

 27 30  0  0  0  0  0  0  0  0999 V2000
   -2.6930    4.1410  -14.2600 C   0  0  0  0  0  0  0  0  0  0  0  0
   -3.9230    4.0010  -13.5260 O   0  0  0  0  0  0  0  0  0  0  0  0
   -5.0790    4.4100  -14.0880 C   0  0  0  0  0  0  0  0  0  0  0  0
   -6.1930    4.3940  -13.2780 C   0  0  0  0  0  0  0  0  0  0  0  0
   -7.4070    4.7770  -13.8230 C   0  0  0  0  0  0  0  0  0  0  0  0
   -8.6650    4.8620  -12.9950 C   0  0  0  0  0  0  0  0  0  0  0  0
   -8.2970    5.2480  -11.5790 C   0  0  0  0  0  0  0  0  0  0  0  0
   -7.7610    6.4940  -11.2970 C   0  0  0  0  0  0  0  0  0  0  0  0
   -7.4170    6.7960   -9.9990 C   0  0  0  0  0  0  0  0  0  0  0  0
   -7.5800    5.9360   -8.9800 N   0  0  0  0  0  0  0  0  0  0  0  0
   -8.0950    4.7170   -9.2370 C   0  0  0  0  0  0  0  0  0  0  0  0
   -8.3420    3.9040   -8.1620 N   0  0  0  0  0  0  0  0  0  0  0  0
   -9.1820    2.7120   -8.2710 C   0  0  0  0  0  0  0  0  0  0  0  0
   -8.5420    1.5000   -7.6220 C   0  0  0  0  0  0  0  0  0  0  0  0
   -7.7480    1.8260   -6.4320 N   0  0  0  0  0  0  0  0  0  0  0  0
   -8.1640    3.0910   -5.8310 C   0  0  0  0  0  0  0  0  0  0  0  0
   -7.9010    4.2270   -6.8000 C   0  0  0  0  0  0  0  0  0  0  0  0
   -8.4730    4.3530  -10.5390 C   0  0  0  0  0  0  0  0  0  0  0  0
   -7.5010    5.1200  -15.1110 N   0  0  0  0  0  0  0  0  0  0  0  0
   -6.3720    5.1150  -15.8510 C   0  0  0  0  0  0  0  0  0  0  0  0
   -6.4710    5.4250  -17.1580 N   0  0  0  0  0  0  0  0  0  0  0  0
   -7.7040    5.2200  -17.9180 C   0  0  0  0  0  0  0  0  0  0  0  0
   -7.4230    4.4310  -19.1830 C   0  0  0  0  0  0  0  0  0  0  0  0
   -6.2590    4.9310  -19.9290 N   0  0  0  0  0  0  0  0  0  0  0  0
   -5.7110    6.1750  -19.3820 C   0  0  0  0  0  0  0  0  0  0  0  0
   -5.3690    6.0260  -17.9110 C   0  0  0  0  0  0  0  0  0  0  0  0
   -5.1680    4.7230  -15.3800 N   0  0  0  0  0  0  0  0  0  0  0  0
  1  2  1  0
  2  3  1  0
  3  4  2  0
  4  5  1  0
  5  6  1  0
  6  7  1  0
  7  8  2  0
  8  9  1  0
  9 10  2  0
 10 11  1  0
 11 12  1  0
 12 13  1  0
 13 14  1  0
 14 15  1  0
 15 16  1  0
 16 17  1  0
 11 18  2  0
  5 19  2  0
 19 20  1  0
 20 21  1  0
 21 22  1  0
 22 23  1  0
 23 24  1  0
 24 25  1  0
 25 26  1  0
 20 27  2  0
  3 27  1  0
  7 18  1  0
 21 26  1  0
 12 17  1  0
M  END
$$$$
