A71EV2A-x4839_A_201_1_A71EV2A-x0911+A+147+1__LIG
     RDKit          3D

 21 23  0  0  0  0  0  0  0  0999 V2000
   11.6870   14.8890   24.9860 O   0  0  0  0  0  0  0  0  0  0  0  0
   11.5020   14.9310   23.7740 C   0  0  0  0  0  0  0  0  0  0  0  0
   12.6800   15.0440   22.8470 C   0  0  0  0  0  0  0  0  0  0  0  0
   12.3530   15.6040   21.4570 C   0  0  0  0  0  0  0  0  0  0  0  0
   11.1030   14.9430   20.8660 C   0  0  2  0  0  0  0  0  0  0  0  0
   10.8580   15.3980   19.4370 C   0  0  0  0  0  0  0  0  0  0  0  0
   10.3190   16.4870   19.1940 O   0  0  0  0  0  0  0  0  0  0  0  0
   11.2070   14.5400   18.4830 N   0  0  0  0  0  0  0  0  0  0  0  0
    9.9110   15.1740   21.8140 C   0  0  0  0  0  0  0  0  0  0  0  0
   10.2600   14.9950   23.2320 N   0  0  0  0  0  0  0  0  0  0  0  0
    9.0950   15.0620   24.1110 C   0  0  0  0  0  0  0  0  0  0  0  0
    8.4030   13.7420   24.3610 C   0  0  0  0  0  0  0  0  0  0  0  0
    7.2690   13.7180   25.1820 C   0  0  0  0  0  0  0  0  0  0  0  0
    6.6400   12.5290   25.5020 C   0  0  0  0  0  0  0  0  0  0  0  0
    8.9010   12.5370   23.8540 C   0  0  0  0  0  0  0  0  0  0  0  0
    8.2720   11.3360   24.1860 C   0  0  0  0  0  0  0  0  0  0  0  0
    8.5550   10.0330   23.8930 N   0  0  0  0  0  0  0  0  0  0  0  0
    9.6740    9.4870   23.1370 C   0  0  0  0  0  0  0  0  0  0  0  0
    7.1350   11.3190   25.0110 C   0  0  0  0  0  0  0  0  0  0  0  0
    6.8200    9.9400   25.1520 C   0  0  0  0  0  0  0  0  0  0  0  0
    7.6630    9.1820   24.4840 N   0  0  0  0  0  0  0  0  0  0  0  0
 18 17  1  0
 17 21  1  0
 21 20  2  0
 20 19  1  0
 19 14  1  0
 14 13  2  0
 13 12  1  0
 12 11  1  0
 11 10  1  0
 10  9  1  0
  9  5  1  0
  5  6  1  6
  8  6  1  0
  7  6  2  0
  5  4  1  0
  4  3  1  0
  3  2  1  0
 10  2  1  0
  2  1  2  0
 15 12  2  0
 16 15  1  0
 19 16  2  0
 17 16  1  0
M  END
$$$$
