A71EV2A-x5222_A_201_3_A71EV2A-x0911+A+147+1__LIG
     RDKit          3D

 24 26  0  0  0  0  0  0  0  0999 V2000
   11.1810   14.7570   24.9760 O   0  0  0  0  0  0  0  0  0  0  0  0
   11.1920   14.8970   23.7510 C   0  0  0  0  0  0  0  0  0  0  0  0
   12.3420   15.6060   23.0740 C   0  0  0  0  0  0  0  0  0  0  0  0
   12.0630   16.1140   21.6540 C   0  0  0  0  0  0  0  0  0  0  0  0
   11.3390   15.0260   20.8410 C   0  0  2  0  0  0  0  0  0  0  0  0
   11.0530   15.4840   19.4210 C   0  0  0  0  0  0  0  0  0  0  0  0
   10.5130   16.5810   19.1960 O   0  0  0  0  0  0  0  0  0  0  0  0
   11.3180   14.5950   18.4700 N   0  0  0  0  0  0  0  0  0  0  0  0
    9.9950   14.7530   21.5370 C   0  0  0  0  0  0  0  0  0  0  0  0
   10.1710   14.4730   22.9680 N   0  0  0  0  0  0  0  0  0  0  0  0
    9.1130   13.6410   23.5560 C   0  0  0  0  0  0  0  0  0  0  0  0
    9.5990   12.2150   23.8010 C   0  0  0  0  0  0  0  0  0  0  0  0
    8.5600   11.2510   24.3110 C   0  0  0  0  0  0  0  0  0  0  0  0
    8.4670    9.9200   23.9960 C   0  0  0  0  0  0  0  0  0  0  0  0
    9.3810    9.0450   23.1970 C   0  0  0  0  0  0  0  0  0  0  0  0
    7.5180   11.5340   25.2730 C   0  0  0  0  0  0  0  0  0  0  0  0
    6.8120   10.3320   25.4770 C   0  0  0  0  0  0  0  0  0  0  0  0
    7.4030    9.3650   24.6730 N   0  0  0  0  0  0  0  0  0  0  0  0
    7.1820   12.6420   26.0510 C   0  0  0  0  0  0  0  0  0  0  0  0
    6.1870   12.5480   27.0090 C   0  0  0  0  0  0  0  0  0  0  0  0
    5.5000   11.3480   27.2010 C   0  0  0  0  0  0  0  0  0  0  0  0
    5.7930   10.2260   26.4160 C   0  0  0  0  0  0  0  0  0  0  0  0
    4.5140   11.2530   28.2470 C   0  0  0  0  0  0  0  0  0  0  0  0
    3.7320   11.2150   29.0870 N   0  0  0  0  0  0  0  0  0  0  0  0
 15 14  1  0
 14 18  1  0
 18 17  1  0
 17 22  2  0
 22 21  1  0
 23 21  1  0
 24 23  3  0
 21 20  2  0
 20 19  1  0
 19 16  2  0
 17 16  1  0
 16 13  1  0
 14 13  2  0
 13 12  1  0
 12 11  1  0
 11 10  1  0
 10  9  1  0
  9  5  1  0
  5  6  1  6
  8  6  1  0
  7  6  2  0
  5  4  1  0
  4  3  1  0
  3  2  1  0
 10  2  1  0
  2  1  2  0
M  END
$$$$
