A71EV2A-x4214_A_201_1_A71EV2A-x0911+A+147+1__LIG
     RDKit          3D

 20 21  0  0  0  0  0  0  0  0999 V2000
   10.1760   16.5570   19.4200 O   0  0  0  0  0  0  0  0  0  0  0  0
   10.5680   15.4090   19.6420 C   0  0  0  0  0  0  0  0  0  0  0  0
   10.8510   14.5450   18.6750 N   0  0  0  0  0  0  0  0  0  0  0  0
   10.7340   14.9030   21.0650 C   0  0  1  0  0  0  0  0  0  0  0  0
   12.0170   15.4630   21.6930 C   0  0  0  0  0  0  0  0  0  0  0  0
   12.2070   14.9410   23.1170 C   0  0  0  0  0  0  0  0  0  0  0  0
   11.0040   15.2700   23.9720 C   0  0  0  0  0  0  0  0  0  0  0  0
    9.5510   15.2920   21.9630 C   0  0  0  0  0  0  0  0  0  0  0  0
    9.7810   14.7600   23.3210 N   0  0  0  0  0  0  0  0  0  0  0  0
    8.5170   14.4080   24.2850 S   0  0  0  0  0  0  0  0  0  0  0  0
    7.3440   14.9140   23.6370 O   0  0  0  0  0  0  0  0  0  0  0  0
    8.8570   14.8480   25.6030 O   0  0  0  0  0  0  0  0  0  0  0  0
    8.4450   12.6450   24.3000 C   0  0  0  0  0  0  0  0  0  0  0  0
    7.5310   11.9790   25.1250 C   0  0  0  0  0  0  0  0  0  0  0  0
    6.6880   12.7810   25.8570 O   0  0  0  0  0  0  0  0  0  0  0  0
    5.7270   12.1550   26.7140 C   0  0  0  0  0  0  0  0  0  0  0  0
    9.3610   11.9360   23.5350 C   0  0  0  0  0  0  0  0  0  0  0  0
    9.3660   10.5550   23.5930 C   0  0  0  0  0  0  0  0  0  0  0  0
    8.4690    9.8910   24.3930 C   0  0  0  0  0  0  0  0  0  0  0  0
    7.5530   10.5930   25.1670 C   0  0  0  0  0  0  0  0  0  0  0  0
 16 15  1  0
 15 14  1  0
 14 20  2  0
 20 19  1  0
 19 18  2  0
 18 17  1  0
 17 13  2  0
 14 13  1  0
 13 10  1  0
 11 10  2  0
 12 10  2  0
 10  9  1  0
  9  7  1  0
  7  6  1  0
  6  5  1  0
  5  4  1  0
  4  2  1  6
  3  2  1  0
  2  1  2  0
  8  4  1  0
  9  8  1  0
M  END
$$$$
