XX01ZVNS2B-x4243_B_203_2_XX01ZVNS2B-x4590+B+203+1__LIG
     RDKit          3D

 28 32  0  0  0  0  0  0  0  0999 V2000
   -6.5460    5.1610  -13.0820 O   0  0  0  0  0  0  0  0  0  0  0  0
   -7.4790    4.5420  -13.5930 C   0  0  0  0  0  0  0  0  0  0  0  0
   -8.4260    3.9100  -12.8530 N   0  0  0  0  0  0  0  0  0  0  0  0
   -8.4860    3.8920  -11.4240 C   0  0  0  0  0  0  0  0  0  0  0  0
   -8.7240    2.7050  -10.7340 C   0  0  0  0  0  0  0  0  0  0  0  0
   -8.7460    2.6950   -9.3400 C   0  0  0  0  0  0  0  0  0  0  0  0
   -8.9830    1.5470   -8.4030 C   0  0  0  0  0  0  0  0  0  0  0  0
   -8.7450    2.1610   -7.0860 N   0  0  0  0  0  0  0  0  0  0  0  0
   -8.6590    3.6250   -7.1550 C   0  0  0  0  0  0  0  0  0  0  0  0
   -8.5370    3.8690   -8.6300 C   0  0  0  0  0  0  0  0  0  0  0  0
   -8.2960    5.0540   -9.3180 C   0  0  0  0  0  0  0  0  0  0  0  0
   -8.2680    5.0670  -10.7050 C   0  0  0  0  0  0  0  0  0  0  0  0
   -7.5770    4.4370  -15.0890 C   0  0  0  0  0  0  0  0  0  0  0  0
   -8.7700    4.1190  -15.7380 C   0  0  0  0  0  0  0  0  0  0  0  0
   -8.8580    4.1170  -17.1280 C   0  0  0  0  0  0  0  0  0  0  0  0
   -7.7590    4.4390  -17.9150 C   0  0  0  0  0  0  0  0  0  0  0  0
   -6.5460    4.7430  -17.3010 C   0  0  0  0  0  0  0  0  0  0  0  0
   -6.4660    4.7300  -15.8940 C   0  0  0  0  0  0  0  0  0  0  0  0
   -5.1750    4.9820  -15.5700 N   0  0  0  0  0  0  0  0  0  0  0  0
   -4.4020    5.1550  -16.6890 N   0  0  0  0  0  0  0  0  0  0  0  0
   -5.2010    5.0240  -17.7360 C   0  0  0  0  0  0  0  0  0  0  0  0
   -4.7070    5.1930  -19.1480 C   0  0  0  0  0  0  0  0  0  0  0  0
   -3.1830    5.0230  -19.2890 C   0  0  0  0  0  0  0  0  0  0  0  0
   -2.7800    5.2050  -20.7580 C   0  0  0  0  0  0  0  0  0  0  0  0
   -5.1390    6.5360  -19.7390 C   0  0  0  0  0  0  0  0  0  0  0  0
   -4.6470    6.6430  -21.1840 C   0  0  0  0  0  0  0  0  0  0  0  0
   -3.1900    6.5170  -21.2600 N   0  0  0  0  0  0  0  0  0  0  0  0
   -2.7250    6.7120  -22.6430 C   0  0  0  0  0  0  0  0  0  0  0  0
 28 27  1  0
 27 24  1  0
 24 23  1  0
 23 22  1  0
 22 21  1  0
 21 20  2  0
 20 19  1  0
 19 18  1  0
 18 13  1  0
 13  2  1  0
  2  1  2  0
  3  2  1  0
  4  3  1  0
  4 12  2  0
 12 11  1  0
 11 10  2  0
 10  6  1  0
  6  5  2  0
  5  4  1  0
  7  6  1  0
  8  7  1  0
  9  8  1  0
 10  9  1  0
 14 13  2  0
 15 14  1  0
 16 15  2  0
 17 16  1  0
 21 17  1  0
 18 17  2  0
 25 22  1  0
 26 25  1  0
 27 26  1  0
M  END
$$$$
