A71EV2A-x4347_A_201_1_A71EV2A-x0911+A+147+1__LIG
     RDKit          3D

 20 21  0  0  0  0  0  0  0  0999 V2000
   10.4570   16.5920   19.2800 O   0  0  0  0  0  0  0  0  0  0  0  0
   10.8680   15.4450   19.4840 C   0  0  0  0  0  0  0  0  0  0  0  0
   11.1940   14.6230   18.5050 N   0  0  0  0  0  0  0  0  0  0  0  0
   10.9390   14.8670   20.8890 C   0  0  1  0  0  0  0  0  0  0  0  0
   12.1270   15.4380   21.6880 C   0  0  0  0  0  0  0  0  0  0  0  0
   12.2300   14.7960   23.0760 C   0  0  0  0  0  0  0  0  0  0  0  0
   10.9120   14.9090   23.8220 C   0  0  0  0  0  0  0  0  0  0  0  0
    9.6500   14.9960   21.7030 C   0  0  0  0  0  0  0  0  0  0  0  0
    9.8030   14.3670   23.0180 N   0  0  0  0  0  0  0  0  0  0  0  0
    8.9440   13.4070   23.4270 C   0  0  0  0  0  0  0  0  0  0  0  0
    8.0290   13.0060   22.7130 O   0  0  0  0  0  0  0  0  0  0  0  0
    9.1720   12.8620   24.8260 C   0  0  0  0  0  0  0  0  0  0  0  0
    8.2550   11.7130   25.1830 C   0  0  0  0  0  0  0  0  0  0  0  0
    8.3530   10.4180   24.6220 C   0  0  0  0  0  0  0  0  0  0  0  0
    9.3990   10.2460   23.7840 O   0  0  0  0  0  0  0  0  0  0  0  0
    9.5410    8.9890   23.1330 C   0  0  0  0  0  0  0  0  0  0  0  0
    7.2850   11.8780   26.1650 C   0  0  0  0  0  0  0  0  0  0  0  0
    6.4650   10.8260   26.5270 C   0  0  0  0  0  0  0  0  0  0  0  0
    6.6290    9.6250   25.8900 C   0  0  0  0  0  0  0  0  0  0  0  0
    7.5550    9.4050   24.9440 N   0  0  0  0  0  0  0  0  0  0  0  0
 16 15  1  0
 15 14  1  0
 14 20  2  0
 20 19  1  0
 19 18  2  0
 18 17  1  0
 17 13  2  0
 14 13  1  0
 13 12  1  0
 12 10  1  0
 11 10  2  0
 10  9  1  0
  9  7  1  0
  7  6  1  0
  6  5  1  0
  5  4  1  0
  4  2  1  6
  3  2  1  0
  2  1  2  0
  8  4  1  0
  9  8  1  0
M  END
$$$$
