XX01ZVNS2B-x1681_B_301_1_XX01ZVNS2B-x4590+B+203+1__LIG
     RDKit          3D

 13 14  0  0  0  0  0  0  0  0999 V2000
   -8.0650    4.4490  -13.9110 C   0  0  0  0  0  0  0  0  0  0  0  0
   -7.8490    4.3880  -15.3920 C   0  0  0  0  0  0  0  0  0  0  0  0
   -8.8550    3.8750  -16.2330 C   0  0  0  0  0  0  0  0  0  0  0  0
   -8.6560    3.8230  -17.5930 C   0  0  0  0  0  0  0  0  0  0  0  0
   -7.4120    4.2990  -18.1210 C   0  0  0  0  0  0  0  0  0  0  0  0
   -7.0910    4.2910  -19.4960 C   0  0  0  0  0  0  0  0  0  0  0  0
   -5.8910    4.7600  -19.9470 C   0  0  0  0  0  0  0  0  0  0  0  0
   -4.9430    5.2580  -19.0410 C   0  0  0  0  0  0  0  0  0  0  0  0
   -5.2180    5.2750  -17.7090 C   0  0  0  0  0  0  0  0  0  0  0  0
   -6.4580    4.8000  -17.2000 C   0  0  0  0  0  0  0  0  0  0  0  0
   -6.6930    4.8330  -15.8550 N   0  0  0  0  0  0  0  0  0  0  0  0
   -3.9450    5.9410  -16.5060 Br  0  0  0  0  0  0  0  0  0  0  0  0
   -9.6390    3.3200  -18.4220 N   0  0  0  0  0  0  0  0  0  0  0  0
  1  2  1  0
  2  3  2  0
  3  4  1  0
  4  5  2  0
  5  6  1  0
  6  7  2  0
  7  8  1  0
  8  9  2  0
  9 10  1  0
 10 11  2  0
  9 12  1  0
  4 13  1  0
  2 11  1  0
  5 10  1  0
M  END
$$$$
