A71EV2A-x3286_A_201_1_A71EV2A-x0911+A+147+1__LIG
     RDKit          3D

 21 23  0  0  0  0  0  0  0  0999 V2000
    9.9370   14.2170   25.0060 O   0  0  0  0  0  0  0  0  0  0  0  0
   10.1750   13.3650   24.1420 C   0  0  0  0  0  0  0  0  0  0  0  0
    9.4450   12.0870   24.1320 C   0  0  0  0  0  0  0  0  0  0  0  0
    8.3520   11.6890   24.9600 C   0  0  0  0  0  0  0  0  0  0  0  0
    7.5570   12.3040   25.9380 C   0  0  0  0  0  0  0  0  0  0  0  0
    6.5900   11.5550   26.5820 C   0  0  0  0  0  0  0  0  0  0  0  0
    6.4160   10.2020   26.2830 C   0  0  0  0  0  0  0  0  0  0  0  0
    7.1950    9.5780   25.3130 C   0  0  0  0  0  0  0  0  0  0  0  0
    8.1460   10.3390   24.6560 C   0  0  0  0  0  0  0  0  0  0  0  0
    9.0520   10.0120   23.6930 N   0  0  0  0  0  0  0  0  0  0  0  0
    9.3330    8.6960   23.1210 C   0  0  0  0  0  0  0  0  0  0  0  0
    9.8530   11.0750   23.3600 N   0  0  0  0  0  0  0  0  0  0  0  0
   11.0690   13.5290   23.1710 N   0  0  0  0  0  0  0  0  0  0  0  0
   12.0340   14.6250   23.2180 C   0  0  0  0  0  0  0  0  0  0  0  0
   12.4180   15.1320   21.8300 C   0  0  0  0  0  0  0  0  0  0  0  0
   11.3140   15.8450   21.0960 C   0  0  0  0  0  0  0  0  0  0  0  0
   10.9170   15.7150   19.8150 C   0  0  0  0  0  0  0  0  0  0  0  0
   11.4080   14.9550   18.6410 C   0  0  0  0  0  0  0  0  0  0  0  0
   10.5990   16.8960   21.6670 N   0  0  0  0  0  0  0  0  0  0  0  0
    9.8020   17.2750   20.7450 C   0  0  0  0  0  0  0  0  0  0  0  0
    9.9180   16.6100   19.5730 O   0  0  0  0  0  0  0  0  0  0  0  0
 18 17  1  0
 17 21  1  0
 21 20  1  0
 20 19  2  0
 19 16  1  0
 17 16  2  0
 16 15  1  0
 15 14  1  0
 14 13  1  0
 13  2  1  0
  2  1  2  0
  3  2  1  0
  3 12  2  0
 12 10  1  0
 11 10  1  0
 10  9  1  0
  9  8  1  0
  8  7  2  0
  7  6  1  0
  6  5  2  0
  5  4  1  0
  4  3  1  0
  9  4  2  0
M  END
$$$$
