A71EV2A-x5539_C_201_5_A71EV2A-x0911+A+147+1__LIG
     RDKit          3D

 21 22  0  0  0  0  0  0  0  0999 V2000
   10.3490   16.6370   19.1980 O   0  0  0  0  0  0  0  0  0  0  0  0
   10.7390   15.4880   19.4350 C   0  0  0  0  0  0  0  0  0  0  0  0
   11.0440   14.6050   18.4900 N   0  0  0  0  0  0  0  0  0  0  0  0
   10.7950   14.9670   20.8600 C   0  0  1  0  0  0  0  0  0  0  0  0
   11.8530   15.7240   21.6760 C   0  0  0  0  0  0  0  0  0  0  0  0
   11.8530   15.2200   23.1340 C   0  0  0  0  0  0  0  0  0  0  0  0
   10.4600   15.3490   23.7460 C   0  0  0  0  0  0  0  0  0  0  0  0
    9.4160   15.1470   21.5060 C   0  0  0  0  0  0  0  0  0  0  0  0
    9.4530   14.6910   22.8970 N   0  0  0  0  0  0  0  0  0  0  0  0
    8.6040   13.7330   23.3190 C   0  0  0  0  0  0  0  0  0  0  0  0
    7.7590   13.2130   22.6350 O   0  0  0  0  0  0  0  0  0  0  0  0
    8.7800   13.4750   24.6550 O   0  0  0  0  0  0  0  0  0  0  0  0
    7.9840   12.4440   25.1930 C   0  0  0  0  0  0  0  0  0  0  0  0
    6.7510   12.7110   25.7730 C   0  0  0  0  0  0  0  0  0  0  0  0
    6.0150   11.6620   26.3150 C   0  0  0  0  0  0  0  0  0  0  0  0
    6.4940   10.3630   26.2520 C   0  0  0  0  0  0  0  0  0  0  0  0
    7.7190   10.0950   25.6540 C   0  0  0  0  0  0  0  0  0  0  0  0
    8.4820   11.1430   25.1320 C   0  0  0  0  0  0  0  0  0  0  0  0
   10.1150   10.9750   24.4440 S   0  0  0  0  0  0  0  0  0  0  0  0
   10.3340    9.1830   24.3130 C   0  0  0  0  0  0  0  0  0  0  0  0
    9.6010    8.6170   23.1530 C   0  0  0  0  0  0  0  0  0  0  0  0
 21 20  1  0
 20 19  1  0
 19 18  1  0
 18 17  1  0
 17 16  2  0
 16 15  1  0
 15 14  2  0
 14 13  1  0
 18 13  2  0
 13 12  1  0
 12 10  1  0
 11 10  2  0
 10  9  1  0
  9  7  1  0
  7  6  1  0
  6  5  1  0
  5  4  1  0
  4  2  1  6
  3  2  1  0
  2  1  2  0
  8  4  1  0
  9  8  1  0
M  END
$$$$
