A71EV2A-x4784_A_201_3_A71EV2A-x0911+A+147+1__LIG
     RDKit          3D

 18 19  0  0  0  0  0  0  0  0999 V2000
    7.1580   13.6860   21.8500 O   0  0  0  0  0  0  0  0  0  0  0  0
    7.9610   14.0330   22.6900 C   0  0  0  0  0  0  0  0  0  0  0  0
    8.9490   14.9050   22.4150 N   0  0  0  0  0  0  0  0  0  0  0  0
   10.0790   15.1850   23.3160 C   0  0  0  0  0  0  0  0  0  0  0  0
   11.4400   14.9400   22.6430 C   0  0  0  0  0  0  0  0  0  0  0  0
   11.4790   15.5420   21.2500 C   0  0  0  0  0  0  0  0  0  0  0  0
    9.0410   15.5470   21.1050 C   0  0  0  0  0  0  0  0  0  0  0  0
   10.2990   15.0340   20.4220 C   0  0  1  0  0  0  0  0  0  0  0  0
   10.4620   15.4090   18.9620 C   0  0  0  0  0  0  0  0  0  0  0  0
   10.0630   16.4960   18.5360 O   0  0  0  0  0  0  0  0  0  0  0  0
   11.1110   14.5210   18.2310 N   0  0  0  0  0  0  0  0  0  0  0  0
    7.8410   13.5270   24.1020 C   0  0  0  0  0  0  0  0  0  0  0  0
    7.7320   12.0170   24.1150 C   0  0  1  0  0  0  0  0  0  0  0  0
    9.2350   11.4380   23.2380 S   0  0  0  0  0  0  0  0  0  0  0  0
    9.2440    9.6510   23.5190 C   0  0  0  0  0  0  0  0  0  0  0  0
    8.8760    9.2790   24.8240 C   0  0  0  0  0  0  0  0  0  0  0  0
    7.2000    9.7880   25.2830 S   0  0  0  0  0  0  0  0  0  0  0  0
    7.5760   11.5330   25.5050 C   0  0  0  0  0  0  0  0  0  0  0  0
 11  9  1  0
 10  9  2  0
  8  9  1  6
  8  6  1  0
  6  5  1  0
  5  4  1  0
  4  3  1  0
  3  2  1  0
  2  1  2  0
 12  2  1  0
 13 12  1  1
 13 18  1  0
 18 17  1  0
 17 16  1  0
 16 15  1  0
 15 14  1  0
 14 13  1  0
  7  3  1  0
  8  7  1  0
M  END
$$$$
