XX01ZVNS2B-x4200_B_203_6_XX01ZVNS2B-x4590+B+203+1__LIG
     RDKit          3D

 31 36  0  0  0  0  0  0  0  0999 V2000
   -6.6950    5.3820  -13.3430 O   0  0  0  0  0  0  0  0  0  0  0  0
   -7.6460    4.7560  -13.8040 C   0  0  0  0  0  0  0  0  0  0  0  0
   -8.5550    4.1090  -13.0320 N   0  0  0  0  0  0  0  0  0  0  0  0
   -8.5870    4.0850  -11.6130 C   0  0  0  0  0  0  0  0  0  0  0  0
   -8.8740    2.9240  -10.8980 C   0  0  0  0  0  0  0  0  0  0  0  0
   -8.9120    2.9480   -9.5020 C   0  0  0  0  0  0  0  0  0  0  0  0
   -9.2600    1.8530   -8.5380 C   0  0  0  0  0  0  0  0  0  0  0  0
   -8.8490    2.4450   -7.2540 N   0  0  0  0  0  0  0  0  0  0  0  0
   -8.7400    3.9090   -7.3370 C   0  0  0  0  0  0  0  0  0  0  0  0
   -8.6620    4.1280   -8.8200 C   0  0  0  0  0  0  0  0  0  0  0  0
   -8.3800    5.2870   -9.5320 C   0  0  0  0  0  0  0  0  0  0  0  0
   -8.3420    5.2680  -10.9200 C   0  0  0  0  0  0  0  0  0  0  0  0
   -7.8300    4.6550  -15.2880 C   0  0  0  0  0  0  0  0  0  0  0  0
   -6.7760    4.9320  -16.1690 C   0  0  0  0  0  0  0  0  0  0  0  0
   -6.9490    4.8860  -17.5640 C   0  0  0  0  0  0  0  0  0  0  0  0
   -8.1920    4.5440  -18.0860 C   0  0  0  0  0  0  0  0  0  0  0  0
   -9.2430    4.2740  -17.2230 C   0  0  0  0  0  0  0  0  0  0  0  0
   -9.0660    4.3340  -15.8440 C   0  0  0  0  0  0  0  0  0  0  0  0
   -5.4930    5.2970  -15.9450 N   0  0  0  0  0  0  0  0  0  0  0  0
   -4.8190    5.5020  -17.1230 N   0  0  0  0  0  0  0  0  0  0  0  0
   -5.6660    5.2580  -18.0990 C   0  0  0  0  0  0  0  0  0  0  0  0
   -5.2640    5.3390  -19.5480 C   0  0  0  0  0  0  0  0  0  0  0  0
   -5.0720    6.7710  -20.1060 C   0  0  0  0  0  0  0  0  0  0  0  0
   -4.0260    6.1530  -20.9660 N   0  0  0  0  0  0  0  0  0  0  0  0
   -3.7580    5.1720  -19.8770 C   0  0  0  0  0  0  0  0  0  0  0  0
   -2.9240    6.9260  -21.5750 C   0  0  0  0  0  0  0  0  0  0  0  0
   -1.4610    6.5120  -21.4220 C   0  0  0  0  0  0  0  0  0  0  0  0
   -0.6750    7.0130  -22.6090 C   0  0  0  0  0  0  0  0  0  0  0  0
   -0.8370    8.4360  -22.7920 O   0  0  0  0  0  0  0  0  0  0  0  0
   -2.2100    8.8050  -23.0350 C   0  0  0  0  0  0  0  0  0  0  0  0
   -3.1080    8.4060  -21.8930 C   0  0  0  0  0  0  0  0  0  0  0  0
  2  1  2  0
  3  2  1  0
  4  3  1  0
  4 12  2  0
 12 11  1  0
 11 10  2  0
 10  6  1  0
  6  5  2  0
  5  4  1  0
  7  6  1  0
  8  7  1  0
  9  8  1  0
 10  9  1  0
 13  2  1  0
 13 18  2  0
 18 17  1  0
 17 16  2  0
 16 15  1  0
 15 21  1  0
 22 21  1  0
 22 25  1  0
 25 24  1  0
 26 24  1  0
 26 31  1  0
 31 30  1  0
 30 29  1  0
 29 28  1  0
 28 27  1  0
 27 26  1  0
 24 23  1  0
 23 22  1  0
 21 20  2  0
 20 19  1  0
 19 14  1  0
 14 13  1  0
 15 14  2  0
M  END
$$$$
