XX01ZVNS2B-x3936_B_203_1_XX01ZVNS2B-x4590+B+203+1__LIG
     RDKit          3D

 23 26  0  0  0  0  0  0  0  0999 V2000
   -8.5450    4.8230   -6.6710 O   0  0  0  0  0  0  0  0  0  0  0  0
   -8.6730    4.0170   -7.5900 C   0  0  0  0  0  0  0  0  0  0  0  0
   -8.5330    4.2530   -9.0390 C   0  0  0  0  0  0  0  0  0  0  0  0
   -8.2270    5.4060   -9.7590 C   0  0  0  0  0  0  0  0  0  0  0  0
   -8.1440    5.3550  -11.1400 C   0  0  0  0  0  0  0  0  0  0  0  0
   -8.9800    2.7140   -7.4510 N   0  0  0  0  0  0  0  0  0  0  0  0
   -9.0770    1.9860   -8.7080 C   0  0  0  0  0  0  0  0  0  0  0  0
   -8.7500    3.0600   -9.7040 C   0  0  0  0  0  0  0  0  0  0  0  0
   -8.6590    3.0060  -11.0900 C   0  0  0  0  0  0  0  0  0  0  0  0
   -8.3670    4.1580  -11.8160 C   0  0  0  0  0  0  0  0  0  0  0  0
   -8.3650    4.1150  -13.2340 N   0  0  0  0  0  0  0  0  0  0  0  0
   -7.5330    4.7800  -14.0750 C   0  0  0  0  0  0  0  0  0  0  0  0
   -6.6220    5.5040  -13.6890 O   0  0  0  0  0  0  0  0  0  0  0  0
   -7.7960    4.6010  -15.5410 C   0  0  0  0  0  0  0  0  0  0  0  0
   -6.7820    4.7980  -16.4850 C   0  0  0  0  0  0  0  0  0  0  0  0
   -5.3410    5.1800  -16.3410 C   0  0  0  0  0  0  0  0  0  0  0  0
   -9.0670    4.2420  -15.9860 C   0  0  0  0  0  0  0  0  0  0  0  0
   -9.3200    4.0730  -17.3420 C   0  0  0  0  0  0  0  0  0  0  0  0
   -8.3170    4.2600  -18.2820 C   0  0  0  0  0  0  0  0  0  0  0  0
   -7.0490    4.6270  -17.8390 C   0  0  0  0  0  0  0  0  0  0  0  0
   -5.8900    4.8690  -18.5730 N   0  0  0  0  0  0  0  0  0  0  0  0
   -4.8380    5.1740  -17.7680 C   0  0  0  0  0  0  0  0  0  0  0  0
   -3.6830    5.3700  -18.1440 O   0  0  0  0  0  0  0  0  0  0  0  0
 23 22  2  0
 22 16  1  0
 16 15  1  0
 15 20  2  0
 20 19  1  0
 19 18  2  0
 18 17  1  0
 17 14  2  0
 15 14  1  0
 14 12  1  0
 13 12  2  0
 12 11  1  0
 11 10  1  0
 10  5  1  0
  5  4  2  0
  4  3  1  0
  3  8  2  0
  9  8  1  0
 10  9  2  0
  8  7  1  0
  7  6  1  0
  6  2  1  0
  3  2  1  0
  2  1  2  0
 21 20  1  0
 22 21  1  0
M  END
$$$$
