A71EV2A-x3579_A_201_1_A71EV2A-x0911+A+147+1__LIG
     RDKit          3D

 19 20  0  0  0  0  0  0  0  0999 V2000
   11.3650   14.6340   25.0880 O   0  0  0  0  0  0  0  0  0  0  0  0
   11.2550   14.7910   23.8750 C   0  0  0  0  0  0  0  0  0  0  0  0
   12.4530   15.1840   23.0480 C   0  0  0  0  0  0  0  0  0  0  0  0
   12.1230   15.7370   21.6600 C   0  0  0  0  0  0  0  0  0  0  0  0
   11.0900   14.8420   20.9550 C   0  0  2  0  0  0  0  0  0  0  0  0
   10.8270   15.3170   19.5340 C   0  0  0  0  0  0  0  0  0  0  0  0
   10.3240   16.4240   19.3150 O   0  0  0  0  0  0  0  0  0  0  0  0
   11.1350   14.4680   18.5680 N   0  0  0  0  0  0  0  0  0  0  0  0
    9.8060   14.8580   21.7970 C   0  0  0  0  0  0  0  0  0  0  0  0
   10.0770   14.6180   23.2200 N   0  0  0  0  0  0  0  0  0  0  0  0
    8.8920   14.2020   23.9770 C   0  0  0  0  0  0  0  0  0  0  0  0
    8.7520   12.7010   24.1170 C   0  0  0  0  0  0  0  0  0  0  0  0
    7.7270   12.1780   24.9070 C   0  0  0  0  0  0  0  0  0  0  0  0
    6.9610   13.1160   25.5440 O   0  0  0  0  0  0  0  0  0  0  0  0
    5.9820   12.6640   26.4950 C   0  0  0  0  0  0  0  0  0  0  0  0
    9.5920   11.8080   23.4510 C   0  0  0  0  0  0  0  0  0  0  0  0
    9.4000   10.4420   23.5610 C   0  0  0  0  0  0  0  0  0  0  0  0
    8.3940    9.9490   24.3480 C   0  0  0  0  0  0  0  0  0  0  0  0
    7.5490   10.8090   25.0290 C   0  0  0  0  0  0  0  0  0  0  0  0
 15 14  1  0
 14 13  1  0
 13 19  2  0
 19 18  1  0
 18 17  2  0
 17 16  1  0
 16 12  2  0
 13 12  1  0
 12 11  1  0
 11 10  1  0
 10  9  1  0
  9  5  1  0
  5  6  1  6
  8  6  1  0
  7  6  2  0
  5  4  1  0
  4  3  1  0
  3  2  1  0
 10  2  1  0
  2  1  2  0
M  END
$$$$
