A71EV2A-x5036_A_201_2_A71EV2A-x0911+A+147+1__LIG
     RDKit          3D

 19 20  0  0  0  0  0  0  0  0999 V2000
   10.9160   14.7620   25.1440 O   0  0  0  0  0  0  0  0  0  0  0  0
   10.8830   14.8970   23.9310 C   0  0  0  0  0  0  0  0  0  0  0  0
   12.1550   15.1670   23.1640 C   0  0  0  0  0  0  0  0  0  0  0  0
   11.9390   15.6590   21.7290 C   0  0  0  0  0  0  0  0  0  0  0  0
   10.8380   14.8690   21.0040 C   0  0  2  0  0  0  0  0  0  0  0  0
   10.6480   15.3880   19.5880 C   0  0  0  0  0  0  0  0  0  0  0  0
   10.2410   16.5340   19.3790 O   0  0  0  0  0  0  0  0  0  0  0  0
   10.9520   14.5510   18.6080 N   0  0  0  0  0  0  0  0  0  0  0  0
    9.5340   15.0410   21.8000 C   0  0  0  0  0  0  0  0  0  0  0  0
    9.7270   14.8140   23.2390 N   0  0  0  0  0  0  0  0  0  0  0  0
    8.4660   14.5840   23.9550 C   0  0  0  0  0  0  0  0  0  0  0  0
    8.2010   13.1310   24.2680 C   0  0  0  0  0  0  0  0  0  0  0  0
    7.1800   12.7660   25.1390 C   0  0  0  0  0  0  0  0  0  0  0  0
    6.9100   11.4310   25.3970 C   0  0  0  0  0  0  0  0  0  0  0  0
    7.6490   10.4360   24.7820 C   0  0  0  0  0  0  0  0  0  0  0  0
    8.9510   12.1310   23.6600 C   0  0  0  0  0  0  0  0  0  0  0  0
    8.6620   10.7960   23.9050 C   0  0  0  0  0  0  0  0  0  0  0  0
    9.4710    9.9870   23.1570 O   0  0  0  0  0  0  0  0  0  0  0  0
    9.2600    8.5790   23.2280 C   0  0  0  0  0  0  0  0  0  0  0  0
 19 18  1  0
 18 17  1  0
 17 15  2  0
 15 14  1  0
 14 13  2  0
 13 12  1  0
 12 11  1  0
 11 10  1  0
 10  9  1  0
  9  5  1  0
  5  6  1  6
  8  6  1  0
  7  6  2  0
  5  4  1  0
  4  3  1  0
  3  2  1  0
 10  2  1  0
  2  1  2  0
 16 12  2  0
 17 16  1  0
M  END
$$$$
