XX01ZVNS2B-x3941_B_203_1_XX01ZVNS2B-x4590+B+203+1__LIG
     RDKit          3D

 22 25  0  0  0  0  0  0  0  0999 V2000
   -6.3410    5.0860  -12.9050 O   0  0  0  0  0  0  0  0  0  0  0  0
   -7.3140    4.6800  -13.4920 C   0  0  0  0  0  0  0  0  0  0  0  0
   -7.4760    4.6860  -14.9740 C   0  0  0  0  0  0  0  0  0  0  0  0
   -6.4000    4.8980  -15.8470 C   0  0  0  0  0  0  0  0  0  0  0  0
   -4.9410    5.1430  -15.5990 C   0  0  0  0  0  0  0  0  0  0  0  0
   -8.7470    4.4780  -15.5100 C   0  0  0  0  0  0  0  0  0  0  0  0
   -8.9420    4.4840  -16.8860 C   0  0  0  0  0  0  0  0  0  0  0  0
   -7.8810    4.6990  -17.7560 C   0  0  0  0  0  0  0  0  0  0  0  0
   -6.6100    4.9000  -17.2210 C   0  0  0  0  0  0  0  0  0  0  0  0
   -5.3930    5.0900  -17.8760 N   0  0  0  0  0  0  0  0  0  0  0  0
   -4.3650    5.2340  -16.9950 C   0  0  0  0  0  0  0  0  0  0  0  0
   -3.1860    5.4030  -17.2960 O   0  0  0  0  0  0  0  0  0  0  0  0
   -8.3970    4.1470  -12.8580 O   0  0  0  0  0  0  0  0  0  0  0  0
   -8.3950    4.0820  -11.4510 C   0  0  0  0  0  0  0  0  0  0  0  0
   -8.6300    2.8710  -10.8170 C   0  0  0  0  0  0  0  0  0  0  0  0
   -8.7590    2.8310   -9.4320 C   0  0  0  0  0  0  0  0  0  0  0  0
   -9.0820    1.6710   -8.5370 C   0  0  0  0  0  0  0  0  0  0  0  0
   -8.8250    2.2430   -7.2160 N   0  0  0  0  0  0  0  0  0  0  0  0
   -8.7890    3.7010   -7.2250 C   0  0  0  0  0  0  0  0  0  0  0  0
   -8.6260    3.9920   -8.6870 C   0  0  0  0  0  0  0  0  0  0  0  0
   -8.3680    5.1970   -9.3330 C   0  0  0  0  0  0  0  0  0  0  0  0
   -8.2510    5.2450  -10.7100 C   0  0  0  0  0  0  0  0  0  0  0  0
 12 11  2  0
 11  5  1  0
  5  4  1  0
  4  9  2  0
  9  8  1  0
  8  7  2  0
  7  6  1  0
  6  3  2  0
  4  3  1  0
  3  2  1  0
  2  1  2  0
 13  2  1  0
 14 13  1  0
 14 22  2  0
 22 21  1  0
 21 20  2  0
 20 16  1  0
 16 15  2  0
 15 14  1  0
 17 16  1  0
 18 17  1  0
 19 18  1  0
 20 19  1  0
 10  9  1  0
 11 10  1  0
M  END
$$$$
