A71EV2A-x4343_C_201_1_A71EV2A-x0911+A+147+1__LIG
     RDKit          3D

 20 21  0  0  0  0  0  0  0  0999 V2000
    6.6700   12.7330   26.4780 Br  0  0  0  0  0  0  0  0  0  0  0  0
    7.6250   11.3990   25.5560 C   0  0  0  0  0  0  0  0  0  0  0  0
    7.2200   10.0890   25.6240 C   0  0  0  0  0  0  0  0  0  0  0  0
    6.2130    9.6830   26.3610 O   0  0  0  0  0  0  0  0  0  0  0  0
    7.8590    9.0890   24.9110 N   0  0  0  0  0  0  0  0  0  0  0  0
    8.9030    9.4650   24.1540 C   0  0  0  0  0  0  0  0  0  0  0  0
    9.3590   10.7620   24.0600 C   0  0  0  0  0  0  0  0  0  0  0  0
    8.7170   11.7670   24.7790 C   0  0  0  0  0  0  0  0  0  0  0  0
    9.1920   13.1970   24.6810 C   0  0  0  0  0  0  0  0  0  0  0  0
    8.8440   13.7850   23.3250 C   0  0  0  0  0  0  0  0  0  0  0  0
    7.9470   13.3180   22.6280 O   0  0  0  0  0  0  0  0  0  0  0  0
    9.5860   14.8420   22.9340 N   0  0  0  0  0  0  0  0  0  0  0  0
   10.6160   15.5170   23.7400 C   0  0  0  0  0  0  0  0  0  0  0  0
   11.9810   15.3660   23.0770 C   0  0  0  0  0  0  0  0  0  0  0  0
   11.9340   15.8260   21.6170 C   0  0  0  0  0  0  0  0  0  0  0  0
    9.4840   15.3500   21.5650 C   0  0  0  0  0  0  0  0  0  0  0  0
   10.8100   15.1100   20.8430 C   0  0  1  0  0  0  0  0  0  0  0  0
   10.7320   15.5990   19.4090 C   0  0  0  0  0  0  0  0  0  0  0  0
   10.3620   16.7530   19.1520 O   0  0  0  0  0  0  0  0  0  0  0  0
   11.0090   14.6990   18.4800 N   0  0  0  0  0  0  0  0  0  0  0  0
 20 18  1  0
 19 18  2  0
 17 18  1  6
 17 15  1  0
 15 14  1  0
 14 13  1  0
 13 12  1  0
 12 10  1  0
 11 10  2  0
 10  9  1  0
  9  8  1  0
  8  7  2  0
  7  6  1  0
  6  5  2  0
  5  3  1  0
  4  3  1  0
  3  2  2  0
  8  2  1  0
  2  1  1  0
 16 12  1  0
 17 16  1  0
M  END
$$$$
