XX01ZVNS2B-x5010_B_203_6_XX01ZVNS2B-x4590+B+203+1__LIG
     RDKit          3D

 25 28  0  0  0  0  0  0  0  0999 V2000
  -10.4390    3.9270  -18.2580 Cl  0  0  0  0  0  0  0  0  0  0  0  0
   -8.9160    4.3220  -17.5090 C   0  0  0  0  0  0  0  0  0  0  0  0
   -8.8390    4.3840  -16.1240 C   0  0  0  0  0  0  0  0  0  0  0  0
   -7.8330    4.5960  -18.3210 C   0  0  0  0  0  0  0  0  0  0  0  0
   -6.6450    4.9420  -17.7000 C   0  0  0  0  0  0  0  0  0  0  0  0
   -5.4140    5.2160  -18.2240 N   0  0  0  0  0  0  0  0  0  0  0  0
   -4.9960    5.1710  -19.6280 C   0  0  0  0  0  0  0  0  0  0  0  0
   -4.9200    6.4910  -20.4230 C   0  0  0  0  0  0  0  0  0  0  0  0
   -3.7100    5.9340  -21.0730 N   0  0  0  0  0  0  0  0  0  0  0  0
   -3.4920    5.0080  -19.9380 C   0  0  0  0  0  0  0  0  0  0  0  0
   -4.5030    5.4910  -17.2400 N   0  0  0  0  0  0  0  0  0  0  0  0
   -5.1530    5.3860  -16.0980 C   0  0  0  0  0  0  0  0  0  0  0  0
   -6.5140    5.0380  -16.3060 C   0  0  0  0  0  0  0  0  0  0  0  0
   -7.6430    4.7700  -15.5090 C   0  0  0  0  0  0  0  0  0  0  0  0
   -7.6000    5.1080  -14.0450 C   0  0  0  0  0  0  0  0  0  0  0  0
   -6.9840    6.1050  -13.6740 O   0  0  0  0  0  0  0  0  0  0  0  0
   -8.2270    4.2610  -13.1800 N   0  0  0  0  0  0  0  0  0  0  0  0
   -8.3250    4.4100  -11.7800 C   0  0  0  0  0  0  0  0  0  0  0  0
   -8.1180    5.6680  -11.1920 C   0  0  0  0  0  0  0  0  0  0  0  0
   -8.1980    5.7680   -9.8160 C   0  0  0  0  0  0  0  0  0  0  0  0
   -8.6080    3.3070  -11.0620 N   0  0  0  0  0  0  0  0  0  0  0  0
   -8.6870    3.4140   -9.7200 C   0  0  0  0  0  0  0  0  0  0  0  0
   -9.0050    2.1680   -8.9460 C   0  0  0  0  0  0  0  0  0  0  0  0
   -8.4810    4.6550   -9.0320 C   0  0  0  0  0  0  0  0  0  0  0  0
   -8.5430    4.7920   -7.5320 C   0  0  0  0  0  0  0  0  0  0  0  0
 25 24  1  0
 24 20  1  0
 20 19  2  0
 19 18  1  0
 18 17  1  0
 17 15  1  0
 16 15  2  0
 15 14  1  0
 14  3  1  0
  3  2  2  0
  2  1  1  0
  4  2  1  0
  5  4  2  0
  5 13  1  0
 14 13  2  0
 13 12  1  0
 12 11  2  0
 11  6  1  0
  6  5  1  0
  7  6  1  0
  7 10  1  0
 10  9  1  0
  9  8  1  0
  8  7  1  0
 21 18  2  0
 22 21  1  0
 24 22  2  0
 23 22  1  0
M  END
$$$$
