A71EV2A-x5106_A_201_2_A71EV2A-x0911+A+147+1__LIG
     RDKit          3D

 22 24  0  0  0  0  0  0  0  0999 V2000
   10.6080   15.6610   24.3580 O   0  0  0  0  0  0  0  0  0  0  0  0
   10.3930   15.3540   23.1880 C   0  0  0  0  0  0  0  0  0  0  0  0
   11.1910   15.7730   21.9760 C   0  0  0  0  0  0  0  0  0  0  0  0
   10.7040   14.8220   20.8710 C   0  0  2  0  0  0  0  0  0  0  0  0
   10.7090   15.4700   19.4970 C   0  0  0  0  0  0  0  0  0  0  0  0
   10.3580   16.6460   19.3420 O   0  0  0  0  0  0  0  0  0  0  0  0
   10.9950   14.6650   18.4840 N   0  0  0  0  0  0  0  0  0  0  0  0
    9.2800   14.4810   21.2990 C   0  0  0  0  0  0  0  0  0  0  0  0
    9.3440   14.6160   22.7610 N   0  0  0  0  0  0  0  0  0  0  0  0
    8.2810   14.1190   23.6370 C   0  0  1  0  0  0  0  0  0  0  0  0
    6.9590   14.3160   22.9280 C   0  0  0  0  0  0  0  0  0  0  0  0
    6.2510   13.3440   22.3840 N   0  0  0  0  0  0  0  0  0  0  0  0
    5.1290   13.9610   21.8730 C   0  0  0  0  0  0  0  0  0  0  0  0
    5.1800   15.2940   22.0980 C   0  0  0  0  0  0  0  0  0  0  0  0
    6.3580   15.5240   22.7600 N   0  0  0  0  0  0  0  0  0  0  0  0
    6.8870   16.8440   23.1000 C   0  0  0  0  0  0  0  0  0  0  0  0
    8.4620   12.6560   24.0370 C   0  0  0  0  0  0  0  0  0  0  0  0
    7.6260   12.0790   24.9890 C   0  0  0  0  0  0  0  0  0  0  0  0
    7.7010   10.7200   25.2640 C   0  0  0  0  0  0  0  0  0  0  0  0
    8.6180    9.9280   24.6030 C   0  0  0  0  0  0  0  0  0  0  0  0
    9.4660   10.4930   23.6760 C   0  0  0  0  0  0  0  0  0  0  0  0
    9.4020   11.8490   23.4050 C   0  0  0  0  0  0  0  0  0  0  0  0
 16 15  1  0
 15 14  1  0
 14 13  2  0
 13 12  1  0
 12 11  2  0
 15 11  1  0
 11 10  1  0
 17 10  1  0
 17 22  2  0
 22 21  1  0
 21 20  2  0
 20 19  1  0
 19 18  2  0
 18 17  1  0
 10  9  1  6
  9  8  1  0
  8  4  1  0
  4  5  1  6
  7  5  1  0
  6  5  2  0
  4  3  1  0
  3  2  1  0
  9  2  1  0
  2  1  2  0
M  END
$$$$
