A71EV2A-x4509_A_201_1_A71EV2A-x0911+A+147+1__LIG
     RDKit          3D

 20 21  0  0  0  0  0  0  0  0999 V2000
    9.9490    9.0240   23.4600 F   0  0  0  0  0  0  0  0  0  0  0  0
    9.1130    9.8720   24.1230 C   0  0  0  0  0  0  0  0  0  0  0  0
    7.9890    9.3800   24.7290 C   0  0  0  0  0  0  0  0  0  0  0  0
    7.1470   10.1830   25.3910 N   0  0  0  0  0  0  0  0  0  0  0  0
    7.4320   11.4920   25.4240 C   0  0  0  0  0  0  0  0  0  0  0  0
    9.4160   11.2040   24.1620 C   0  0  0  0  0  0  0  0  0  0  0  0
    8.5410   12.0650   24.8140 C   0  0  0  0  0  0  0  0  0  0  0  0
    8.7360   13.5690   24.6840 C   0  0  2  0  0  0  0  0  0  0  0  0
    7.7660   14.4370   25.4940 C   0  0  0  0  0  0  0  0  0  0  0  0
    8.6770   13.9580   23.2160 C   0  0  0  0  0  0  0  0  0  0  0  0
    7.8770   13.4230   22.4640 O   0  0  0  0  0  0  0  0  0  0  0  0
    9.5530   14.8910   22.7700 N   0  0  0  0  0  0  0  0  0  0  0  0
    9.4870   15.3750   21.3880 C   0  0  0  0  0  0  0  0  0  0  0  0
   10.8270   15.1380   20.6860 C   0  0  1  0  0  0  0  0  0  0  0  0
   10.7380   15.6520   19.2590 C   0  0  0  0  0  0  0  0  0  0  0  0
   10.8550   14.8850   18.3000 O   0  0  0  0  0  0  0  0  0  0  0  0
   10.5020   16.9470   19.1210 N   0  0  0  0  0  0  0  0  0  0  0  0
   11.9420   15.8460   21.4710 C   0  0  0  0  0  0  0  0  0  0  0  0
   11.9650   15.4120   22.9360 C   0  0  0  0  0  0  0  0  0  0  0  0
   10.5940   15.5590   23.5730 C   0  0  0  0  0  0  0  0  0  0  0  0
  8  9  1  1
 10  8  1  0
 11 10  2  0
 12 10  1  0
 12 20  1  0
 20 19  1  0
 19 18  1  0
 18 14  1  0
 14 15  1  6
 17 15  1  0
 16 15  2  0
 14 13  1  0
 13 12  1  0
  8  7  1  0
  7  5  1  0
  5  4  2  0
  4  3  1  0
  3  2  2  0
  2  1  1  0
  6  2  1  0
  7  6  2  0
M  END
$$$$
