A71EV2A-x5277_A_201_3_A71EV2A-x0911+A+147+1__LIG
     RDKit          3D

 20 22  0  0  0  0  0  0  0  0999 V2000
    9.3850   10.1900   23.6920 Cl  0  0  0  0  0  0  0  0  0  0  0  0
    8.0880   10.6280   24.7610 C   0  0  0  0  0  0  0  0  0  0  0  0
    7.2450    9.6210   25.2000 C   0  0  0  0  0  0  0  0  0  0  0  0
    6.2590    9.9200   26.1220 C   0  0  0  0  0  0  0  0  0  0  0  0
    6.1150   11.2090   26.5880 C   0  0  0  0  0  0  0  0  0  0  0  0
    6.9500   12.2120   26.1240 C   0  0  0  0  0  0  0  0  0  0  0  0
    7.9590   11.9450   25.2000 C   0  0  0  0  0  0  0  0  0  0  0  0
    8.9080   13.0440   24.7750 C   0  0  0  0  0  0  0  0  0  0  0  0
    8.8390   13.3690   23.2900 C   0  0  0  0  0  0  0  0  0  0  0  0
    7.8740   13.0320   22.6170 O   0  0  0  0  0  0  0  0  0  0  0  0
    9.8750   14.0750   22.7640 N   0  0  0  0  0  0  0  0  0  0  0  0
    9.7470   14.6430   21.4170 C   0  0  0  0  0  0  0  0  0  0  0  0
   11.1270   14.3190   23.4930 C   0  0  0  0  0  0  0  0  0  0  0  0
   12.1670   15.0730   22.6710 C   0  0  2  0  0  0  0  0  0  0  0  0
   11.5510   16.3390   22.0230 C   0  0  0  0  0  0  0  0  0  0  0  0
   12.2590   14.4690   21.2460 C   0  0  0  0  0  0  0  0  0  0  0  0
   11.0240   15.3650   20.9240 C   0  0  1  0  0  0  0  0  0  0  0  0
   10.7790   15.7840   19.4760 C   0  0  0  0  0  0  0  0  0  0  0  0
   10.5820   16.9640   19.1910 O   0  0  0  0  0  0  0  0  0  0  0  0
   10.7740   14.8280   18.5620 N   0  0  0  0  0  0  0  0  0  0  0  0
 20 18  1  0
 19 18  2  0
 17 18  1  6
 17 12  1  0
 12 11  1  0
 11  9  1  0
 10  9  2  0
  9  8  1  0
  8  7  1  0
  7  6  2  0
  6  5  1  0
  5  4  2  0
  4  3  1  0
  3  2  2  0
  7  2  1  0
  2  1  1  0
 13 11  1  0
 14 13  1  1
 15 14  1  0
 17 15  1  0
 16 14  1  0
 17 16  1  0
M  END
$$$$
