A71EV2A-x3564_A_201_1_A71EV2A-x0911+A+147+1__LIG
     RDKit          3D

 19 20  0  0  0  0  0  0  0  0999 V2000
   12.4680   16.5520   18.4160 O   0  0  0  0  0  0  0  0  0  0  0  0
   12.1680   15.4710   18.9530 C   0  0  0  0  0  0  0  0  0  0  0  0
   11.5700   14.4630   18.2860 N   0  0  0  0  0  0  0  0  0  0  0  0
   12.4820   15.2760   20.4080 C   0  0  0  0  0  0  0  0  0  0  0  0
   13.4630   16.0630   21.0050 C   0  0  0  0  0  0  0  0  0  0  0  0
   13.8000   15.9770   22.2960 N   0  0  0  0  0  0  0  0  0  0  0  0
   13.1530   15.0770   23.0430 C   0  0  0  0  0  0  0  0  0  0  0  0
   11.8160   14.3530   21.2090 C   0  0  0  0  0  0  0  0  0  0  0  0
   12.1510   14.2450   22.5560 C   0  0  0  0  0  0  0  0  0  0  0  0
   11.4750   13.2770   23.4750 C   0  0  0  0  0  0  0  0  0  0  0  0
   12.1170   12.6680   24.3210 O   0  0  0  0  0  0  0  0  0  0  0  0
   10.1310   13.1380   23.3290 N   0  0  0  0  0  0  0  0  0  0  0  0
    9.2260   12.3880   24.1370 C   0  0  0  0  0  0  0  0  0  0  0  0
    9.1610   10.9840   24.0130 C   0  0  0  0  0  0  0  0  0  0  0  0
   10.0740   10.2050   23.1030 C   0  0  0  0  0  0  0  0  0  0  0  0
    8.3740   13.0690   25.0110 C   0  0  0  0  0  0  0  0  0  0  0  0
    7.4450   12.3580   25.7540 C   0  0  0  0  0  0  0  0  0  0  0  0
    7.3560   10.9870   25.6250 C   0  0  0  0  0  0  0  0  0  0  0  0
    8.2050   10.3100   24.7720 C   0  0  0  0  0  0  0  0  0  0  0  0
 15 14  1  0
 14 19  2  0
 19 18  1  0
 18 17  2  0
 17 16  1  0
 16 13  2  0
 14 13  1  0
 13 12  1  0
 12 10  1  0
 11 10  2  0
 10  9  1  0
  9  7  1  0
  7  6  2  0
  6  5  1  0
  5  4  2  0
  4  2  1  0
  3  2  1  0
  2  1  2  0
  8  4  1  0
  9  8  2  0
M  END
$$$$
