XX01ZVNS2B-x1730_B_301_1_XX01ZVNS2B-x4590+B+203+1__LIG
     RDKit          3D

 23 24  0  0  0  0  0  0  0  0999 V2000
   -5.2000    7.9180  -13.1920 C   0  0  0  0  0  0  0  0  0  0  0  0
   -6.5260    8.2440  -12.5800 C   0  0  0  0  0  0  0  0  0  0  0  0
   -7.1460    9.2550  -12.9020 O   0  0  0  0  0  0  0  0  0  0  0  0
   -7.0360    7.3710  -11.7040 N   0  0  0  0  0  0  0  0  0  0  0  0
   -7.3040    5.9840  -12.0430 C   0  0  1  0  0  0  0  0  0  0  0  0
   -7.8550    5.2320  -10.8330 C   0  0  0  0  0  0  0  0  0  0  0  0
   -7.9130    3.7190  -10.9920 C   0  0  0  0  0  0  0  0  0  0  0  0
   -7.6570    2.9380   -9.7120 C   0  0  0  0  0  0  0  0  0  0  0  0
   -8.8630    2.8570   -8.8010 C   0  0  0  0  0  0  0  0  0  0  0  0
   -8.9180    1.5600   -8.0840 N   0  0  0  0  0  0  0  0  0  0  0  0
   -8.2570    5.9090  -13.2450 C   0  0  0  0  0  0  0  0  0  0  0  0
   -9.1410    6.7390  -13.4220 O   0  0  0  0  0  0  0  0  0  0  0  0
   -8.0190    4.8920  -14.0920 N   0  0  0  0  0  0  0  0  0  0  0  0
   -7.2610    4.9560  -15.2620 C   0  0  0  0  0  0  0  0  0  0  0  0
   -5.9390    5.3280  -15.3450 C   0  0  0  0  0  0  0  0  0  0  0  0
   -5.2810    5.3550  -16.5880 C   0  0  0  0  0  0  0  0  0  0  0  0
   -5.9380    5.0220  -17.7360 C   0  0  0  0  0  0  0  0  0  0  0  0
   -7.2940    4.6370  -17.6880 C   0  0  0  0  0  0  0  0  0  0  0  0
   -8.0140    4.2750  -18.8390 C   0  0  0  0  0  0  0  0  0  0  0  0
   -9.3150    3.9060  -18.7110 C   0  0  0  0  0  0  0  0  0  0  0  0
   -9.9050    3.9100  -17.4350 C   0  0  0  0  0  0  0  0  0  0  0  0
   -9.2720    4.2280  -16.3240 N   0  0  0  0  0  0  0  0  0  0  0  0
   -7.9640    4.5990  -16.4460 C   0  0  0  0  0  0  0  0  0  0  0  0
  1  2  1  0
  2  3  2  0
  2  4  1  0
  4  5  1  0
  5  6  1  1
  6  7  1  0
  7  8  1  0
  8  9  1  0
  9 10  1  0
  5 11  1  0
 11 12  2  0
 11 13  1  0
 13 14  1  0
 14 15  2  0
 15 16  1  0
 16 17  2  0
 17 18  1  0
 18 19  2  0
 19 20  1  0
 20 21  2  0
 21 22  1  0
 22 23  2  0
 14 23  1  0
 18 23  1  0
M  CHG  1  10   1
M  END
$$$$
