A71EV2A-x4959_A_201_1_A71EV2A-x0911+A+147+1__LIG
     RDKit          3D

 22 24  0  0  0  0  0  0  0  0999 V2000
    7.6190   13.5470   22.4760 O   0  0  0  0  0  0  0  0  0  0  0  0
    8.6100   13.8510   23.1180 C   0  0  0  0  0  0  0  0  0  0  0  0
    9.2850   15.0000   22.8670 N   0  0  0  0  0  0  0  0  0  0  0  0
   10.4170   15.4310   23.6990 C   0  0  0  0  0  0  0  0  0  0  0  0
   11.7440   15.1830   23.0110 C   0  0  0  0  0  0  0  0  0  0  0  0
   11.7290   15.7330   21.5920 C   0  0  0  0  0  0  0  0  0  0  0  0
    9.2890   15.5400   21.5090 C   0  0  0  0  0  0  0  0  0  0  0  0
   10.5750   15.1270   20.7950 C   0  0  1  0  0  0  0  0  0  0  0  0
   10.5730   15.6180   19.3570 C   0  0  0  0  0  0  0  0  0  0  0  0
   10.2990   16.7810   19.0810 O   0  0  0  0  0  0  0  0  0  0  0  0
   10.8660   14.7060   18.4510 N   0  0  0  0  0  0  0  0  0  0  0  0
    9.0990   13.0900   24.1310 N   0  0  0  0  0  0  0  0  0  0  0  0
    8.5600   11.8520   24.5250 C   0  0  0  0  0  0  0  0  0  0  0  0
    7.4170   11.8310   25.3340 C   0  0  0  0  0  0  0  0  0  0  0  0
    6.8390   13.3940   25.9420 S   0  0  0  0  0  0  0  0  0  0  0  0
    5.5670   13.1130   27.2300 C   0  0  0  0  0  0  0  0  0  0  0  0
    4.4900   12.0990   27.0030 C   0  0  0  0  0  0  0  0  0  0  0  0
    5.4930   11.8870   28.0860 C   0  0  0  0  0  0  0  0  0  0  0  0
    6.8010   10.6170   25.6200 C   0  0  0  0  0  0  0  0  0  0  0  0
    7.3320    9.4400   25.1220 C   0  0  0  0  0  0  0  0  0  0  0  0
    8.4730    9.4580   24.3530 C   0  0  0  0  0  0  0  0  0  0  0  0
    9.0930   10.6570   24.0520 C   0  0  0  0  0  0  0  0  0  0  0  0
 11  9  1  0
 10  9  2  0
  8  9  1  6
  8  6  1  0
  6  5  1  0
  5  4  1  0
  4  3  1  0
  3  2  1  0
  2  1  2  0
 12  2  1  0
 13 12  1  0
 13 22  1  0
 22 21  2  0
 21 20  1  0
 20 19  2  0
 19 14  1  0
 14 13  2  0
 15 14  1  0
 16 15  1  0
 16 18  1  0
 18 17  1  0
 17 16  1  0
  7  3  1  0
  8  7  1  0
M  END
$$$$
