XX01ZVNS2B-x3439_B_203_1_XX01ZVNS2B-x4590+B+203+1__LIG
     RDKit          3D

 28 31  0  0  0  0  0  0  0  0999 V2000
   -7.5170    1.8170  -13.8250 O   0  0  0  0  0  0  0  0  0  0  0  0
   -6.9030    2.7310  -13.2930 C   0  0  0  0  0  0  0  0  0  0  0  0
   -5.8640    2.5300  -12.4820 N   0  0  0  0  0  0  0  0  0  0  0  0
   -4.6340    3.3040  -12.5240 C   0  0  0  0  0  0  0  0  0  0  0  0
   -3.8970    3.1480  -13.8330 C   0  0  0  0  0  0  0  0  0  0  0  0
   -4.1960    1.9780  -14.4550 F   0  0  0  0  0  0  0  0  0  0  0  0
   -2.5570    3.1150  -13.6240 F   0  0  0  0  0  0  0  0  0  0  0  0
   -7.3450    4.1980  -13.4550 C   0  0  2  0  0  0  0  0  0  0  0  0
   -8.4510    4.5370  -12.5890 N   0  0  0  0  0  0  0  0  0  0  0  0
   -8.3880    4.4490  -11.2050 C   0  0  0  0  0  0  0  0  0  0  0  0
   -8.0900    5.5950  -10.4550 C   0  0  0  0  0  0  0  0  0  0  0  0
   -8.1040    5.5390   -9.0710 C   0  0  0  0  0  0  0  0  0  0  0  0
   -8.4180    4.3370   -8.4450 C   0  0  0  0  0  0  0  0  0  0  0  0
   -8.7720    3.2180   -9.1880 C   0  0  0  0  0  0  0  0  0  0  0  0
   -8.7700    3.2610  -10.5750 C   0  0  0  0  0  0  0  0  0  0  0  0
   -9.1460    2.0880   -8.2710 C   0  0  0  0  0  0  0  0  0  0  0  0
   -8.6790    2.5740   -6.9650 N   0  0  0  0  0  0  0  0  0  0  0  0
   -8.5860    4.0430   -6.9820 C   0  0  0  0  0  0  0  0  0  0  0  0
   -7.5530    4.5200  -14.9310 C   0  0  0  0  0  0  0  0  0  0  0  0
   -8.6600    4.1360  -15.6870 C   0  0  0  0  0  0  0  0  0  0  0  0
   -8.6860    4.3840  -17.0500 C   0  0  0  0  0  0  0  0  0  0  0  0
  -10.0490    3.8980  -18.0320 Cl  0  0  0  0  0  0  0  0  0  0  0  0
   -7.6500    5.0450  -17.6640 C   0  0  0  0  0  0  0  0  0  0  0  0
   -6.5650    5.4840  -16.9230 C   0  0  0  0  0  0  0  0  0  0  0  0
   -5.4000    6.1560  -17.5620 C   0  0  0  0  0  0  0  0  0  0  0  0
   -4.0990    5.4500  -17.7490 C   0  0  0  0  0  0  0  0  0  0  0  0
   -4.1880    6.5570  -16.7860 C   0  0  0  0  0  0  0  0  0  0  0  0
   -6.5090    5.1600  -15.5770 C   0  0  0  0  0  0  0  0  0  0  0  0
  1  2  2  0
  2  3  1  0
  3  4  1  0
  4  5  1  0
  5  6  1  0
  5  7  1  0
  2  8  1  0
  8  9  1  1
  9 10  1  0
 10 11  2  0
 11 12  1  0
 12 13  2  0
 13 14  1  0
 14 15  2  0
 14 16  1  0
 16 17  1  0
 17 18  1  0
  8 19  1  0
 19 20  2  0
 20 21  1  0
 21 22  1  0
 21 23  2  0
 23 24  1  0
 24 25  1  0
 25 26  1  0
 26 27  1  0
 24 28  2  0
 10 15  1  0
 19 28  1  0
 13 18  1  0
 25 27  1  0
M  END
$$$$
