A71EV2A-x3225_A_201_1_A71EV2A-x0911+A+147+1__LIG
     RDKit          3D

 22 24  0  0  0  0  0  0  0  0999 V2000
   10.4100   16.5980   19.2360 O   0  0  0  0  0  0  0  0  0  0  0  0
   10.8550   15.4680   19.4580 C   0  0  0  0  0  0  0  0  0  0  0  0
   11.2220   14.6370   18.4920 N   0  0  0  0  0  0  0  0  0  0  0  0
   11.0030   14.9480   20.8780 C   0  0  1  0  0  0  0  0  0  0  0  0
   12.0780   15.7160   21.6610 C   0  0  0  0  0  0  0  0  0  0  0  0
   12.2690   15.1330   23.0630 C   0  0  0  0  0  0  0  0  0  0  0  0
   10.9450   15.0840   23.8240 C   0  0  0  0  0  0  0  0  0  0  0  0
    9.7070   15.0900   21.6800 C   0  0  0  0  0  0  0  0  0  0  0  0
    9.8780   14.4870   23.0030 N   0  0  0  0  0  0  0  0  0  0  0  0
    9.0810   13.4730   23.3980 C   0  0  0  0  0  0  0  0  0  0  0  0
    8.0510   13.1790   22.8020 O   0  0  0  0  0  0  0  0  0  0  0  0
    9.5210   12.6920   24.6350 C   0  0  0  0  0  0  0  0  0  0  0  0
    8.6430   11.5540   24.8750 N   0  0  0  0  0  0  0  0  0  0  0  0
    8.7550   10.2830   24.3780 C   0  0  0  0  0  0  0  0  0  0  0  0
    9.8610    9.8580   23.4860 C   0  0  0  0  0  0  0  0  0  0  0  0
    7.5110   11.5810   25.6770 C   0  0  0  0  0  0  0  0  0  0  0  0
    6.9960   10.2920   25.6230 C   0  0  0  0  0  0  0  0  0  0  0  0
    7.7900    9.5000   24.7950 N   0  0  0  0  0  0  0  0  0  0  0  0
    6.8790   12.5990   26.3740 C   0  0  0  0  0  0  0  0  0  0  0  0
    5.6910   12.2950   27.0180 C   0  0  0  0  0  0  0  0  0  0  0  0
    5.1720   11.0040   26.9890 C   0  0  0  0  0  0  0  0  0  0  0  0
    5.8210    9.9880   26.3070 C   0  0  0  0  0  0  0  0  0  0  0  0
 15 14  1  0
 14 18  2  0
 18 17  1  0
 17 22  2  0
 22 21  1  0
 21 20  2  0
 20 19  1  0
 19 16  2  0
 17 16  1  0
 16 13  1  0
 14 13  1  0
 13 12  1  0
 12 10  1  0
 11 10  2  0
 10  9  1  0
  9  7  1  0
  7  6  1  0
  6  5  1  0
  5  4  1  0
  4  2  1  6
  3  2  1  0
  2  1  2  0
  8  4  1  0
  9  8  1  0
M  END
$$$$
