A71EV2A-x3557_C_201_1_A71EV2A-x0911+A+147+1__LIG
     RDKit          3D

 22 23  0  0  0  0  0  0  0  0999 V2000
   10.4320   16.7300   19.1100 O   0  0  0  0  0  0  0  0  0  0  0  0
   10.8030   15.5690   19.3440 C   0  0  0  0  0  0  0  0  0  0  0  0
   10.9940   14.6530   18.4000 N   0  0  0  0  0  0  0  0  0  0  0  0
   10.9730   15.0800   20.7720 C   0  0  1  0  0  0  0  0  0  0  0  0
   12.1540   15.7630   21.4870 C   0  0  0  0  0  0  0  0  0  0  0  0
   12.3000   15.2440   22.9200 C   0  0  0  0  0  0  0  0  0  0  0  0
   10.9780   15.3710   23.6830 C   0  0  0  0  0  0  0  0  0  0  0  0
    9.6870   15.2570   21.5800 C   0  0  0  0  0  0  0  0  0  0  0  0
    9.8770   14.7380   22.9360 N   0  0  0  0  0  0  0  0  0  0  0  0
    9.0830   13.7300   23.3710 C   0  0  0  0  0  0  0  0  0  0  0  0
    8.1280   13.3120   22.7140 O   0  0  0  0  0  0  0  0  0  0  0  0
    9.4480   13.1380   24.7220 C   0  0  0  0  0  0  0  0  0  0  0  0
    8.3710   12.2040   25.2250 C   0  0  0  0  0  0  0  0  0  0  0  0
    7.4010   12.6390   26.1220 C   0  0  0  0  0  0  0  0  0  0  0  0
    6.4830   11.7610   26.6660 C   0  0  0  0  0  0  0  0  0  0  0  0
    8.3770   10.8600   24.8570 C   0  0  0  0  0  0  0  0  0  0  0  0
    9.3480   10.5170   23.9540 O   0  0  0  0  0  0  0  0  0  0  0  0
    9.4960    9.1310   23.6150 C   0  0  0  0  0  0  0  0  0  0  0  0
    7.4570    9.9710   25.3970 C   0  0  0  0  0  0  0  0  0  0  0  0
    6.5150   10.4270   26.3060 C   0  0  0  0  0  0  0  0  0  0  0  0
    5.6500    9.4600   26.7760 O   0  0  0  0  0  0  0  0  0  0  0  0
    4.6530    9.8480   27.7250 C   0  0  0  0  0  0  0  0  0  0  0  0
 22 21  1  0
 21 20  1  0
 20 15  1  0
 15 14  2  0
 14 13  1  0
 13 12  1  0
 12 10  1  0
 11 10  2  0
 10  9  1  0
  9  7  1  0
  7  6  1  0
  6  5  1  0
  5  4  1  0
  4  2  1  6
  3  2  1  0
  2  1  2  0
  8  4  1  0
  9  8  1  0
 16 13  2  0
 17 16  1  0
 18 17  1  0
 19 16  1  0
 20 19  2  0
M  END
$$$$
