A71EV2A-x3324_A_201_1_A71EV2A-x0911+A+147+1__LIG
     RDKit          3D

 25 27  0  0  0  0  0  0  0  0999 V2000
   15.9710   19.9820   18.5030 O   0  0  0  0  0  0  0  0  0  0  0  0
   15.2510   19.2430   17.5020 S   0  0  0  0  0  0  0  0  0  0  0  0
   14.3590   19.9760   16.6400 O   0  0  0  0  0  0  0  0  0  0  0  0
   16.3960   18.3690   16.5110 C   0  0  0  0  0  0  0  0  0  0  0  0
   14.3200   17.9760   18.3100 C   0  0  0  0  0  0  0  0  0  0  0  0
   13.8130   16.9240   17.5700 C   0  0  0  0  0  0  0  0  0  0  0  0
   13.0000   15.9910   18.1880 C   0  0  0  0  0  0  0  0  0  0  0  0
   14.0470   18.0800   19.6610 C   0  0  0  0  0  0  0  0  0  0  0  0
   13.2460   17.1280   20.2660 C   0  0  0  0  0  0  0  0  0  0  0  0
   12.7080   16.0750   19.5390 C   0  0  0  0  0  0  0  0  0  0  0  0
   11.8040   15.0610   20.1970 C   0  0  0  0  0  0  0  0  0  0  0  0
   12.3090   14.5890   21.5360 C   0  0  0  0  0  0  0  0  0  0  0  0
   11.5910   13.4010   21.9810 N   0  0  0  0  0  0  0  0  0  0  0  0
   10.7980   13.4280   23.0480 C   0  0  0  0  0  0  0  0  0  0  0  0
   10.6330   14.4380   23.7400 O   0  0  0  0  0  0  0  0  0  0  0  0
   10.0750   12.1540   23.3690 C   0  0  0  0  0  0  0  0  0  0  0  0
   10.3640   11.0190   22.7370 N   0  0  0  0  0  0  0  0  0  0  0  0
    9.0650   11.9420   24.3630 C   0  0  0  0  0  0  0  0  0  0  0  0
    8.7710   10.5750   24.2880 C   0  0  0  0  0  0  0  0  0  0  0  0
    9.5780   10.0570   23.3190 N   0  0  0  0  0  0  0  0  0  0  0  0
    9.7530    8.6620   22.9450 C   0  0  0  0  0  0  0  0  0  0  0  0
    7.7900    9.9910   25.0770 C   0  0  0  0  0  0  0  0  0  0  0  0
    7.0950   10.8050   25.9590 C   0  0  0  0  0  0  0  0  0  0  0  0
    7.3710   12.1660   26.0450 C   0  0  0  0  0  0  0  0  0  0  0  0
    8.3480   12.7450   25.2540 C   0  0  0  0  0  0  0  0  0  0  0  0
 21 20  1  0
 20 17  1  0
 17 16  2  0
 16 14  1  0
 15 14  2  0
 14 13  1  0
 13 12  1  0
 12 11  1  0
 11 10  1  0
 10  7  2  0
  7  6  1  0
  6  5  2  0
  5  2  1  0
  4  2  1  0
  3  2  2  0
  2  1  2  0
  8  5  1  0
  9  8  2  0
 10  9  1  0
 18 16  1  0
 18 25  2  0
 25 24  1  0
 24 23  2  0
 23 22  1  0
 22 19  2  0
 19 18  1  0
 20 19  1  0
M  END
$$$$
