A71EV2A-x4701_A_201_1_A71EV2A-x0911+A+147+1__LIG
     RDKit          3D

 18 19  0  0  0  0  0  0  0  0999 V2000
   10.0360   16.4180   19.0930 O   0  0  0  0  0  0  0  0  0  0  0  0
   10.4960   15.3220   19.4070 C   0  0  0  0  0  0  0  0  0  0  0  0
   10.9020   14.4160   18.5280 N   0  0  0  0  0  0  0  0  0  0  0  0
   10.5670   14.8630   20.8540 C   0  0  1  0  0  0  0  0  0  0  0  0
   11.6910   15.5630   21.6320 C   0  0  0  0  0  0  0  0  0  0  0  0
   11.8920   15.0190   23.0290 C   0  0  0  0  0  0  0  0  0  0  0  0
   10.5970   14.9950   23.8220 C   0  0  0  0  0  0  0  0  0  0  0  0
    9.3500   15.1170   21.7240 C   0  0  0  0  0  0  0  0  0  0  0  0
    9.5300   14.4390   23.0000 N   0  0  0  0  0  0  0  0  0  0  0  0
    8.8590   13.3030   23.2950 C   0  0  0  0  0  0  0  0  0  0  0  0
    7.8570   12.9550   22.7180 O   0  0  0  0  0  0  0  0  0  0  0  0
    9.4670   12.3320   24.2840 C   0  0  0  0  0  0  0  0  0  0  0  0
    8.8170   10.9200   24.3160 C   0  0  0  0  0  0  0  0  0  0  0  0
    8.9610    9.9580   23.1770 C   0  0  0  0  0  0  0  0  0  0  0  0
    9.7390    9.7490   24.4620 C   0  0  0  0  0  0  0  0  0  0  0  0
    7.3400   10.7290   24.6940 C   0  0  0  0  0  0  0  0  0  0  0  0
    7.4160   11.1690   26.4450 S   0  0  0  0  0  0  0  0  0  0  0  0
    5.8610   10.7850   27.0190 C   0  0  0  0  0  0  0  0  0  0  0  0
 18 17  1  0
 17 16  1  0
 16 13  1  0
 13 12  1  0
 12 10  1  0
 11 10  2  0
 10  9  1  0
  9  7  1  0
  7  6  1  0
  6  5  1  0
  5  4  1  0
  4  2  1  6
  3  2  1  0
  2  1  2  0
  8  4  1  0
  9  8  1  0
 13 15  1  0
 15 14  1  0
 14 13  1  0
M  END
$$$$
