XX01ZVNS2B-x4859_B_203_6_XX01ZVNS2B-x4590+B+203+1__LIG
     RDKit          3D

 27 31  0  0  0  0  0  0  0  0999 V2000
  -10.5140    4.0290  -18.2660 Cl  0  0  0  0  0  0  0  0  0  0  0  0
   -9.0130    4.4390  -17.4860 C   0  0  0  0  0  0  0  0  0  0  0  0
   -7.9010    4.6760  -18.2730 C   0  0  0  0  0  0  0  0  0  0  0  0
   -6.7520    5.1120  -17.6330 C   0  0  0  0  0  0  0  0  0  0  0  0
   -6.6820    5.3080  -16.2440 C   0  0  0  0  0  0  0  0  0  0  0  0
   -5.3510    5.7450  -16.0120 C   0  0  0  0  0  0  0  0  0  0  0  0
   -4.6620    5.8040  -17.1350 N   0  0  0  0  0  0  0  0  0  0  0  0
   -5.5170    5.4120  -18.1290 N   0  0  0  0  0  0  0  0  0  0  0  0
   -5.0570    5.3360  -19.5180 C   0  0  0  0  0  0  0  0  0  0  0  0
   -3.5380    5.2240  -19.7660 C   0  0  0  0  0  0  0  0  0  0  0  0
   -5.0080    6.6650  -20.2980 C   0  0  0  0  0  0  0  0  0  0  0  0
   -3.7130    6.2100  -20.8570 N   0  0  0  0  0  0  0  0  0  0  0  0
   -8.9870    4.5790  -16.1070 C   0  0  0  0  0  0  0  0  0  0  0  0
   -7.8220    5.0190  -15.4720 C   0  0  0  0  0  0  0  0  0  0  0  0
   -7.7950    5.1540  -13.9770 C   0  0  0  0  0  0  0  0  0  0  0  0
   -7.0940    6.0060  -13.4360 O   0  0  0  0  0  0  0  0  0  0  0  0
   -8.5260    4.2410  -13.2880 N   0  0  0  0  0  0  0  0  0  0  0  0
   -8.5770    4.0650  -11.8790 C   0  0  0  0  0  0  0  0  0  0  0  0
   -8.5700    5.1290  -10.9800 C   0  0  0  0  0  0  0  0  0  0  0  0
   -8.6560    4.8520   -9.6350 C   0  0  0  0  0  0  0  0  0  0  0  0
   -8.5930    5.8880   -8.7660 F   0  0  0  0  0  0  0  0  0  0  0  0
   -8.7860    3.5750   -9.1180 C   0  0  0  0  0  0  0  0  0  0  0  0
   -8.7480    2.5280  -10.0320 C   0  0  0  0  0  0  0  0  0  0  0  0
   -8.6490    2.7630  -11.3930 C   0  0  0  0  0  0  0  0  0  0  0  0
   -9.1630    3.3320   -7.6640 C   0  0  0  0  0  0  0  0  0  0  0  0
   -8.1760    2.8350   -6.6500 C   0  0  0  0  0  0  0  0  0  0  0  0
   -9.2320    1.9250   -7.1450 C   0  0  0  0  0  0  0  0  0  0  0  0
 12 10  1  0
 10  9  1  0
  9  8  1  0
  8  7  1  0
  7  6  2  0
  6  5  1  0
  5 14  2  0
 15 14  1  0
 16 15  2  0
 17 15  1  0
 18 17  1  0
 18 24  2  0
 24 23  1  0
 23 22  2  0
 25 22  1  0
 25 27  1  0
 27 26  1  0
 26 25  1  0
 22 20  1  0
 21 20  1  0
 20 19  2  0
 19 18  1  0
 14 13  1  0
 13  2  2  0
  2  1  1  0
  3  2  1  0
  4  3  2  0
  5  4  1  0
  8  4  1  0
 11  9  1  0
 12 11  1  0
M  END
$$$$
