A71EV2A-x5383_A_201_5_A71EV2A-x0911+A+147+1__LIG
     RDKit          3D

 23 24  0  0  0  0  0  0  0  0999 V2000
   10.3390   16.3990   19.3220 O   0  0  0  0  0  0  0  0  0  0  0  0
   10.8730   15.2880   19.4430 C   0  0  0  0  0  0  0  0  0  0  0  0
   11.1570   14.5120   18.4100 N   0  0  0  0  0  0  0  0  0  0  0  0
   11.1610   14.7010   20.8150 C   0  0  1  0  0  0  0  0  0  0  0  0
   11.9670   15.6150   21.7550 C   0  0  0  0  0  0  0  0  0  0  0  0
   11.6900   15.0290   23.1330 C   0  0  0  0  0  0  0  0  0  0  0  0
    9.8670   14.5010   21.6030 C   0  0  0  0  0  0  0  0  0  0  0  0
   10.3190   14.5210   23.0020 N   0  0  0  0  0  0  0  0  0  0  0  0
    9.5480   14.1120   24.0330 C   0  0  0  0  0  0  0  0  0  0  0  0
    9.9450   14.1610   25.1850 O   0  0  0  0  0  0  0  0  0  0  0  0
    8.0970   13.5890   23.7160 C   0  0  2  0  0  0  0  0  0  0  0  0
    7.1270   14.6650   23.5500 N   0  0  0  0  0  0  0  0  0  0  0  0
    6.2810   14.6920   22.5110 C   0  0  0  0  0  0  0  0  0  0  0  0
    6.2150   13.7690   21.6990 O   0  0  0  0  0  0  0  0  0  0  0  0
    5.4250   15.9280   22.3910 C   0  0  0  0  0  0  0  0  0  0  0  0
    7.6490   12.5340   24.7180 C   0  0  0  0  0  0  0  0  0  0  0  0
    7.9750   11.1820   24.5450 C   0  0  0  0  0  0  0  0  0  0  0  0
    9.2420   10.8010   23.3730 S   0  0  0  0  0  0  0  0  0  0  0  0
    9.3070    8.9930   23.3910 C   0  0  0  0  0  0  0  0  0  0  0  0
    6.7620   12.8760   25.7370 C   0  0  0  0  0  0  0  0  0  0  0  0
    6.1590   11.9020   26.5140 C   0  0  0  0  0  0  0  0  0  0  0  0
    6.4620   10.5690   26.3120 C   0  0  0  0  0  0  0  0  0  0  0  0
    7.3690   10.2050   25.3310 C   0  0  0  0  0  0  0  0  0  0  0  0
 19 18  1  0
 18 17  1  0
 17 23  2  0
 23 22  1  0
 22 21  2  0
 21 20  1  0
 20 16  2  0
 17 16  1  0
 16 11  1  0
 11 12  1  1
 13 12  1  0
 15 13  1  0
 14 13  2  0
 11  9  1  0
 10  9  2  0
  9  8  1  0
  8  6  1  0
  6  5  1  0
  5  4  1  0
  4  2  1  6
  3  2  1  0
  2  1  2  0
  7  4  1  0
  8  7  1  0
M  END
$$$$
