A71EV2A-x2339_E_246_1_A71EV2A-x0911+A+147+1__LIG
     RDKit          3D

 17 19  0  0  0  0  0  0  0  0999 V2000
    5.8280   12.4150   27.1850 F   0  0  0  0  0  0  0  0  0  0  0  0
    6.5740   11.7590   26.2550 C   0  0  0  0  0  0  0  0  0  0  0  0
    7.4470   12.5030   25.4950 C   0  0  0  0  0  0  0  0  0  0  0  0
    6.4300   10.3880   26.1460 C   0  0  0  0  0  0  0  0  0  0  0  0
    7.2200    9.7060   25.2300 C   0  0  0  0  0  0  0  0  0  0  0  0
    8.1300   10.4280   24.4680 C   0  0  0  0  0  0  0  0  0  0  0  0
    9.0540   10.0360   23.5430 N   0  0  0  0  0  0  0  0  0  0  0  0
    9.3790    8.6870   23.1090 C   0  0  0  0  0  0  0  0  0  0  0  0
    8.2470   11.8170   24.5830 C   0  0  0  0  0  0  0  0  0  0  0  0
    9.2770   12.1800   23.6540 C   0  0  0  0  0  0  0  0  0  0  0  0
    9.7630   11.1030   23.0400 N   0  0  0  0  0  0  0  0  0  0  0  0
    9.7990   13.5490   23.3260 C   0  0  0  0  0  0  0  0  0  0  0  0
    9.5650   14.5000   24.0640 O   0  0  0  0  0  0  0  0  0  0  0  0
   10.5110   13.6480   22.1960 N   0  0  0  0  0  0  0  0  0  0  0  0
   11.0950   14.9050   21.7290 C   0  0  0  0  0  0  0  0  0  0  0  0
   12.1060   14.8480   20.6600 C   0  0  0  0  0  0  0  0  0  0  0  0
   10.7550   15.3730   20.3720 C   0  0  0  0  0  0  0  0  0  0  0  0
  8  7  1  0
  7 11  1  0
 11 10  2  0
 12 10  1  0
 13 12  2  0
 14 12  1  0
 15 14  1  0
 15 17  1  0
 17 16  1  0
 16 15  1  0
 10  9  1  0
  9  3  1  0
  3  2  2  0
  2  1  1  0
  4  2  1  0
  5  4  2  0
  6  5  1  0
  9  6  2  0
  7  6  1  0
M  END
$$$$
