XX01ZVNS2B-x3094_B_203_1_XX01ZVNS2B-x4590+B+203+1__LIG
     RDKit          3D

 23 25  0  0  0  0  0  0  0  0999 V2000
   -6.4120    5.3630  -13.8710 O   0  0  0  0  0  0  0  0  0  0  0  0
   -7.4290    4.7820  -14.2430 C   0  0  0  0  0  0  0  0  0  0  0  0
   -8.3510    4.2820  -13.3770 N   0  0  0  0  0  0  0  0  0  0  0  0
   -8.3370    4.3590  -11.9580 C   0  0  0  0  0  0  0  0  0  0  0  0
   -8.7570    3.2780  -11.1900 C   0  0  0  0  0  0  0  0  0  0  0  0
   -8.7930    3.3570   -9.7990 C   0  0  0  0  0  0  0  0  0  0  0  0
   -9.3630    2.2410   -8.9830 C   0  0  0  0  0  0  0  0  0  0  0  0
   -8.2920    1.6480   -8.1930 N   0  0  0  0  0  0  0  0  0  0  0  0
   -8.3670    4.5250   -9.1880 C   0  0  0  0  0  0  0  0  0  0  0  0
   -7.9480    5.6060   -9.9440 C   0  0  0  0  0  0  0  0  0  0  0  0
   -7.9350    5.5310  -11.3270 C   0  0  0  0  0  0  0  0  0  0  0  0
   -7.7170    4.5950  -15.7080 C   0  0  0  0  0  0  0  0  0  0  0  0
   -8.9680    4.1110  -16.0930 C   0  0  0  0  0  0  0  0  0  0  0  0
   -9.3010    3.8940  -17.4260 C   0  0  0  0  0  0  0  0  0  0  0  0
   -8.3880    4.1430  -18.4380 C   0  0  0  0  0  0  0  0  0  0  0  0
   -7.1420    4.6310  -18.0670 C   0  0  0  0  0  0  0  0  0  0  0  0
   -6.7970    4.8670  -16.7340 C   0  0  0  0  0  0  0  0  0  0  0  0
   -5.5020    5.3750  -16.6800 N   0  0  0  0  0  0  0  0  0  0  0  0
   -6.0340    4.9980  -18.8130 N   0  0  0  0  0  0  0  0  0  0  0  0
   -5.0980    5.4270  -17.9320 C   0  0  0  0  0  0  0  0  0  0  0  0
   -3.7120    5.8860  -18.2920 C   0  0  0  0  0  0  0  0  0  0  0  0
   -3.6420    6.4700  -19.6850 C   0  0  0  0  0  0  0  0  0  0  0  0
   -2.6910    4.7860  -18.0830 C   0  0  0  0  0  0  0  0  0  0  0  0
 23 21  1  0
 22 21  1  0
 21 20  1  0
 20 18  2  0
 18 17  1  0
 17 12  1  0
 12  2  1  0
  2  1  2  0
  3  2  1  0
  4  3  1  0
  4 11  2  0
 11 10  1  0
 10  9  2  0
  9  6  1  0
  7  6  1  0
  8  7  1  0
  6  5  2  0
  5  4  1  0
 13 12  2  0
 14 13  1  0
 15 14  2  0
 16 15  1  0
 17 16  2  0
 19 16  1  0
 20 19  1  0
M  END
$$$$
