7gqr-a
     RDKit          3D

 10 11  0  0  0  0  0  0  0  0999 V2000
   -8.4610  -22.1780   10.4930 C   0  0  0  0  0  0  0  0  0  0  0  0
   -8.5570  -23.1280    9.4890 C   0  0  0  0  0  0  0  0  0  0  0  0
   -8.8710  -22.6860    8.2220 C   0  0  0  0  0  0  0  0  0  0  0  0
   -9.3090  -21.2250    6.5470 N   0  0  0  0  0  0  0  0  0  0  0  0
   -9.1430  -22.4380    6.1290 C   0  0  0  0  0  0  0  0  0  0  0  0
   -8.8980  -23.4120    7.0430 O   0  0  0  0  0  0  0  0  0  0  0  0
   -9.1170  -21.3600    7.9250 C   0  0  0  0  0  0  0  0  0  0  0  0
   -9.0140  -20.4090    8.9360 C   0  0  0  0  0  0  0  0  0  0  0  0
   -8.6880  -20.8360   10.2220 C   0  0  0  0  0  0  0  0  0  0  0  0
   -9.0590  -22.9390    4.7000 Cl  0  0  0  0  0  0  0  0  0  0  0  0
 10  5  1  0
  4  5  2  0
  4  7  1  0
  5  6  1  0
  7  8  2  0
  7  3  1  0
  8  9  1  0
  6  3  1  0
  3  2  2  0
  9  1  2  0
  2  1  1  0
M  END
>  <smiles>  (1) 
Clc1nc2ccccc2o1

>  <inchikey>  (1) 
BBVQDWDBTWSGHQ-UHFFFAOYSA-N

>  <alias>  (1) 
7gqr-a

$$$$
7gp4-a
     RDKit          3D

 14 15  0  0  0  0  0  0  0  0999 V2000
  -11.6460  -22.6860   27.8960 N   0  0  0  0  0  0  0  0  0  0  0  0
   -9.4250  -22.0380   33.8420 C   0  0  0  0  0  0  0  0  0  0  0  0
  -10.3970  -21.1370   33.4820 C   0  0  0  0  0  0  0  0  0  0  0  0
  -10.8580  -21.0900   32.1790 C   0  0  0  0  0  0  0  0  0  0  0  0
  -12.2610  -23.6570   26.9870 C   0  0  0  0  0  0  0  0  0  0  0  0
  -12.4820  -22.8630   25.7140 C   0  0  0  0  0  0  0  0  0  0  0  0
  -11.6420  -21.3430   27.3150 C   0  0  0  0  0  0  0  0  0  0  0  0
  -10.8260  -21.9150   29.9050 N   0  0  0  0  0  0  0  0  0  0  0  0
  -11.1730  -22.9790   29.1370 C   0  0  0  0  0  0  0  0  0  0  0  0
  -11.0760  -24.1310   29.5260 O   0  0  0  0  0  0  0  0  0  0  0  0
  -10.3410  -21.9590   31.2270 C   0  0  0  0  0  0  0  0  0  0  0  0
   -9.3570  -22.8650   31.5950 C   0  0  0  0  0  0  0  0  0  0  0  0
   -8.9040  -22.8970   32.8990 C   0  0  0  0  0  0  0  0  0  0  0  0
  -12.5840  -21.4590   26.1420 C   0  0  0  0  0  0  0  0  0  0  0  0
 14  6  1  0
 14  7  1  0
  6  5  1  0
  7  1  1  0
  5  1  1  0
  1  9  1  0
  8  9  1  0
  8 11  1  0
  9 10  2  0
 11 12  2  0
 11  4  1  0
 12 13  1  0
  4  3  2  0
 13  2  2  0
  3  2  1  0
M  END
>  <smiles>  (2) 
O=C(Nc1ccccc1)N1CCCC1

>  <inchikey>  (2) 
NTBKXPQLQPBJJL-UHFFFAOYSA-N

>  <alias>  (2) 
7gp4-a

$$$$
7gqb-a
     RDKit          3D

 14 15  0  0  0  0  0  0  0  0999 V2000
   14.5940    0.6870   14.6740 N   0  0  0  0  0  0  0  0  0  0  0  0
   13.9280   -0.3850   13.9130 C   0  0  0  0  0  0  0  0  0  0  0  0
   13.4250   -1.5090   14.8120 C   0  0  0  0  0  0  0  0  0  0  0  0
   14.7540   -0.8250   12.7090 C   0  0  0  0  0  0  0  0  0  0  0  0
   15.2730   -2.1100   12.5990 C   0  0  0  0  0  0  0  0  0  0  0  0
   16.0000   -2.4850   11.4840 C   0  0  0  0  0  0  0  0  0  0  0  0
   16.2280   -1.5840   10.4690 C   0  0  0  0  0  0  0  0  0  0  0  0
   15.7180   -0.3090   10.5600 C   0  0  0  0  0  0  0  0  0  0  0  0
   14.9800    0.0690   11.6690 C   0  0  0  0  0  0  0  0  0  0  0  0
   12.1930   -2.0990   14.5710 C   0  0  0  0  0  0  0  0  0  0  0  0
   11.7290   -3.1240   15.3790 C   0  0  0  0  0  0  0  0  0  0  0  0
   12.4840   -3.5690   16.4360 C   0  0  0  0  0  0  0  0  0  0  0  0
   13.7100   -2.9880   16.6950 C   0  0  0  0  0  0  0  0  0  0  0  0
   14.1810   -1.9680   15.8850 C   0  0  0  0  0  0  0  0  0  0  0  0
 11 12  1  0
 11 10  2  0
 12 13  2  0
 10  3  1  0
 13 14  1  0
  7  6  1  0
  7  8  2  0
  6  5  2  0
  8  9  1  0
  3 14  2  0
  3  2  1  0
  5  4  1  0
  9  4  2  0
  4  2  1  0
  2  1  1  0
M  END
>  <smiles>  (3) 
NC(c1ccccc1)c1ccccc1

>  <inchikey>  (3) 
MGHPNCMVUAKAIE-UHFFFAOYSA-N

>  <alias>  (3) 
7gqb-a

$$$$
7gp5-a
     RDKit          3D

 13 14  0  0  0  0  0  0  0  0999 V2000
   12.7440    0.7180   16.1060 N   0  0  0  0  0  0  0  0  0  0  0  0
   12.5900   -0.7050   16.0350 C   0  0  0  0  0  0  0  0  0  0  0  0
   11.6540   -1.2720   15.1690 C   0  0  0  0  0  0  0  0  0  0  0  0
   11.4900   -2.6490   15.1410 C   0  0  0  0  0  0  0  0  0  0  0  0
   12.2530   -3.4600   15.9570 C   0  0  0  0  0  0  0  0  0  0  0  0
   13.1920   -2.9000   16.8020 C   0  0  0  0  0  0  0  0  0  0  0  0
   10.6750    1.5410   15.4560 O   0  0  0  0  0  0  0  0  0  0  0  0
   11.8240    1.7130   15.8270 C   0  0  0  0  0  0  0  0  0  0  0  0
   12.5200    3.0260   16.0650 C   0  0  0  0  0  0  0  0  0  0  0  0
   13.8690    2.5190   16.4530 C   0  0  0  0  0  0  0  0  0  0  0  0
   15.0370    3.4060   16.7340 C   0  0  0  0  0  0  0  0  0  0  0  0
   13.9670    1.2450   16.4870 N   0  0  0  0  0  0  0  0  0  0  0  0
   13.3680   -1.5270   16.8470 C   0  0  0  0  0  0  0  0  0  0  0  0
 11 10  1  0
 10  9  1  0
 10 12  2  0
  9  8  1  0
 12  1  1  0
  8  1  1  0
  8  7  2  0
  1  2  1  0
  2 13  1  0
  2  3  2  0
 13  6  2  0
  3  4  1  0
  6  5  1  0
  4  5  2  0
M  END
>  <smiles>  (4) 
CC1=NN(c2ccccc2)C(=O)C1

>  <inchikey>  (4) 
QELUYTUMUWHWMC-UHFFFAOYSA-N

>  <alias>  (4) 
7gp5-a

$$$$
7gon-a
     RDKit          3D

 14 14  0  0  0  0  0  0  0  0999 V2000
   13.2370   -1.8480   16.4930 C   0  0  0  0  0  0  0  0  0  0  0  0
   13.5690   -2.9930   17.1940 C   0  0  0  0  0  0  0  0  0  0  0  0
   12.8490   -4.1530   16.9670 C   0  0  0  0  0  0  0  0  0  0  0  0
   11.8260   -4.1780   16.0370 C   0  0  0  0  0  0  0  0  0  0  0  0
   11.5470   -3.0280   15.3570 C   0  0  0  0  0  0  0  0  0  0  0  0
   14.0840    2.2710   15.2910 N   0  0  0  0  0  0  0  0  0  0  0  0
   14.4980    3.1140   16.4140 C   0  0  0  0  0  0  0  0  0  0  0  0
   12.6310    0.7880   14.4470 O   0  0  0  0  0  0  0  0  0  0  0  0
   14.6290    2.6720   13.9930 C   0  0  0  0  0  0  0  0  0  0  0  0
   13.2640    1.2090   15.4040 C   0  0  0  0  0  0  0  0  0  0  0  0
   13.1180    0.5120   16.7480 C   0  0  0  0  0  0  0  0  0  0  0  0
   12.2140   -1.8520   15.5550 C   0  0  0  0  0  0  0  0  0  0  0  0
   10.5720   -3.0480   14.4180 F   0  0  0  0  0  0  0  0  0  0  0  0
   13.8970   -0.6780   16.7550 O   0  0  0  0  0  0  0  0  0  0  0  0
  9  6  1  0
  6  7  1  0
  6 10  1  0
  8 10  2  0
 10 11  1  0
 11 14  1  0
 14  1  1  0
 12  1  2  0
 12  5  1  0
  1  2  1  0
 13  5  1  0
  5  4  2  0
  2  3  2  0
  4  3  1  0
M  END
>  <smiles>  (5) 
CN(C)C(=O)COc1cccc(F)c1

>  <inchikey>  (5) 
CEYGCTDHMLPHQC-UHFFFAOYSA-N

>  <alias>  (5) 
7gon-a

$$$$
7gpz-a
     RDKit          3D

 10 10  0  0  0  0  0  0  0  0999 V2000
  -10.8260   -1.4520   36.4120 N   0  0  0  0  0  0  0  0  0  0  0  0
  -15.0340   -4.7490   38.7320 C   0  0  0  0  0  0  0  0  0  0  0  0
  -10.9560   -0.1570   36.6490 C   0  0  0  0  0  0  0  0  0  0  0  0
  -11.9460   -2.0080   36.9380 N   0  0  0  0  0  0  0  0  0  0  0  0
  -12.1470    0.1050   37.3200 C   0  0  0  0  0  0  0  0  0  0  0  0
  -13.8810   -3.9640   38.4520 O   0  0  0  0  0  0  0  0  0  0  0  0
  -12.7570   -1.0970   37.4920 C   0  0  0  0  0  0  0  0  0  0  0  0
  -12.1600   -3.4510   36.8670 C   0  0  0  0  0  0  0  0  0  0  0  0
  -13.6170   -3.8170   37.0610 C   0  0  0  0  0  0  0  0  0  0  0  0
  -12.8130    1.7670   37.8920 Br  0  0  0  0  0  0  0  0  0  0  0  0
  2  6  1  0
  6  9  1  0
  3  1  2  0
  3  5  1  0
  1  4  1  0
  5 10  1  0
  5  7  2  0
  9  8  1  0
  4  7  1  0
  4  8  1  0
M  END
>  <smiles>  (6) 
COCCn1cc(Br)cn1

>  <inchikey>  (6) 
SJIMZWZHTDHXRI-UHFFFAOYSA-N

>  <alias>  (6) 
7gpz-a

$$$$
7gp6-a
     RDKit          3D

 15 16  0  0  0  0  0  0  0  0999 V2000
   14.8290   -0.7780   16.7360 N   0  0  0  0  0  0  0  0  0  0  0  0
   11.6910   -3.2350   15.7570 C   0  0  0  0  0  0  0  0  0  0  0  0
   12.6800   -3.8150   16.5500 C   0  0  0  0  0  0  0  0  0  0  0  0
   13.7770   -3.0780   16.9740 C   0  0  0  0  0  0  0  0  0  0  0  0
   13.8570   -1.7540   16.5700 C   0  0  0  0  0  0  0  0  0  0  0  0
   16.1020   -0.9890   17.4330 C   0  0  0  0  0  0  0  0  0  0  0  0
   17.0230   -3.3200   17.0060 C   0  0  0  0  0  0  0  0  0  0  0  0
   13.2170    0.1620   15.5190 N   0  0  0  0  0  0  0  0  0  0  0  0
   15.1840    1.5940   15.9990 C   0  0  0  0  0  0  0  0  0  0  0  0
   16.7940   -4.1930   16.1650 O   0  0  0  0  0  0  0  0  0  0  0  0
   14.3880    0.3440   16.0830 C   0  0  0  0  0  0  0  0  0  0  0  0
   12.8670   -1.1570   15.7970 C   0  0  0  0  0  0  0  0  0  0  0  0
   11.7670   -1.9010   15.3810 C   0  0  0  0  0  0  0  0  0  0  0  0
   17.0550   -1.8580   16.6250 C   0  0  0  0  0  0  0  0  0  0  0  0
   17.2590   -3.5930   18.2770 N   0  0  0  0  0  0  0  0  0  0  0  0
  9 11  1  0
  8 11  2  0
  8 12  1  0
 11  1  1  0
 12 13  1  0
 12  5  2  0
 13  2  2  0
 10  7  2  0
  1  5  1  0
  1  6  1  0
 14  7  1  0
 14  6  1  0
  5  4  1  0
  2  3  1  0
  7 15  1  0
  4  3  2  0
M  END
>  <smiles>  (7) 
Cc1nc2ccccc2n1CCC(N)=O

>  <inchikey>  (7) 
HZTUIHZIQKFSIL-UHFFFAOYSA-N

>  <alias>  (7) 
7gp6-a

$$$$
7gp7-a
     RDKit          3D

 14 14  0  0  0  0  0  0  0  0999 V2000
  -11.3650  -25.0000   13.1960 C   0  0  0  0  0  0  0  0  0  0  0  0
  -12.5190  -25.9670   12.9200 C   0  0  0  0  0  0  0  0  0  0  0  0
  -13.2600  -26.2720   14.2190 C   0  0  0  0  0  0  0  0  0  0  0  0
  -10.7350  -24.5180   11.9170 C   0  0  0  0  0  0  0  0  0  0  0  0
  -12.3160  -26.3110   15.3530 N   0  0  0  0  0  0  0  0  0  0  0  0
  -14.0880  -28.7860   18.0660 C   0  0  0  0  0  0  0  0  0  0  0  0
  -13.8390  -25.6410   17.1780 O   0  0  0  0  0  0  0  0  0  0  0  0
  -13.7130  -28.2150   16.7160 C   0  0  0  0  0  0  0  0  0  0  0  0
  -10.9710  -26.7610   14.9440 C   0  0  0  0  0  0  0  0  0  0  0  0
  -10.3220  -25.6840   14.0870 C   0  0  0  0  0  0  0  0  0  0  0  0
  -11.7430  -26.8140   17.7020 O   0  0  0  0  0  0  0  0  0  0  0  0
  -11.3330  -24.4380   10.8670 O   0  0  0  0  0  0  0  0  0  0  0  0
   -9.4970  -24.1970   12.0780 O   0  0  0  0  0  0  0  0  0  0  0  0
  -12.8790  -26.6490   16.8530 S   0  0  0  0  0  0  0  0  0  0  0  0
  6  8  1  0
  8 14  1  0
  9  5  1  0
  9 10  1  0
 11 14  2  0
 14  5  1  0
 14  7  2  0
  5  3  1  0
  3  2  1  0
  2  1  1  0
 10  1  1  0
  1  4  1  0
  4 12  2  0
  4 13  1  0
M  END
>  <smiles>  (8) 
CCS(=O)(=O)N1CCC(C(=O)O)CC1

>  <inchikey>  (8) 
FXILSJTWIHHRJV-UHFFFAOYSA-N

>  <alias>  (8) 
7gp7-a

$$$$
7gp8-a
     RDKit          3D

 13 13  0  0  0  0  0  0  0  0999 V2000
   14.7600   -2.8280   17.6330 N   0  0  0  0  0  0  0  0  0  0  0  0
   12.7380   -3.5090   16.3890 C   0  0  0  0  0  0  0  0  0  0  0  0
   11.7660   -3.2230   15.4410 C   0  0  0  0  0  0  0  0  0  0  0  0
   11.7760   -2.0190   14.7700 C   0  0  0  0  0  0  0  0  0  0  0  0
   12.7510   -1.0750   15.0410 C   0  0  0  0  0  0  0  0  0  0  0  0
   13.6990   -1.3710   15.9870 C   0  0  0  0  0  0  0  0  0  0  0  0
   17.3670   -2.0640   16.5540 C   0  0  0  0  0  0  0  0  0  0  0  0
   17.2120   -3.5650   16.6070 C   0  0  0  0  0  0  0  0  0  0  0  0
   15.8220   -4.0690   17.5970 S   0  0  0  0  0  0  0  0  0  0  0  0
   16.2710   -4.2620   18.9440 O   0  0  0  0  0  0  0  0  0  0  0  0
   15.1940   -5.1520   16.9050 O   0  0  0  0  0  0  0  0  0  0  0  0
   13.7370   -2.5760   16.6730 C   0  0  0  0  0  0  0  0  0  0  0  0
   14.6270   -0.4390   16.3020 F   0  0  0  0  0  0  0  0  0  0  0  0
  7  8  1  0
  8  9  1  0
  9 10  2  0
  9 11  2  0
  9  1  1  0
  1 12  1  0
 12  2  2  0
  2  3  1  0
  3  4  2  0
  4  5  1  0
  5  6  2  0
  6 13  1  0
 12  6  1  0
M  END
>  <smiles>  (9) 
CCS(=O)(=O)Nc1ccccc1F

>  <inchikey>  (9) 
MRTGYFRQZQCITC-UHFFFAOYSA-N

>  <alias>  (9) 
7gp8-a

$$$$
7gpu-b
     RDKit          3D

 16 17  0  0  0  0  0  0  0  0999 V2000
   13.6170   -2.7100   16.7550 C   0  0  0  0  0  0  0  0  0  0  0  0
   12.4320   -3.4090   16.5900 C   0  0  0  0  0  0  0  0  0  0  0  0
   11.5180   -3.0100   15.6420 C   0  0  0  0  0  0  0  0  0  0  0  0
   11.7690   -1.8940   14.8800 C   0  0  0  0  0  0  0  0  0  0  0  0
   12.9570   -1.1980   15.0340 C   0  0  0  0  0  0  0  0  0  0  0  0
   15.8330   -2.1520   12.4970 C   0  0  0  0  0  0  0  0  0  0  0  0
   16.0430   -1.8710   13.8110 N   0  0  0  0  0  0  0  0  0  0  0  0
   16.6600   -2.9530   17.3160 C   0  0  0  0  0  0  0  0  0  0  0  0
   16.8750   -2.1860   18.4970 O   0  0  0  0  0  0  0  0  0  0  0  0
   16.5390   -2.0560   16.0930 C   0  0  1  0  0  0  0  0  0  0  0  0
   14.6420   -1.5430   11.8260 C   0  0  0  0  0  0  0  0  0  0  0  0
   16.5730   -2.8410   14.7760 C   0  0  0  0  0  0  0  0  0  0  0  0
   15.3330   -1.0630   15.8680 C   0  0  2  0  0  0  0  0  0  0  0  0
   13.9220   -1.6280   15.9400 C   0  0  0  0  0  0  0  0  0  0  0  0
   15.7210   -0.6040   14.4680 C   0  0  0  0  0  0  0  0  0  0  0  0
   16.5900   -2.8860   11.8840 O   0  0  0  0  0  0  0  0  0  0  0  0
 11  6  1  0
 16  6  2  0
  6  7  1  0
 15  7  1  0
 15 13  1  0
  7 12  1  0
 12 10  1  0
 13 10  1  0
 13 14  1  6
 10  8  1  1
  5 14  1  0
  5  4  2  0
 14  1  2  0
  4  3  1  0
  8  9  1  0
  1  2  1  0
  3  2  2  0
M  END
>  <smiles>  (10) 
CC(=O)N1C[C@H](CO)[C@H](c2ccccc2)C1

>  <inchikey>  (10) 
AHYYDCAAWMKXAQ-OLZOCXBDSA-N

>  <alias>  (10) 
7gpu-b

$$$$
7gp9-a
     RDKit          3D

 16 17  0  0  0  0  0  0  0  0999 V2000
    0.6840   -0.0070   28.3420 C   0  0  0  0  0  0  0  0  0  0  0  0
    0.3670    1.2690   27.9040 C   0  0  0  0  0  0  0  0  0  0  0  0
   -0.8920    1.4700   27.3700 C   0  0  0  0  0  0  0  0  0  0  0  0
   -1.7910    0.4380   27.2630 C   0  0  0  0  0  0  0  0  0  0  0  0
   -1.4910   -0.8250   27.7220 C   0  0  0  0  0  0  0  0  0  0  0  0
   -0.9470   -2.9450   29.6400 N   0  0  0  0  0  0  0  0  0  0  0  0
   -2.1700   -0.3300   31.4160 C   0  0  0  0  0  0  0  0  0  0  0  0
    0.3340   -3.3310   31.7260 O   0  0  0  0  0  0  0  0  0  0  0  0
   -0.8360   -1.0060   31.6160 C   0  0  0  0  0  0  0  0  0  0  0  0
    0.1310   -2.4250   28.7870 C   0  0  0  0  0  0  0  0  0  0  0  0
   -0.2320   -1.0560   28.2710 C   0  0  0  0  0  0  0  0  0  0  0  0
   -2.7670    2.2810   26.4600 C   0  0  0  0  0  0  0  0  0  0  0  0
   -2.1420   -3.2780   31.7870 O   0  0  0  0  0  0  0  0  0  0  0  0
   -2.9180    0.8630   26.5970 O   0  0  0  0  0  0  0  0  0  0  0  0
   -1.4630    2.6420   26.9260 O   0  0  0  0  0  0  0  0  0  0  0  0
   -0.9030   -2.7580   31.2800 S   0  0  0  0  0  0  0  0  0  0  0  0
  8 16  2  0
  7  9  1  0
  9 16  1  0
 16 13  2  0
 16  6  1  0
  6 10  1  0
 10 11  1  0
 11  5  1  0
 11  1  2  0
  5  4  2  0
  1  2  1  0
  4 14  1  0
  4  3  1  0
 14 12  1  0
  2  3  2  0
  3 15  1  0
 12 15  1  0
M  END
>  <smiles>  (11) 
CCS(=O)(=O)NCc1ccc2c(c1)OCO2

>  <inchikey>  (11) 
UKPLBUIFSDRLEZ-UHFFFAOYSA-N

>  <alias>  (11) 
7gp9-a

$$$$
7gpw-a
     RDKit          3D

  8  8  0  0  0  0  0  0  0  0999 V2000
   13.6200   -1.3990   16.7080 C   0  0  0  0  0  0  0  0  0  0  0  0
   14.4980   -1.6700   17.6910 C   0  0  0  0  0  0  0  0  0  0  0  0
   14.6590   -2.9320   18.1700 N   0  0  0  0  0  0  0  0  0  0  0  0
   12.8920   -2.5110   16.2160 C   0  0  0  0  0  0  0  0  0  0  0  0
   14.1470   -5.1180   18.2420 O   0  0  0  0  0  0  0  0  0  0  0  0
   13.9560   -4.0170   17.7150 C   0  0  0  0  0  0  0  0  0  0  0  0
   13.0280   -3.7600   16.6760 C   0  0  0  0  0  0  0  0  0  0  0  0
   11.5300   -2.1730   14.6840 I   0  0  0  0  0  0  0  0  0  0  0  0
  3  2  2  0
  3  6  1  0
  5  6  2  0
  2  1  1  0
  6  7  1  0
  1  4  2  0
  7  4  1  0
  4  8  1  0
M  END
>  <smiles>  (12) 
O=C1CC(I)=CC=N1

>  <inchikey>  (12) 
GRVSGGNZRNHMQI-UHFFFAOYSA-N

>  <alias>  (12) 
7gpw-a

$$$$
7gpw-b
     RDKit          3D

  8  8  0  0  0  0  0  0  0  0999 V2000
   -6.3780   -1.7280    6.8860 C   0  0  0  0  0  0  0  0  0  0  0  0
   -5.8800   -0.5280    7.2340 C   0  0  0  0  0  0  0  0  0  0  0  0
   -6.5990    0.3490    7.9830 N   0  0  0  0  0  0  0  0  0  0  0  0
   -7.6900   -2.0100    7.3570 C   0  0  0  0  0  0  0  0  0  0  0  0
   -8.4330    0.9640    9.1340 O   0  0  0  0  0  0  0  0  0  0  0  0
   -7.8630    0.1010    8.4470 C   0  0  0  0  0  0  0  0  0  0  0  0
   -8.4140   -1.1630    8.0920 C   0  0  0  0  0  0  0  0  0  0  0  0
   -8.5010   -3.8670    6.8880 I   0  0  0  0  0  0  0  0  0  0  0  0
  3  2  2  0
  3  6  1  0
  5  6  2  0
  2  1  1  0
  6  7  1  0
  1  4  2  0
  7  4  1  0
  4  8  1  0
M  END
>  <smiles>  (13) 
O=C1CC(I)=CC=N1

>  <inchikey>  (13) 
GRVSGGNZRNHMQI-UHFFFAOYSA-N

>  <alias>  (13) 
7gpw-b

$$$$
7gq1-a
     RDKit          3D

  8  8  0  0  0  0  0  0  0  0999 V2000
   12.3080   -3.6000   16.1070 C   0  0  0  0  0  0  0  0  0  0  0  0
   14.5390   -3.3810   17.1770 C   0  0  0  0  0  0  0  0  0  0  0  0
   15.6060   -2.6060   17.3050 O   0  0  0  0  0  0  0  0  0  0  0  0
   13.4470   -2.8590   16.2860 C   0  0  0  0  0  0  0  0  0  0  0  0
   13.4450   -1.6810   15.4530 C   0  0  0  0  0  0  0  0  0  0  0  0
   12.3420   -1.5640   14.6820 C   0  0  0  0  0  0  0  0  0  0  0  0
   14.4180   -4.5030   17.7210 O   0  0  0  0  0  0  0  0  0  0  0  0
   11.2720   -2.9260   14.9580 S   0  0  0  0  0  0  0  0  0  0  0  0
  6  5  2  0
  6  8  1  0
  5  4  1  0
  3  2  2  0
  4  2  1  0
  4  1  2  0
  8  1  1  0
  2  7  1  0
M  END
>  <smiles>  (14) 
O=C(O)c1ccsc1

>  <inchikey>  (14) 
YNVOMSDITJMNET-UHFFFAOYSA-N

>  <alias>  (14) 
7gq1-a

$$$$
7gq1-c
     RDKit          3D

  8  8  0  0  0  0  0  0  0  0999 V2000
   -4.8600  -27.1610   12.9480 C   0  0  0  0  0  0  0  0  0  0  0  0
   -4.3250  -26.2740   10.6010 C   0  0  0  0  0  0  0  0  0  0  0  0
   -5.5750  -26.2980   10.2650 O   0  0  0  0  0  0  0  0  0  0  0  0
   -3.9620  -26.6570   12.0370 C   0  0  0  0  0  0  0  0  0  0  0  0
   -2.6850  -26.5540   12.6190 C   0  0  0  0  0  0  0  0  0  0  0  0
   -2.6380  -26.9920   13.8940 C   0  0  0  0  0  0  0  0  0  0  0  0
   -3.4400  -26.0510    9.7580 O   0  0  0  0  0  0  0  0  0  0  0  0
   -4.1190  -27.5300   14.4560 S   0  0  0  0  0  0  0  0  0  0  0  0
  6  5  2  0
  6  8  1  0
  5  4  1  0
  3  2  2  0
  4  2  1  0
  4  1  2  0
  8  1  1  0
  2  7  1  0
M  END
>  <smiles>  (15) 
O=C(O)c1ccsc1

>  <inchikey>  (15) 
YNVOMSDITJMNET-UHFFFAOYSA-N

>  <alias>  (15) 
7gq1-c

$$$$
7goe-a
     RDKit          3D

 18 20  0  0  0  0  0  0  0  0999 V2000
   15.4450   -1.0390   18.1470 C   0  0  0  0  0  0  0  0  0  0  0  0
   15.6640    0.3200   17.9630 C   0  0  0  0  0  0  0  0  0  0  0  0
   15.5660    1.2030   19.0280 C   0  0  0  0  0  0  0  0  0  0  0  0
   15.2530    0.7400   20.2900 C   0  0  0  0  0  0  0  0  0  0  0  0
   15.0410   -0.6080   20.4880 C   0  0  0  0  0  0  0  0  0  0  0  0
   14.2220   -2.1750   16.2360 C   0  0  0  0  0  0  0  0  0  0  0  0
   11.8140   -2.5240   14.8710 C   0  0  0  0  0  0  0  0  0  0  0  0
   13.2800   -3.0950   16.6790 C   0  0  0  0  0  0  0  0  0  0  0  0
   16.0720   -3.3230   17.4110 N   0  0  0  0  0  0  0  0  0  0  0  0
   17.7040   -4.6590   17.1260 C   0  0  0  0  0  0  0  0  0  0  0  0
   18.9040   -4.6480   16.3620 O   0  0  0  0  0  0  0  0  0  0  0  0
   16.4500   -4.2740   16.3290 C   0  0  0  0  0  0  0  0  0  0  0  0
   13.9350   -1.4320   15.0980 C   0  0  0  0  0  0  0  0  0  0  0  0
   12.7370   -1.6050   14.4220 C   0  0  0  0  0  0  0  0  0  0  0  0
   12.0850   -3.2700   15.9970 C   0  0  0  0  0  0  0  0  0  0  0  0
   17.4550   -3.3950   17.9590 C   0  0  0  0  0  0  0  0  0  0  0  0
   15.5450   -2.0080   16.9740 C   0  0  0  0  0  0  0  0  0  0  0  0
   15.1330   -1.4920   19.4240 C   0  0  0  0  0  0  0  0  0  0  0  0
 11 10  1  0
 10 16  1  0
 10 12  1  0
 16  9  1  0
 12  9  1  0
  9 17  1  0
 17  1  1  0
 17  6  1  0
  2  1  2  0
  2  3  1  0
  1 18  1  0
  3  4  2  0
 18  5  2  0
  6 13  2  0
  6  8  1  0
  4  5  1  0
 13 14  1  0
  8 15  2  0
 14  7  2  0
 15  7  1  0
M  END
>  <smiles>  (16) 
OC1CN(C(c2ccccc2)c2ccccc2)C1

>  <inchikey>  (16) 
MMAJXKGUZYDTHV-UHFFFAOYSA-N

>  <alias>  (16) 
7goe-a

$$$$
7gpj-a
     RDKit          3D

 19 20  0  0  0  0  0  0  0  0999 V2000
   -8.8150   -2.9590    7.6600 N   0  0  0  0  0  0  0  0  0  0  0  0
   -5.5640    1.9660    4.1790 C   0  0  0  0  0  0  0  0  0  0  0  0
   -5.8830    0.6200    4.2590 C   0  0  0  0  0  0  0  0  0  0  0  0
   -5.4690   -0.1310    5.3590 C   0  0  0  0  0  0  0  0  0  0  0  0
   -5.7480   -1.6120    5.3500 C   0  0  0  0  0  0  0  0  0  0  0  0
   -7.1960   -3.5000    5.8890 C   0  0  0  0  0  0  0  0  0  0  0  0
   -8.5710   -1.6660    7.6110 C   0  0  0  0  0  0  0  0  0  0  0  0
   -6.9050   -2.0570    5.8700 N   0  0  0  0  0  0  0  0  0  0  0  0
   -4.3280   -0.2490    7.6460 C   0  0  0  0  0  0  0  0  0  0  0  0
   -4.9200   -2.3700    4.8760 O   0  0  0  0  0  0  0  0  0  0  0  0
   -4.7510    0.4910    6.3990 C   0  0  0  0  0  0  0  0  0  0  0  0
   -7.9180   -1.1370    6.3720 C   0  0  0  0  0  0  0  0  0  0  0  0
   -4.4470    1.8430    6.2960 C   0  0  0  0  0  0  0  0  0  0  0  0
   -4.8460    2.5700    5.1850 C   0  0  0  0  0  0  0  0  0  0  0  0
   -8.4330   -3.9330    6.6570 C   0  0  0  0  0  0  0  0  0  0  0  0
   -5.3400   -0.4790    8.4600 F   0  0  0  0  0  0  0  0  0  0  0  0
   -3.8150   -1.4370    7.3960 F   0  0  0  0  0  0  0  0  0  0  0  0
   -3.4090    0.4090    8.3650 F   0  0  0  0  0  0  0  0  0  0  0  0
   -8.8220   -0.9140    8.5440 O   0  0  0  0  0  0  0  0  0  0  0  0
  2 14  2  0
  2  3  1  0
 14 13  1  0
  3  4  2  0
 13 11  2  0
  4 11  1  0
  4  5  1  0
 11  9  1  0
 18  9  1  0
 10  5  2  0
  5  8  1  0
  9 17  1  0
  9 16  1  0
  8 12  1  0
  8  6  1  0
 12  7  1  0
  6 15  1  0
  7 19  2  0
  7  1  1  0
 15  1  1  0
M  END
>  <smiles>  (17) 
O=C1CN(C(=O)c2ccccc2C(F)(F)F)CCN1

>  <inchikey>  (17) 
JQOVYBILMPXMLQ-UHFFFAOYSA-N

>  <alias>  (17) 
7gpj-a

$$$$
7gq4-a
     RDKit          3D

  6  6  0  0  0  0  0  0  0  0999 V2000
   -0.9690   -7.4160   34.7270 C   0  0  0  0  0  0  0  0  0  0  0  0
   -1.0210   -7.4860   33.2430 C   0  0  0  0  0  0  0  0  0  0  0  0
   -0.2370   -6.8170   32.4350 N   0  0  0  0  0  0  0  0  0  0  0  0
   -0.5580   -7.2160   31.1740 N   0  0  0  0  0  0  0  0  0  0  0  0
   -1.5080   -8.0900   31.1960 N   0  0  0  0  0  0  0  0  0  0  0  0
   -1.8210   -8.2680   32.4960 N   0  0  0  0  0  0  0  0  0  0  0  0
  2  1  1  0
  3  2  2  0
  4  3  1  0
  5  4  2  0
  6  5  1  0
  2  6  1  0
M  END
>  <smiles>  (18) 
Cc1nnn[nH]1

>  <inchikey>  (18) 
XZGLNCKSNVGDNX-UHFFFAOYSA-N

>  <alias>  (18) 
7gq4-a

$$$$
7gps-a
     RDKit          3D

 15 17  0  0  0  0  0  0  0  0999 V2000
   14.7430    0.9630   13.4930 N   0  0  0  0  0  0  0  0  0  0  0  0
   12.1360   -3.3290   15.7320 C   0  0  0  0  0  0  0  0  0  0  0  0
   13.1590   -3.5530   16.6250 C   0  0  0  0  0  0  0  0  0  0  0  0
   14.0950   -2.5640   16.8780 C   0  0  0  0  0  0  0  0  0  0  0  0
   12.7590    0.2570   14.6890 C   0  0  0  0  0  0  0  0  0  0  0  0
   13.9970    1.1640   14.7470 C   0  0  1  0  0  0  0  0  0  0  0  0
   14.6080    3.3140   13.7890 C   0  0  0  0  0  0  0  0  0  0  0  0
   15.7580    1.7470   16.2300 O   0  0  0  0  0  0  0  0  0  0  0  0
   14.9600    0.8830   15.8890 C   0  0  0  0  0  0  0  0  0  0  0  0
   13.6160    2.6590   14.7380 C   0  0  0  0  0  0  0  0  0  0  0  0
   14.9040    2.2330   12.7690 C   0  0  0  0  0  0  0  0  0  0  0  0
   12.9490   -1.0930   15.3240 C   0  0  0  0  0  0  0  0  0  0  0  0
   12.0340   -2.1140   15.0800 C   0  0  0  0  0  0  0  0  0  0  0  0
   13.9910   -1.3330   16.2310 C   0  0  0  0  0  0  0  0  0  0  0  0
   14.9140   -0.3200   16.4900 N   0  0  0  0  0  0  0  0  0  0  0  0
 11  7  1  0
 11  1  1  0
  7 10  1  0
  1  6  1  0
  6 10  1  1
  8  9  2  0
  6  9  1  0
  6  5  1  0
  9 15  1  0
  5 12  1  0
 15 14  1  0
 12 14  2  0
 12 13  1  0
 14  4  1  0
 13  2  2  0
  4  3  2  0
  2  3  1  0
M  END
>  <smiles>  (19) 
O=C1Nc2ccccc2C[C@@]12CCCN2

>  <inchikey>  (19) 
ABOZUPQQWCLVDB-LBPRGKRZSA-N

>  <alias>  (19) 
7gps-a

$$$$
7god-a
     RDKit          3D

 15 15  0  0  0  0  0  0  0  0999 V2000
   14.1040   -2.8480   18.1710 N   0  0  0  0  0  0  0  0  0  0  0  0
   13.8540   -0.3380   16.9480 C   0  0  0  0  0  0  0  0  0  0  0  0
   13.3580    1.0640   16.6610 C   0  0  0  0  0  0  0  0  0  0  0  0
   13.4130   -2.8020   17.0070 C   0  0  0  0  0  0  0  0  0  0  0  0
   15.0270   -3.8450   18.5650 C   0  0  0  0  0  0  0  0  0  0  0  0
   16.0180   -4.2810   17.6820 C   0  0  0  0  0  0  0  0  0  0  0  0
   17.0730   -5.5010   19.4590 C   0  0  0  0  0  0  0  0  0  0  0  0
   11.3110   -2.4570   14.8860 C   0  0  0  0  0  0  0  0  0  0  0  0
   12.3700   -1.4310   15.2090 C   0  0  0  0  0  0  0  0  0  0  0  0
   12.8140   -1.4420   16.6800 C   0  0  0  0  0  0  0  0  0  0  0  0
   13.3680   -3.7360   16.2100 O   0  0  0  0  0  0  0  0  0  0  0  0
   17.0350   -5.1050   18.1360 C   0  0  0  0  0  0  0  0  0  0  0  0
   16.0760   -5.1010   20.3390 C   0  0  0  0  0  0  0  0  0  0  0  0
   15.0360   -4.2840   19.8950 C   0  0  0  0  0  0  0  0  0  0  0  0
   13.8160   -4.4910   20.4640 O   0  0  0  0  0  0  0  0  0  0  0  0
 12  6  1  0
 12  7  2  0
 11  4  2  0
  6  5  2  0
  7 13  1  0
  4  1  1  0
  4 10  1  0
  2  3  1  0
  2 10  1  0
  5  1  1  0
  5 14  1  0
 13 14  2  0
  9 10  1  0
  9  8  1  0
 14 15  1  0
M  END
>  <smiles>  (20) 
CCC(CC)C(=O)Nc1ccccc1O

>  <inchikey>  (20) 
ZHIXKMXOQAKAKN-UHFFFAOYSA-N

>  <alias>  (20) 
7god-a

$$$$
7gow-a
     RDKit          3D

 14 15  0  0  0  0  0  0  0  0999 V2000
  -11.3380  -26.4930   11.4760 N   0  0  0  0  0  0  0  0  0  0  0  0
  -12.6880  -28.4160   10.7840 C   0  0  0  0  0  0  0  0  0  0  0  0
  -10.8240  -25.2580   11.3840 C   0  0  0  0  0  0  0  0  0  0  0  0
  -10.0570  -24.7210   12.5930 C   0  0  1  0  0  0  0  0  0  0  0  0
   -8.8870  -23.8950   12.1970 C   0  0  0  0  0  0  0  0  0  0  0  0
   -9.1940  -22.5050   12.7110 C   0  0  0  0  0  0  0  0  0  0  0  0
  -12.0740  -29.3420   11.7390 N   0  0  0  0  0  0  0  0  0  0  0  0
  -11.3650  -30.4250   11.0390 C   0  0  0  0  0  0  0  0  0  0  0  0
  -10.9490  -24.5860   10.3770 O   0  0  0  0  0  0  0  0  0  0  0  0
  -11.1690  -28.6160   12.6340 C   0  0  0  0  0  0  0  0  0  0  0  0
  -11.5770  -27.1700   12.7510 C   0  0  0  0  0  0  0  0  0  0  0  0
  -11.6960  -27.3470   10.3400 C   0  0  0  0  0  0  0  0  0  0  0  0
  -10.1580  -22.7660   13.8020 C   0  0  0  0  0  0  0  0  0  0  0  0
  -10.9160  -23.9140   13.4050 O   0  0  0  0  0  0  0  0  0  0  0  0
  8  7  1  0
  7 10  1  0
  7  2  1  0
 10 11  1  0
  2 12  1  0
 12  1  1  0
 11  1  1  0
  1  3  1  0
  4  3  1  6
  3  9  2  0
  4  5  1  0
  4 14  1  0
  5  6  1  0
 14 13  1  0
 13  6  1  0
M  END
>  <smiles>  (21) 
CN1CCN(C(=O)[C@H]2CCCO2)CC1

>  <inchikey>  (21) 
ZSHARPJAQXGCMB-SECBINFHSA-N

>  <alias>  (21) 
7gow-a

$$$$
7gof-a
     RDKit          3D

 18 19  0  0  0  0  0  0  0  0999 V2000
   16.6120   -1.8980   11.8960 N   0  0  0  0  0  0  0  0  0  0  0  0
   15.3470   -1.7290   12.6380 C   0  0  0  0  0  0  0  0  0  0  0  0
   15.2570   -0.4680   13.4960 C   0  0  0  0  0  0  0  0  0  0  0  0
   13.9040   -0.2000   14.1760 C   0  0  0  0  0  0  0  0  0  0  0  0
   13.3750   -1.3450   15.0090 C   0  0  0  0  0  0  0  0  0  0  0  0
   12.1510   -1.9280   14.7150 C   0  0  0  0  0  0  0  0  0  0  0  0
   12.4580   -3.5430   16.4600 C   0  0  0  0  0  0  0  0  0  0  0  0
   16.6050   -1.1690   10.6230 C   0  0  0  0  0  0  0  0  0  0  0  0
   18.8760   -2.0890   10.5530 N   0  0  0  0  0  0  0  0  0  0  0  0
   19.9770   -3.2700    8.7100 C   0  0  0  0  0  0  0  0  0  0  0  0
   20.3330   -3.7320   11.0060 O   0  0  0  0  0  0  0  0  0  0  0  0
   19.7440   -3.0620   10.1750 C   0  0  0  0  0  0  0  0  0  0  0  0
   13.6680   -2.9640   16.7740 C   0  0  0  0  0  0  0  0  0  0  0  0
   14.1240   -1.8700   16.0540 C   0  0  0  0  0  0  0  0  0  0  0  0
   17.7410   -1.6440    9.7360 C   0  0  0  0  0  0  0  0  0  0  0  0
   19.0220   -1.3280   11.8000 C   0  0  0  0  0  0  0  0  0  0  0  0
   17.7880   -1.4870   12.6840 C   0  0  0  0  0  0  0  0  0  0  0  0
   11.6960   -3.0220   15.4350 C   0  0  0  0  0  0  0  0  0  0  0  0
 10 12  1  0
 15  9  1  0
 15  8  1  0
  9 12  1  0
  9 16  1  0
 12 11  2  0
 16 17  1  0
  8  1  1  0
 17  1  1  0
  1  2  1  0
  3  2  2  0
  3  4  1  0
  4  5  1  0
  5  6  2  0
  5 14  1  0
  6 18  1  0
 14 13  2  0
 18  7  2  0
 13  7  1  0
M  END
>  <smiles>  (22) 
CC(=O)N1CCN(/C=C/Cc2ccccc2)CC1

>  <inchikey>  (22) 
ZITAIQWIBNEJAO-WEVVVXLNSA-N

>  <alias>  (22) 
7gof-a

$$$$
7gog-a
     RDKit          3D

 15 16  0  0  0  0  0  0  0  0999 V2000
   15.8910   -1.6880   12.8870 N   0  0  0  0  0  0  0  0  0  0  0  0
   14.3950   -0.3570   14.3890 C   0  0  0  0  0  0  0  0  0  0  0  0
   13.5550   -1.4310   15.0390 C   0  0  0  0  0  0  0  0  0  0  0  0
   12.2930   -1.7390   14.5530 C   0  0  0  0  0  0  0  0  0  0  0  0
   11.5470   -2.7590   15.1200 C   0  0  0  0  0  0  0  0  0  0  0  0
   12.0480   -3.4740   16.1830 C   0  0  0  0  0  0  0  0  0  0  0  0
   14.0430   -2.1570   16.1150 C   0  0  0  0  0  0  0  0  0  0  0  0
   18.2760   -2.8900   11.7430 N   0  0  0  0  0  0  0  0  0  0  0  0
   17.9480   -1.3630    9.8850 C   0  0  0  0  0  0  0  0  0  0  0  0
   15.4180   -0.7140   10.9740 O   0  0  0  0  0  0  0  0  0  0  0  0
   17.2600   -2.3090   10.8640 C   0  0  2  0  0  0  0  0  0  0  0  0
   16.1680   -1.6140   11.6280 C   0  0  0  0  0  0  0  0  0  0  0  0
   14.9220   -0.7310   13.0410 C   0  0  0  0  0  0  0  0  0  0  0  0
   13.2900   -3.1670   16.6860 C   0  0  0  0  0  0  0  0  0  0  0  0
   14.5790   -0.1220   11.9480 N   0  0  0  0  0  0  0  0  0  0  0  0
 11  9  1  6
 10 15  1  0
 10 12  1  0
 11 12  1  0
 11  8  1  0
 15 13  2  0
 12  1  2  0
 13  1  1  0
 13  2  1  0
  2  3  1  0
  3  4  2  0
  3  7  1  0
  4  5  1  0
  7 14  2  0
  5  6  2  0
 14  6  1  0
M  END
>  <smiles>  (23) 
C[C@@H](N)c1nc(Cc2ccccc2)no1

>  <inchikey>  (23) 
TXLVGLOXMNZBCL-MRVPVSSYSA-N

>  <alias>  (23) 
7gog-a

$$$$
7goj-a
     RDKit          3D

 15 17  0  0  0  0  0  0  0  0999 V2000
   -8.9700  -26.9830   32.3170 N   0  0  0  0  0  0  0  0  0  0  0  0
   -9.8190  -24.3360   33.3590 N   0  0  0  0  0  0  0  0  0  0  0  0
  -10.2890  -24.9040   32.2010 C   0  0  0  0  0  0  0  0  0  0  0  0
  -10.4410  -23.2050   33.3900 C   0  0  0  0  0  0  0  0  0  0  0  0
  -10.3570  -22.1310   34.3960 C   0  0  0  0  0  0  0  0  0  0  0  0
  -11.7170  -21.5220   34.7680 C   0  0  0  0  0  0  0  0  0  0  0  0
  -11.1030  -20.1280   34.5980 C   0  0  0  0  0  0  0  0  0  0  0  0
  -10.3210  -26.7760   30.5610 N   0  0  0  0  0  0  0  0  0  0  0  0
  -11.3040  -26.2590   29.6120 C   0  0  0  0  0  0  0  0  0  0  0  0
  -11.2650  -23.0210   32.3440 O   0  0  0  0  0  0  0  0  0  0  0  0
   -9.6760  -27.9840   30.4400 C   0  0  0  0  0  0  0  0  0  0  0  0
   -8.8610  -28.0900   31.5120 C   0  0  0  0  0  0  0  0  0  0  0  0
   -9.8580  -26.2040   31.7150 C   0  0  0  0  0  0  0  0  0  0  0  0
   -9.9490  -20.7750   33.8110 C   0  0  0  0  0  0  0  0  0  0  0  0
  -11.1530  -24.1860   31.5430 N   0  0  0  0  0  0  0  0  0  0  0  0
 14  7  1  0
 14  5  1  0
  7  6  1  0
 10 15  1  0
 10  4  1  0
 15  3  2  0
  9  8  1  0
  5  4  1  0
  5  6  1  0
  4  2  2  0
  3  2  1  0
  3 13  1  0
  8 13  1  0
  8 11  1  0
 13  1  2  0
 11 12  2  0
  1 12  1  0
M  END
>  <smiles>  (24) 
Cn1ccnc1-c1noc(C2CCC2)n1

>  <inchikey>  (24) 
OPUWQKONOBGDBJ-UHFFFAOYSA-N

>  <alias>  (24) 
7goj-a

$$$$
7gou-a
     RDKit          3D

 12 12  0  0  0  0  0  0  0  0999 V2000
   11.4350   -2.5290   15.1950 C   0  0  0  0  0  0  0  0  0  0  0  0
   12.3380   -3.2640   15.9400 C   0  0  0  0  0  0  0  0  0  0  0  0
   13.4310   -2.6380   16.5270 C   0  0  0  0  0  0  0  0  0  0  0  0
   16.0340   -3.6070   16.8650 C   0  0  0  0  0  0  0  0  0  0  0  0
   14.8320   -0.6270   16.7160 N   0  0  0  0  0  0  0  0  0  0  0  0
   15.4540   -0.6560   18.0300 C   0  0  0  0  0  0  0  0  0  0  0  0
   14.4600   -3.1340   18.8680 O   0  0  0  0  0  0  0  0  0  0  0  0
   13.6500   -1.2500   16.3570 C   0  0  0  0  0  0  0  0  0  0  0  0
   12.6870   -0.5370   15.6330 C   0  0  0  0  0  0  0  0  0  0  0  0
   11.6000   -1.1730   15.0560 C   0  0  0  0  0  0  0  0  0  0  0  0
   13.9410   -5.0320   17.4040 O   0  0  0  0  0  0  0  0  0  0  0  0
   14.4240   -3.6900   17.5490 S   0  0  0  0  0  0  0  0  0  0  0  0
  1  2  2  0
  1 10  1  0
  2  3  1  0
  7 12  2  0
 10  9  2  0
  3 12  1  0
  3  8  2  0
 12 11  2  0
 12  4  1  0
  9  8  1  0
  8  5  1  0
  5  6  1  0
M  END
>  <smiles>  (25) 
CNc1ccccc1S(C)(=O)=O

>  <inchikey>  (25) 
YLDKGNWSSXYUAH-UHFFFAOYSA-N

>  <alias>  (25) 
7gou-a

$$$$
7gok-b
     RDKit          3D

 12 13  0  0  0  0  0  0  0  0999 V2000
  -10.7020  -25.6690   27.9200 C   0  0  0  0  0  0  0  0  0  0  0  0
  -10.5000  -25.3040   33.3370 N   0  0  0  0  0  0  0  0  0  0  0  0
  -11.4380  -24.4740   32.8860 C   0  0  0  0  0  0  0  0  0  0  0  0
  -12.2880  -23.9470   33.6320 O   0  0  0  0  0  0  0  0  0  0  0  0
  -11.4690  -24.1830   31.4110 C   0  0  0  0  0  0  0  0  0  0  0  0
  -12.0620  -22.9960   30.9520 C   0  0  0  0  0  0  0  0  0  0  0  0
  -12.1960  -22.7420   29.5940 C   0  0  0  0  0  0  0  0  0  0  0  0
  -11.7450  -23.7010   28.6920 C   0  0  0  0  0  0  0  0  0  0  0  0
  -11.8860  -23.7160   27.3130 N   0  0  0  0  0  0  0  0  0  0  0  0
  -11.0600  -24.7660   26.7230 C   0  0  0  0  0  0  0  0  0  0  0  0
  -11.1220  -24.8640   29.1200 C   0  0  0  0  0  0  0  0  0  0  0  0
  -10.9840  -25.1050   30.4830 C   0  0  0  0  0  0  0  0  0  0  0  0
  2  3  1  0
  4  3  2  0
  3  5  1  0
  5 12  1  0
  5  6  2  0
 12 11  2  0
  6  7  1  0
 11  8  1  0
 11  1  1  0
  7  8  2  0
  8  9  1  0
  1 10  2  0
  9 10  1  0
M  END
>  <smiles>  (26) 
NC(=O)c1ccc2[nH]ccc2c1

>  <inchikey>  (26) 
GQMYQEAXTITUAE-UHFFFAOYSA-N

>  <alias>  (26) 
7gok-b

$$$$
7gok-a
     RDKit          3D

 12 13  0  0  0  0  0  0  0  0999 V2000
    1.2450   -7.0680   27.8270 C   0  0  0  0  0  0  0  0  0  0  0  0
   -1.3550   -5.4590   33.2780 N   0  0  0  0  0  0  0  0  0  0  0  0
   -0.7950   -6.3530   32.4720 C   0  0  0  0  0  0  0  0  0  0  0  0
   -0.7730   -7.5680   32.7280 O   0  0  0  0  0  0  0  0  0  0  0  0
   -0.1580   -5.8550   31.2080 C   0  0  0  0  0  0  0  0  0  0  0  0
    0.2360   -4.5140   31.0620 C   0  0  0  0  0  0  0  0  0  0  0  0
    0.8420   -4.0670   29.8980 C   0  0  0  0  0  0  0  0  0  0  0  0
    1.0730   -4.9820   28.8820 C   0  0  0  0  0  0  0  0  0  0  0  0
    1.6260   -4.7480   27.6310 N   0  0  0  0  0  0  0  0  0  0  0  0
    1.6000   -5.9510   26.8150 C   0  0  0  0  0  0  0  0  0  0  0  0
    0.7250   -6.3180   29.0150 C   0  0  0  0  0  0  0  0  0  0  0  0
    0.0840   -6.7500   30.1680 C   0  0  0  0  0  0  0  0  0  0  0  0
  2  3  1  0
  4  3  2  0
  3  5  1  0
  5 12  1  0
  5  6  2  0
 12 11  2  0
  6  7  1  0
 11  8  1  0
 11  1  1  0
  7  8  2  0
  8  9  1  0
  1 10  2  0
  9 10  1  0
M  END
>  <smiles>  (27) 
NC(=O)c1ccc2[nH]ccc2c1

>  <inchikey>  (27) 
GQMYQEAXTITUAE-UHFFFAOYSA-N

>  <alias>  (27) 
7gok-a

$$$$
7gp2-a
     RDKit          3D

 11 11  0  0  0  0  0  0  0  0999 V2000
   -1.2210    1.4250   28.4530 N   0  0  0  0  0  0  0  0  0  0  0  0
   -1.7560    3.3480   26.3680 C   0  0  0  0  0  0  0  0  0  0  0  0
   -2.6070    2.1140   26.5440 C   0  0  0  0  0  0  0  0  0  0  0  0
   -1.7900    0.9890   27.1630 C   0  0  0  0  0  0  0  0  0  0  0  0
    0.5030   -0.6830   28.4890 C   0  0  0  0  0  0  0  0  0  0  0  0
   -0.6660    0.2330   29.4230 S   0  0  0  0  0  0  0  0  0  0  0  0
    0.0210    0.8620   30.5070 O   0  0  0  0  0  0  0  0  0  0  0  0
   -1.7780   -0.6160   29.7160 O   0  0  0  0  0  0  0  0  0  0  0  0
   -0.3730    2.6250   28.3190 C   0  0  0  0  0  0  0  0  0  0  0  0
   -1.1750    3.7640   27.7000 C   0  0  0  0  0  0  0  0  0  0  0  0
   -2.5260    4.4020   25.7890 O   0  0  0  0  0  0  0  0  0  0  0  0
  8  6  2  0
  4  1  1  0
  4  3  1  0
  6  1  1  0
  6  7  2  0
  6  5  1  0
  1  9  1  0
  3  2  1  0
 11  2  1  0
  2 10  1  0
  9 10  1  0
M  END
>  <smiles>  (28) 
CS(=O)(=O)N1CCC(O)CC1

>  <inchikey>  (28) 
UPEFDWJLNXWMOW-UHFFFAOYSA-N

>  <alias>  (28) 
7gp2-a

$$$$
7go6-a
     RDKit          3D

 11 12  0  0  0  0  0  0  0  0999 V2000
   -5.9330  -26.1550   27.2130 N   0  0  0  0  0  0  0  0  0  0  0  0
   -5.3760  -24.9450   27.5600 C   0  0  0  0  0  0  0  0  0  0  0  0
   -6.4100  -24.1420   27.9020 C   0  0  0  0  0  0  0  0  0  0  0  0
   -7.3130  -26.0210   27.3510 C   0  0  0  0  0  0  0  0  0  0  0  0
   -8.1400  -27.1330   27.0410 C   0  0  0  0  0  0  0  0  0  0  0  0
   -9.7350  -29.3200   26.3380 N   0  0  0  0  0  0  0  0  0  0  0  0
   -8.3870  -29.5010   26.1710 C   0  0  0  0  0  0  0  0  0  0  0  0
   -7.5980  -28.2950   26.5940 C   0  0  0  0  0  0  0  0  0  0  0  0
   -6.1630  -28.3860   26.4680 C   0  0  0  0  0  0  0  0  0  0  0  0
   -5.3860  -27.3490   26.7890 C   0  0  0  0  0  0  0  0  0  0  0  0
   -7.6200  -24.7980   27.7770 N   0  0  0  0  0  0  0  0  0  0  0  0
  2  3  2  0
  2  1  1  0
  3 11  1  0
  1 10  1  0
  1  4  1  0
 11  4  2  0
 10  9  2  0
  4  5  1  0
  9  8  1  0
  5  8  2  0
  8  7  1  0
  7  6  1  0
M  END
>  <smiles>  (29) 
NCc1ccn2ccnc2c1

>  <inchikey>  (29) 
JOQDUOWWWPMEHJ-UHFFFAOYSA-N

>  <alias>  (29) 
7go6-a

$$$$
7goo-a
     RDKit          3D

 15 16  0  0  0  0  0  0  0  0999 V2000
  -13.1660  -23.8320   29.6720 N   0  0  0  0  0  0  0  0  0  0  0  0
  -13.6950  -23.8540   30.9030 C   0  0  0  0  0  0  0  0  0  0  0  0
  -14.7580  -24.9520   31.1080 C   0  0  0  0  0  0  0  0  0  0  0  0
  -12.5810  -21.4920   34.0850 C   0  0  0  0  0  0  0  0  0  0  0  0
  -11.7250  -22.1710   35.1350 C   0  0  0  0  0  0  0  0  0  0  0  0
  -10.4650  -21.3760   35.4120 C   0  0  0  0  0  0  0  0  0  0  0  0
  -10.4460  -21.2850   32.9260 C   0  0  0  0  0  0  0  0  0  0  0  0
  -13.3470  -23.0660   31.9320 N   0  0  0  0  0  0  0  0  0  0  0  0
  -11.5240  -22.9910   28.1100 C   0  0  0  0  0  0  0  0  0  0  0  0
  -15.5690  -24.7660   32.2620 O   0  0  0  0  0  0  0  0  0  0  0  0
  -12.1860  -22.9410   29.4510 C   0  0  0  0  0  0  0  0  0  0  0  0
  -11.7630  -22.0760   30.4450 C   0  0  0  0  0  0  0  0  0  0  0  0
  -12.3600  -22.1860   31.7030 C   0  0  0  0  0  0  0  0  0  0  0  0
  -10.0760  -20.5630   34.1990 C   0  0  0  0  0  0  0  0  0  0  0  0
  -11.8960  -21.4760   32.7900 N   0  0  0  0  0  0  0  0  0  0  0  0
  9 11  1  0
 12 11  1  0
 12 13  2  0
 11  1  2  0
  7 14  1  0
  7 15  1  0
 14  6  1  0
  1  2  1  0
 13 15  1  0
 13  8  1  0
 15  4  1  0
  2  8  2  0
  2  3  1  0
  6  5  1  0
  4  5  1  0
  3 10  1  0
M  END
>  <smiles>  (30) 
Cc1cc(N2CCCCC2)nc(CO)n1

>  <inchikey>  (30) 
GZINCFOQQRVKFL-UHFFFAOYSA-N

>  <alias>  (30) 
7goo-a

$$$$
7goq-a
     RDKit          3D

 14 15  0  0  0  0  0  0  0  0999 V2000
  -12.8520  -24.3700    8.1630 N   0  0  0  0  0  0  0  0  0  0  0  0
   -9.3620  -22.5300   13.7560 C   0  0  0  0  0  0  0  0  0  0  0  0
  -10.2140  -21.6880   12.8870 C   0  0  0  0  0  0  0  0  0  0  0  0
  -12.0170  -25.8410    9.8880 C   0  0  0  0  0  0  0  0  0  0  0  0
  -11.7800  -26.8150    8.9200 C   0  0  0  0  0  0  0  0  0  0  0  0
  -12.1070  -26.5760    7.5910 C   0  0  0  0  0  0  0  0  0  0  0  0
  -12.5450  -24.6330    9.4390 C   0  0  0  0  0  0  0  0  0  0  0  0
  -11.7270  -24.9040   12.1940 N   0  0  0  0  0  0  0  0  0  0  0  0
  -12.8250  -27.0580   11.9730 C   0  0  0  0  0  0  0  0  0  0  0  0
   -9.7380  -24.1640   11.4330 O   0  0  0  0  0  0  0  0  0  0  0  0
  -11.7790  -26.1230   11.3710 C   0  0  1  0  0  0  0  0  0  0  0  0
  -10.6630  -24.0930   12.2320 C   0  0  0  0  0  0  0  0  0  0  0  0
  -10.6890  -23.0600   13.2800 C   0  0  0  0  0  0  0  0  0  0  0  0
  -12.6460  -25.3480    7.2600 C   0  0  0  0  0  0  0  0  0  0  0  0
  5  6  2  0
  5  4  1  0
 11  9  1  1
  6 14  1  0
 11  4  1  0
 11  8  1  0
  4  7  2  0
 14  1  2  0
  8 12  1  0
  7  1  1  0
 10 12  2  0
 12 13  1  0
 13  2  1  0
 13  3  1  0
  2  3  1  0
M  END
>  <smiles>  (31) 
C[C@H](NC(=O)C1CC1)c1cccnc1

>  <inchikey>  (31) 
XMSIZXIEDPYJDR-QMMMGPOBSA-N

>  <alias>  (31) 
7goq-a

$$$$
7gor-a
     RDKit          3D

 15 16  0  0  0  0  0  0  0  0999 V2000
  -11.7490  -24.6660   27.8520 N   0  0  0  0  0  0  0  0  0  0  0  0
  -11.4660  -23.3680   27.7920 C   0  0  0  0  0  0  0  0  0  0  0  0
  -11.2270  -23.1880   31.4850 C   0  0  0  0  0  0  0  0  0  0  0  0
  -12.6150  -22.0410   32.9450 C   0  0  0  0  0  0  0  0  0  0  0  0
  -11.7550  -22.1980   34.0100 C   0  0  0  0  0  0  0  0  0  0  0  0
  -10.5790  -22.8980   33.8140 C   0  0  0  0  0  0  0  0  0  0  0  0
  -10.9940  -23.6360   30.1890 N   0  0  0  0  0  0  0  0  0  0  0  0
   -9.7360  -25.9510   27.6230 C   0  0  0  0  0  0  0  0  0  0  0  0
  -11.4820  -22.7470   26.7370 O   0  0  0  0  0  0  0  0  0  0  0  0
  -10.8840  -25.5790   28.5460 C   0  0  1  0  0  0  0  0  0  0  0  0
  -10.3490  -24.9230   29.9170 C   0  0  0  0  0  0  0  0  0  0  0  0
  -11.0800  -22.6950   29.0750 C   0  0  0  0  0  0  0  0  0  0  0  0
  -10.3170  -23.3880   32.5580 C   0  0  0  0  0  0  0  0  0  0  0  0
   -9.1770  -24.0850   32.3670 F   0  0  0  0  0  0  0  0  0  0  0  0
  -12.3710  -22.5150   31.7120 N   0  0  0  0  0  0  0  0  0  0  0  0
  9  2  2  0
  2 12  1  0
  2  1  1  0
 12  7  1  0
 10  8  1  6
  1 10  1  0
 10 11  1  0
  7 11  1  0
  7  3  1  0
  3 15  1  0
  3 13  2  0
 15  4  2  0
 14 13  1  0
 13  6  1  0
  4  5  1  0
  6  5  2  0
M  END
>  <smiles>  (32) 
C[C@H]1CN(c2ncccc2F)CC(=O)N1

>  <inchikey>  (32) 
ADIKUTCTGUZIDP-ZETCQYMHSA-N

>  <alias>  (32) 
7gor-a

$$$$
7gqd-a
     RDKit          3D

 15 17  0  0  0  0  0  0  0  0999 V2000
   12.5720   -1.1240   14.6630 N   0  0  0  0  0  0  0  0  0  0  0  0
   14.0360    0.8440   12.4430 C   0  0  0  0  0  0  0  0  0  0  0  0
   12.6910    1.4650   12.7060 C   0  0  0  0  0  0  0  0  0  0  0  0
   11.9020    2.2470   11.8720 C   0  0  0  0  0  0  0  0  0  0  0  0
   10.7500    2.8310   12.3620 C   0  0  0  0  0  0  0  0  0  0  0  0
   10.3600    2.6080   13.6610 C   0  0  0  0  0  0  0  0  0  0  0  0
   12.2800    1.2250   14.0080 C   0  0  0  0  0  0  0  0  0  0  0  0
   13.2540   -0.8680   16.7470 N   0  0  0  0  0  0  0  0  0  0  0  0
   12.6460   -1.7410   15.8660 C   0  0  0  0  0  0  0  0  0  0  0  0
   12.2450   -2.8700   16.1510 O   0  0  0  0  0  0  0  0  0  0  0  0
   13.5790    0.3110   16.1430 C   0  0  0  0  0  0  0  0  0  0  0  0
   13.1820    0.2000   14.6620 C   0  0  1  0  0  0  0  0  0  0  0  0
   14.4650    0.2800   13.7990 C   0  0  0  0  0  0  0  0  0  0  0  0
   11.1160    1.7940   14.4910 C   0  0  0  0  0  0  0  0  0  0  0  0
   14.1010    1.2750   16.6750 O   0  0  0  0  0  0  0  0  0  0  0  0
  4  5  1  0
  4  3  2  0
  2  3  1  0
  2 13  1  0
  5  6  2  0
  3  7  1  0
 12 13  1  6
  6 14  1  0
  7 14  2  0
  7 12  1  0
 12 11  1  0
 12  1  1  0
 15 11  2  0
 11  8  1  0
  1  9  1  0
  8  9  1  0
  9 10  2  0
M  END
>  <smiles>  (33) 
O=C1NC(=O)[C@@]2(CCc3ccccc32)N1

>  <inchikey>  (33) 
CDALGRHRPPTQPM-NSHDSACASA-N

>  <alias>  (33) 
7gqd-a

$$$$
7gqd-b
     RDKit          3D

 15 17  0  0  0  0  0  0  0  0999 V2000
   -7.7880   -3.4150    6.2060 N   0  0  0  0  0  0  0  0  0  0  0  0
   -5.0650   -1.4970    7.2250 C   0  0  0  0  0  0  0  0  0  0  0  0
   -5.9010   -0.4260    6.5930 C   0  0  0  0  0  0  0  0  0  0  0  0
   -5.5760    0.8870    6.2910 C   0  0  0  0  0  0  0  0  0  0  0  0
   -6.5030    1.7050    5.6710 C   0  0  0  0  0  0  0  0  0  0  0  0
   -7.7450    1.2120    5.3360 C   0  0  0  0  0  0  0  0  0  0  0  0
   -7.1640   -0.9050    6.2870 C   0  0  0  0  0  0  0  0  0  0  0  0
   -9.3400   -3.2460    7.7550 N   0  0  0  0  0  0  0  0  0  0  0  0
   -8.8530   -4.0400    6.7240 C   0  0  0  0  0  0  0  0  0  0  0  0
   -9.2850   -5.1320    6.3840 O   0  0  0  0  0  0  0  0  0  0  0  0
   -8.5970   -2.1220    7.9120 C   0  0  0  0  0  0  0  0  0  0  0  0
   -7.3990   -2.2340    6.9630 C   0  0  1  0  0  0  0  0  0  0  0  0
   -6.0970   -2.4770    7.7500 C   0  0  0  0  0  0  0  0  0  0  0  0
   -8.0810   -0.1000    5.6310 C   0  0  0  0  0  0  0  0  0  0  0  0
   -8.8840   -1.1400    8.5910 O   0  0  0  0  0  0  0  0  0  0  0  0
  4  5  1  0
  4  3  2  0
  2  3  1  0
  2 13  1  0
  5  6  2  0
  3  7  1  0
 12 13  1  1
  6 14  1  0
  7 14  2  0
  7 12  1  0
 12 11  1  0
 12  1  1  0
 15 11  2  0
 11  8  1  0
  1  9  1  0
  8  9  1  0
  9 10  2  0
M  END
>  <smiles>  (34) 
O=C1NC(=O)[C@@]2(CCc3ccccc32)N1

>  <inchikey>  (34) 
CDALGRHRPPTQPM-NSHDSACASA-N

>  <alias>  (34) 
7gqd-b

$$$$
7gos-a
     RDKit          3D

 17 19  0  0  0  0  0  0  0  0999 V2000
  -11.8120  -22.6850   29.5940 C   0  0  0  0  0  0  0  0  0  0  0  0
  -11.9760  -23.2130   26.8630 C   0  0  0  0  0  0  0  0  0  0  0  0
  -12.1290  -23.9620   29.1480 C   0  0  0  0  0  0  0  0  0  0  0  0
   -9.9840  -23.9290   34.3220 C   0  0  0  0  0  0  0  0  0  0  0  0
   -9.6560  -24.5610   33.1230 C   0  0  0  0  0  0  0  0  0  0  0  0
  -10.1830  -24.1200   31.9180 C   0  0  0  0  0  0  0  0  0  0  0  0
  -11.0580  -23.0440   31.9560 C   0  0  0  0  0  0  0  0  0  0  0  0
  -11.3970  -22.3990   33.1440 C   0  0  0  0  0  0  0  0  0  0  0  0
  -10.8520  -22.8430   34.3450 C   0  0  0  0  0  0  0  0  0  0  0  0
  -12.3160  -21.3790   32.8930 N   0  0  0  0  0  0  0  0  0  0  0  0
  -12.5170  -21.4350   31.6020 C   0  0  0  0  0  0  0  0  0  0  0  0
  -11.8000  -22.4010   30.9660 N   0  0  0  0  0  0  0  0  0  0  0  0
  -11.5550  -21.6840   28.6780 C   0  0  0  0  0  0  0  0  0  0  0  0
  -11.6410  -21.9490   27.3260 C   0  0  0  0  0  0  0  0  0  0  0  0
  -12.2060  -24.2170   27.7930 C   0  0  0  0  0  0  0  0  0  0  0  0
  -12.1150  -23.4830   25.3950 C   0  0  0  0  0  0  0  0  0  0  0  0
  -12.4940  -22.3460   24.6130 O   0  0  0  0  0  0  0  0  0  0  0  0
 11 10  2  0
 11 12  1  0
  3 15  1  0
  3  1  2  0
 10  8  1  0
 15  2  2  0
 17 16  1  0
 12  1  1  0
 12  7  1  0
  1 13  1  0
  8  7  2  0
  8  9  1  0
  2 16  1  0
  2 14  1  0
  7  6  1  0
  9  4  2  0
 13 14  2  0
  6  5  2  0
  4  5  1  0
M  END
>  <smiles>  (35) 
OCc1ccc(-n2cnc3ccccc32)cc1

>  <inchikey>  (35) 
IRZKUEWQJPIBJF-UHFFFAOYSA-N

>  <alias>  (35) 
7gos-a

$$$$
7gpf-a
     RDKit          3D

 15 16  0  0  0  0  0  0  0  0999 V2000
   -1.1510    1.5180   26.9700 N   0  0  0  0  0  0  0  0  0  0  0  0
    1.9860    5.6130   26.5050 C   0  0  0  0  0  0  0  0  0  0  0  0
    1.9960    4.4330   27.2360 C   0  0  0  0  0  0  0  0  0  0  0  0
   -0.4440    3.9850   27.3090 C   0  0  0  0  0  0  0  0  0  0  0  0
   -1.3510    2.8350   27.5690 C   0  0  1  0  0  0  0  0  0  0  0  0
   -2.8160    3.1550   27.7470 C   0  0  0  0  0  0  0  0  0  0  0  0
   -2.5130    1.0360   26.6700 C   0  0  0  0  0  0  0  0  0  0  0  0
    0.8580    3.6690   27.4900 N   0  0  0  0  0  0  0  0  0  0  0  0
    5.5020    3.4760   27.5060 C   0  0  0  0  0  0  0  0  0  0  0  0
   -0.8930    5.0580   26.9140 O   0  0  0  0  0  0  0  0  0  0  0  0
    4.2820    4.2440   27.1140 C   0  0  0  0  0  0  0  0  0  0  0  0
    4.3590    5.3980   26.3370 C   0  0  0  0  0  0  0  0  0  0  0  0
    3.1970    6.0830   26.0360 C   0  0  0  0  0  0  0  0  0  0  0  0
   -3.4590    2.2470   26.7270 C   0  0  0  0  0  0  0  0  0  0  0  0
    3.1100    3.7730   27.5620 N   0  0  0  0  0  0  0  0  0  0  0  0
  7  1  1  0
  7 14  1  0
  1  5  1  0
 14  6  1  0
  5  6  1  0
  5  4  1  6
  9 11  1  0
 15 11  2  0
 15  3  1  0
  8  4  1  0
  8  3  1  0
 11 12  1  0
  4 10  2  0
  3  2  2  0
 12 13  2  0
  2 13  1  0
M  END
>  <smiles>  (36) 
Cc1cccc(NC(=O)[C@H]2CCCN2)n1

>  <inchikey>  (36) 
QILVMVSMHKJUDZ-SECBINFHSA-N

>  <alias>  (36) 
7gpf-a

$$$$
7gqm-a
     RDKit          3D

 13 14  0  0  0  0  0  0  0  0999 V2000
  -10.9670  -24.6010   29.7500 N   0  0  0  0  0  0  0  0  0  0  0  0
  -10.2760  -23.0480   31.4660 C   0  0  0  0  0  0  0  0  0  0  0  0
  -10.7480  -21.9670   32.2100 C   0  0  0  0  0  0  0  0  0  0  0  0
  -10.3430  -21.7820   33.5230 C   0  0  0  0  0  0  0  0  0  0  0  0
   -9.4560  -22.6560   34.1070 C   0  0  0  0  0  0  0  0  0  0  0  0
   -8.9650  -23.7190   33.3820 C   0  0  0  0  0  0  0  0  0  0  0  0
  -11.0300  -22.2530   29.3140 N   0  0  0  0  0  0  0  0  0  0  0  0
  -11.6860  -23.8000   27.6220 C   0  0  0  0  0  0  0  0  0  0  0  0
  -11.8740  -24.0530   26.2960 O   0  0  0  0  0  0  0  0  0  0  0  0
  -11.4780  -22.5140   28.0780 C   0  0  0  0  0  0  0  0  0  0  0  0
  -10.7910  -23.3170   30.0960 C   0  0  0  0  0  0  0  0  0  0  0  0
  -11.4110  -24.8250   28.5070 C   0  0  0  0  0  0  0  0  0  0  0  0
   -9.3670  -23.9140   32.0690 C   0  0  0  0  0  0  0  0  0  0  0  0
  9  8  1  0
 10  8  2  0
 10  7  1  0
  8 12  1  0
  7 11  2  0
 12  1  2  0
 11  1  1  0
 11  2  1  0
  2  3  2  0
  2 13  1  0
  3  4  1  0
 13  6  2  0
  4  5  2  0
  6  5  1  0
M  END
>  <smiles>  (37) 
Oc1cnc(-c2ccccc2)nc1

>  <inchikey>  (37) 
VXOJYMHSOARYSV-UHFFFAOYSA-N

>  <alias>  (37) 
7gqm-a

$$$$
7got-a
     RDKit          3D

 16 17  0  0  0  0  0  0  0  0999 V2000
   12.2730    0.4790   15.9250 N   0  0  0  0  0  0  0  0  0  0  0  0
   13.2370    2.2240   17.3380 C   0  0  0  0  0  0  0  0  0  0  0  0
   13.1700    0.7930   16.8440 C   0  0  0  0  0  0  0  0  0  0  0  0
   12.3040   -0.9140   15.8530 C   0  0  0  0  0  0  0  0  0  0  0  0
   11.5090   -1.8000   15.1290 C   0  0  0  0  0  0  0  0  0  0  0  0
   11.6890   -3.1620   15.3150 C   0  0  0  0  0  0  0  0  0  0  0  0
   13.4620   -2.7680   16.9160 C   0  0  0  0  0  0  0  0  0  0  0  0
   16.0090    2.6650   15.3460 O   0  0  0  0  0  0  0  0  0  0  0  0
   15.4400    2.7140   16.4350 C   0  0  0  0  0  0  0  0  0  0  0  0
   16.1830    2.4140   17.7200 C   0  0  0  0  0  0  0  0  0  0  0  0
   16.5200    3.6760   18.5190 C   0  0  0  0  0  0  0  0  0  0  0  0
   15.3610    4.2360   19.3420 C   0  0  0  0  0  0  0  0  0  0  0  0
   14.1490    3.0280   16.5540 N   0  0  0  0  0  0  0  0  0  0  0  0
   13.8170   -0.2880   17.3430 N   0  0  0  0  0  0  0  0  0  0  0  0
   13.2660   -1.4070   16.7360 C   0  0  0  0  0  0  0  0  0  0  0  0
   12.6540   -3.6410   16.2000 C   0  0  0  0  0  0  0  0  0  0  0  0
  7 16  2  0
  7 15  1  0
 16  6  1  0
 15 14  1  0
 15  4  2  0
 14  3  2  0
  6  5  2  0
  4  5  1  0
  4  1  1  0
  3  2  1  0
  3  1  1  0
  2 13  1  0
 13  9  1  0
  8  9  2  0
  9 10  1  0
 10 11  1  0
 11 12  1  0
M  END
>  <smiles>  (38) 
CCCC(=O)NCc1nc2ccccc2[nH]1

>  <inchikey>  (38) 
MXDONONSXPZRMO-UHFFFAOYSA-N

>  <alias>  (38) 
7got-a

$$$$
7gov-a
     RDKit          3D

 17 18  0  0  0  0  0  0  0  0999 V2000
   -1.7860   -8.3390   31.4330 N   0  0  0  0  0  0  0  0  0  0  0  0
    0.6550   -3.7360   38.2070 C   0  0  0  0  0  0  0  0  0  0  0  0
    0.0450   -4.4030   37.1740 C   0  0  0  0  0  0  0  0  0  0  0  0
    0.7260   -4.5010   35.9600 C   0  0  0  0  0  0  0  0  0  0  0  0
    0.3190   -6.5560   34.7190 C   0  0  0  0  0  0  0  0  0  0  0  0
   -0.4200   -7.1590   33.5680 C   0  0  0  0  0  0  0  0  0  0  0  0
   -0.9010   -7.3540   31.2390 C   0  0  0  0  0  0  0  0  0  0  0  0
    0.1540   -5.2300   34.8970 N   0  0  0  0  0  0  0  0  0  0  0  0
    2.7820   -4.0740   34.5170 C   0  0  0  0  0  0  0  0  0  0  0  0
    1.0130   -7.2460   35.4590 O   0  0  0  0  0  0  0  0  0  0  0  0
    1.9980   -3.9230   35.7960 C   0  0  0  0  0  0  0  0  0  0  0  0
   -1.9860   -8.7330   32.6960 C   0  0  0  0  0  0  0  0  0  0  0  0
   -1.3360   -8.1810   33.7840 C   0  0  0  0  0  0  0  0  0  0  0  0
    2.5440   -3.2370   36.8800 C   0  0  0  0  0  0  0  0  0  0  0  0
    1.8850   -3.1450   38.0920 C   0  0  0  0  0  0  0  0  0  0  0  0
   -0.2030   -6.7390   32.2600 C   0  0  0  0  0  0  0  0  0  0  0  0
    0.0140   -3.6840   39.4080 F   0  0  0  0  0  0  0  0  0  0  0  0
  9 11  1  0
 11 14  2  0
 11  4  1  0
 14 15  1  0
  7 16  1  0
  7  1  2  0
 16  6  2  0
  8  4  1  0
  8  5  1  0
  4  3  2  0
 15  2  2  0
  1 12  1  0
  6  5  1  0
  6 13  1  0
  5 10  2  0
  3  2  1  0
  2 17  1  0
 12 13  2  0
M  END
>  <smiles>  (39) 
Cc1ccc(F)cc1NC(=O)c1ccncc1

>  <inchikey>  (39) 
CUFWRVYZYQAQCS-UHFFFAOYSA-N

>  <alias>  (39) 
7gov-a

$$$$
7gox-a
     RDKit          3D

 13 13  0  0  0  0  0  0  0  0999 V2000
    1.8900    4.0660   27.5100 N   0  0  0  0  0  0  0  0  0  0  0  0
    0.5530    3.6950   27.2490 C   0  0  0  0  0  0  0  0  0  0  0  0
   -0.4130    3.6300   28.2470 C   0  0  0  0  0  0  0  0  0  0  0  0
   -1.7100    3.2700   27.9180 C   0  0  0  0  0  0  0  0  0  0  0  0
   -2.0690    2.9670   26.6120 C   0  0  0  0  0  0  0  0  0  0  0  0
   -1.0960    3.0330   25.6270 C   0  0  0  0  0  0  0  0  0  0  0  0
   -3.4890    2.5950   26.2650 C   0  0  0  0  0  0  0  0  0  0  0  0
    4.5900    4.7060   28.3590 C   0  0  0  0  0  0  0  0  0  0  0  0
    4.0340    4.9970   26.9820 C   0  0  0  0  0  0  0  0  0  0  0  0
    2.5330    5.1210   26.9630 C   0  0  0  0  0  0  0  0  0  0  0  0
    1.9580    6.0720   26.4410 O   0  0  0  0  0  0  0  0  0  0  0  0
    0.2060    3.3950   25.9270 C   0  0  0  0  0  0  0  0  0  0  0  0
    1.1470    3.6120   24.9320 O   0  0  0  0  0  0  0  0  0  0  0  0
  8  9  1  0
  4  3  1  0
  4  5  2  0
  3  2  2  0
  7  5  1  0
 11 10  2  0
  5  6  1  0
 10  9  1  0
 10  1  1  0
  2  1  1  0
  2 12  1  0
  6 12  2  0
 12 13  1  0
M  END
>  <smiles>  (40) 
CCC(=O)Nc1ccc(C)cc1O

>  <inchikey>  (40) 
VFXXPGGIPBIYCC-UHFFFAOYSA-N

>  <alias>  (40) 
7gox-a

$$$$
7goy-a
     RDKit          3D

 14 14  0  0  0  0  0  0  0  0999 V2000
   -1.1070    0.0340   31.3590 N   0  0  0  0  0  0  0  0  0  0  0  0
   -1.8670   -0.9920   31.0400 C   0  0  0  0  0  0  0  0  0  0  0  0
   -1.7140   -1.3620   29.6890 C   0  0  0  0  0  0  0  0  0  0  0  0
   -0.8050   -0.5060   29.1970 C   0  0  0  0  0  0  0  0  0  0  0  0
   -0.1370   -0.3500   27.8790 C   0  0  0  0  0  0  0  0  0  0  0  0
   -3.0260   -0.8940   33.1310 N   0  0  0  0  0  0  0  0  0  0  0  0
   -7.2220   -0.9230   35.3990 C   0  0  0  0  0  0  0  0  0  0  0  0
   -5.7760   -0.9880   35.4310 O   0  0  0  0  0  0  0  0  0  0  0  0
   -5.1420   -0.6870   34.3080 C   0  0  0  0  0  0  0  0  0  0  0  0
   -3.8330   -1.4120   34.2150 C   0  0  0  0  0  0  0  0  0  0  0  0
   -2.7340   -1.6350   32.0570 C   0  0  0  0  0  0  0  0  0  0  0  0
   -5.5530    0.0630   33.5040 O   0  0  0  0  0  0  0  0  0  0  0  0
   -3.1480   -2.7910   31.9080 O   0  0  0  0  0  0  0  0  0  0  0  0
   -0.4170    0.3530   30.1590 O   0  0  0  0  0  0  0  0  0  0  0  0
 14  1  1  0
 14  4  1  0
 12  9  2  0
  1  2  2  0
  6 10  1  0
  6 11  1  0
  4  5  1  0
  4  3  2  0
  9 10  1  0
  9  8  1  0
  2 11  1  0
  2  3  1  0
  7  8  1  0
 11 13  2  0
M  END
>  <smiles>  (41) 
COC(=O)CNC(=O)c1cc(C)on1

>  <inchikey>  (41) 
FPAQMEYCJIMDCC-UHFFFAOYSA-N

>  <alias>  (41) 
7goy-a

$$$$
7goz-a
     RDKit          3D

 15 16  0  0  0  0  0  0  0  0999 V2000
   13.0890   -1.1860   16.5640 N   0  0  0  0  0  0  0  0  0  0  0  0
   11.5930   -1.2840   14.6910 C   0  0  0  0  0  0  0  0  0  0  0  0
   12.4300   -0.6040   15.5510 C   0  0  0  0  0  0  0  0  0  0  0  0
   14.4350   -4.4580   19.6310 C   0  0  2  0  0  0  0  0  0  0  0  0
   15.0810   -3.2110   20.1930 C   0  0  0  0  0  0  0  0  0  0  0  0
   14.5600   -3.9230   22.3670 C   0  0  0  0  0  0  0  0  0  0  0  0
   13.4810   -2.9880   17.9300 N   0  0  0  0  0  0  0  0  0  0  0  0
   13.8750   -4.2520   18.2260 C   0  0  0  0  0  0  0  0  0  0  0  0
   13.8270   -5.1980   17.4460 O   0  0  0  0  0  0  0  0  0  0  0  0
   12.9050   -2.5010   16.7480 C   0  0  0  0  0  0  0  0  0  0  0  0
   12.0910   -3.2760   15.9110 C   0  0  0  0  0  0  0  0  0  0  0  0
   11.4320   -2.6350   14.8760 C   0  0  0  0  0  0  0  0  0  0  0  0
   13.8810   -5.1450   21.8250 C   0  0  0  0  0  0  0  0  0  0  0  0
   15.6030   -3.4700   21.4990 O   0  0  0  0  0  0  0  0  0  0  0  0
   13.3790   -4.8850   20.5030 O   0  0  0  0  0  0  0  0  0  0  0  0
  3  2  1  0
  3  1  2  0
  2 12  2  0
  1 10  1  0
 12 11  1  0
 10 11  2  0
 10  7  1  0
  7  8  1  0
  8  9  2  0
  4  8  1  6
  5  4  1  0
  5 14  1  0
  4 15  1  0
 14  6  1  0
 15 13  1  0
  6 13  1  0
M  END
>  <smiles>  (42) 
O=C(Nc1ccccn1)[C@H]1COCCO1

>  <inchikey>  (42) 
MYQOETKNJQIOKN-MRVPVSSYSA-N

>  <alias>  (42) 
7goz-a

$$$$
7gp0-a
     RDKit          3D

 14 14  0  0  0  0  0  0  0  0999 V2000
   16.1180   -4.4190   17.4710 N   0  0  0  0  0  0  0  0  0  0  0  0
   15.7130    0.7780   17.9410 C   0  0  0  0  0  0  0  0  0  0  0  0
   15.3880    0.2910   16.6860 C   0  0  0  0  0  0  0  0  0  0  0  0
   15.0870   -1.0550   16.5200 C   0  0  0  0  0  0  0  0  0  0  0  0
   15.2040   -1.0450   14.1620 C   0  0  0  0  0  0  0  0  0  0  0  0
   14.7200   -3.6300   17.5210 S   0  0  0  0  0  0  0  0  0  0  0  0
   14.0610   -3.8550   16.2700 O   0  0  0  0  0  0  0  0  0  0  0  0
   14.0390   -4.0220   18.7230 O   0  0  0  0  0  0  0  0  0  0  0  0
   15.0950   -1.9010   17.6400 C   0  0  0  0  0  0  0  0  0  0  0  0
   15.4210   -1.4020   18.8940 C   0  0  0  0  0  0  0  0  0  0  0  0
   15.7340   -0.0600   19.0340 C   0  0  0  0  0  0  0  0  0  0  0  0
   14.8340   -1.6500   15.3080 O   0  0  0  0  0  0  0  0  0  0  0  0
   14.3230   -0.0300   14.0670 F   0  0  0  0  0  0  0  0  0  0  0  0
   16.4610   -0.5760   14.3480 F   0  0  0  0  0  0  0  0  0  0  0  0
  7  6  2  0
 10 11  1  0
 10  9  2  0
  8  6  2  0
  6  9  1  0
  6  1  1  0
 11  2  2  0
  9  4  1  0
  2  3  1  0
  4  3  2  0
  4 12  1  0
  5 13  1  0
  5 12  1  0
  5 14  1  0
M  END
>  <smiles>  (43) 
NS(=O)(=O)c1ccccc1OC(F)F

>  <inchikey>  (43) 
XDODAVQVIOWLPT-UHFFFAOYSA-N

>  <alias>  (43) 
7gp0-a

$$$$
7gp0-b
     RDKit          3D

 14 14  0  0  0  0  0  0  0  0999 V2000
   -9.9050  -24.9720   32.4590 N   0  0  0  0  0  0  0  0  0  0  0  0
  -11.3880  -24.7210   27.4510 C   0  0  0  0  0  0  0  0  0  0  0  0
  -11.5570  -23.7620   28.4360 C   0  0  0  0  0  0  0  0  0  0  0  0
  -11.4490  -24.1170   29.7690 C   0  0  0  0  0  0  0  0  0  0  0  0
  -12.7170  -22.7920   31.1990 C   0  0  0  0  0  0  0  0  0  0  0  0
  -11.0000  -25.9300   31.7840 S   0  0  0  0  0  0  0  0  0  0  0  0
  -10.4660  -27.2660   31.8260 O   0  0  0  0  0  0  0  0  0  0  0  0
  -12.2590  -25.6450   32.4140 O   0  0  0  0  0  0  0  0  0  0  0  0
  -11.1800  -25.4520   30.1010 C   0  0  0  0  0  0  0  0  0  0  0  0
  -11.0270  -26.4120   29.1130 C   0  0  0  0  0  0  0  0  0  0  0  0
  -11.1230  -26.0340   27.7870 C   0  0  0  0  0  0  0  0  0  0  0  0
  -11.5460  -23.2420   30.8200 O   0  0  0  0  0  0  0  0  0  0  0  0
  -12.5920  -21.6880   30.5470 F   0  0  0  0  0  0  0  0  0  0  0  0
  -12.6340  -22.5070   32.4840 F   0  0  0  0  0  0  0  0  0  0  0  0
  7  6  2  0
 10 11  1  0
 10  9  2  0
  8  6  2  0
  6  9  1  0
  6  1  1  0
 11  2  2  0
  9  4  1  0
  2  3  1  0
  4  3  2  0
  4 12  1  0
  5 13  1  0
  5 12  1  0
  5 14  1  0
M  END
>  <smiles>  (44) 
NS(=O)(=O)c1ccccc1OC(F)F

>  <inchikey>  (44) 
XDODAVQVIOWLPT-UHFFFAOYSA-N

>  <alias>  (44) 
7gp0-b

$$$$
7gq5-a
     RDKit          3D

  7  7  0  0  0  0  0  0  0  0999 V2000
   12.8540   -1.2350   16.4000 N   0  0  0  0  0  0  0  0  0  0  0  0
   13.3770   -4.5760   17.3000 N   0  0  0  0  0  0  0  0  0  0  0  0
   12.9400   -3.6690   16.7360 C   0  0  0  0  0  0  0  0  0  0  0  0
   12.4460   -2.5010   16.0580 C   0  0  0  0  0  0  0  0  0  0  0  0
   11.6020   -2.4270   14.9840 C   0  0  0  0  0  0  0  0  0  0  0  0
   11.5090   -1.1080   14.6540 N   0  0  0  0  0  0  0  0  0  0  0  0
   12.2700   -0.4310   15.5220 C   0  0  0  0  0  0  0  0  0  0  0  0
  2  3  3  0
  3  4  1  0
  5  4  2  0
  5  6  1  0
  4  1  1  0
  6  7  2  0
  1  7  1  0
M  END
>  <smiles>  (45) 
N#Cc1cnc[nH]1

>  <inchikey>  (45) 
NWVGXXPWOYZODV-UHFFFAOYSA-N

>  <alias>  (45) 
7gq5-a

$$$$
7gq5-b
     RDKit          3D

  7  7  0  0  0  0  0  0  0  0999 V2000
  -10.9970  -26.3280   27.6220 N   0  0  0  0  0  0  0  0  0  0  0  0
   -9.5990  -25.5880   30.7630 N   0  0  0  0  0  0  0  0  0  0  0  0
  -10.1560  -25.4930   29.7730 C   0  0  0  0  0  0  0  0  0  0  0  0
  -10.8440  -25.3120   28.5290 C   0  0  0  0  0  0  0  0  0  0  0  0
  -11.4460  -24.1830   28.0480 C   0  0  0  0  0  0  0  0  0  0  0  0
  -11.9780  -24.5160   26.8390 N   0  0  0  0  0  0  0  0  0  0  0  0
  -11.6870  -25.8020   26.6240 C   0  0  0  0  0  0  0  0  0  0  0  0
  2  3  3  0
  3  4  1  0
  5  4  2  0
  5  6  1  0
  4  1  1  0
  6  7  2  0
  1  7  1  0
M  END
>  <smiles>  (46) 
N#Cc1cnc[nH]1

>  <inchikey>  (46) 
NWVGXXPWOYZODV-UHFFFAOYSA-N

>  <alias>  (46) 
7gq5-b

$$$$
7gnv-a
     RDKit          3D

  9  9  0  0  0  0  0  0  0  0999 V2000
   13.1070   -3.3800   16.5100 S   0  0  0  0  0  0  0  0  0  0  0  0
   13.5480   -1.7180   16.3600 C   0  0  0  0  0  0  0  0  0  0  0  0
   12.7130   -1.0480   15.5010 C   0  0  0  0  0  0  0  0  0  0  0  0
   11.7180   -1.9100   14.9830 C   0  0  0  0  0  0  0  0  0  0  0  0
   11.8130   -3.1750   15.4350 C   0  0  0  0  0  0  0  0  0  0  0  0
   12.8340    0.4050   15.1160 C   0  0  0  0  0  0  0  0  0  0  0  0
   14.7110   -1.2140   17.1110 C   0  0  0  0  0  0  0  0  0  0  0  0
   14.6550   -0.1640   17.7450 O   0  0  0  0  0  0  0  0  0  0  0  0
   15.7870   -1.9760   17.0140 O   0  0  0  0  0  0  0  0  0  0  0  0
  6  3  1  0
  4  3  1  0
  4  5  2  0
  3  2  2  0
  5  1  1  0
  8  7  2  0
  2  7  1  0
  2  1  1  0
  7  9  1  0
M  END
>  <smiles>  (47) 
Cc1ccsc1C(=O)O

>  <inchikey>  (47) 
IFLKEBSJTZGCJG-UHFFFAOYSA-N

>  <alias>  (47) 
7gnv-a

$$$$
7gpm-a
     RDKit          3D

 13 14  0  0  0  0  0  0  0  0999 V2000
   -1.9830    2.7580   28.0750 N   0  0  0  0  0  0  0  0  0  0  0  0
   -1.9390    1.6060   27.4720 C   0  0  0  0  0  0  0  0  0  0  0  0
   -1.7120    0.2830   28.1540 C   0  0  2  0  0  0  0  0  0  0  0  0
   -1.8210    0.3710   29.6820 C   0  0  0  0  0  0  0  0  0  0  0  0
   -0.4030    0.7020   30.1340 C   0  0  0  0  0  0  0  0  0  0  0  0
    0.4890    0.0140   29.1060 C   0  0  0  0  0  0  0  0  0  0  0  0
   -2.0140    1.6690   26.1060 N   0  0  0  0  0  0  0  0  0  0  0  0
   -1.3570    2.8430   23.4770 C   0  0  0  0  0  0  0  0  0  0  0  0
   -2.0730    3.6740   27.0040 O   0  0  0  0  0  0  0  0  0  0  0  0
   -2.0240    3.6470   24.5690 C   0  0  0  0  0  0  0  0  0  0  0  0
   -3.4180    4.0310   24.1490 C   0  0  0  0  0  0  0  0  0  0  0  0
   -2.0690    2.9380   25.8820 C   0  0  0  0  0  0  0  0  0  0  0  0
   -0.3650   -0.2580   27.9310 N   0  0  0  0  0  0  0  0  0  0  0  0
  8 10  1  0
 10 11  1  0
 10 12  1  0
 12  9  1  0
 12  7  2  0
  9  1  1  0
  7  2  1  0
  1  2  2  0
  3  2  1  6
 13  6  1  0
 13  3  1  0
  6  5  1  0
  3  4  1  0
  5  4  1  0
M  END
>  <smiles>  (48) 
CC(C)c1nc([C@@H]2CCCN2)no1

>  <inchikey>  (48) 
WKTDGUSTKNDUEI-ZETCQYMHSA-N

>  <alias>  (48) 
7gpm-a

$$$$
7gny-a
     RDKit          3D

 15 16  0  0  0  0  0  0  0  0999 V2000
   16.0910    1.4620   17.6320 C   0  0  0  0  0  0  0  0  0  0  0  0
   15.3360   -2.8110   17.1050 O   0  0  0  0  0  0  0  0  0  0  0  0
   14.5800   -1.8440   16.9900 C   0  0  0  0  0  0  0  0  0  0  0  0
   14.8440   -0.6340   17.5090 N   0  0  0  0  0  0  0  0  0  0  0  0
   16.1860   -0.0480   17.5030 C   0  0  2  0  0  0  0  0  0  0  0  0
   17.0480   -0.6300   18.6210 C   0  0  0  0  0  0  0  0  0  0  0  0
   16.6680   -0.1460   20.0230 C   0  0  0  0  0  0  0  0  0  0  0  0
   15.7380    1.0320   20.0470 C   0  0  0  0  0  0  0  0  0  0  0  0
   15.0240    1.2380   21.0250 O   0  0  0  0  0  0  0  0  0  0  0  0
   15.6990    1.8290   18.9910 N   0  0  0  0  0  0  0  0  0  0  0  0
   13.3120   -1.9430   16.2250 C   0  0  0  0  0  0  0  0  0  0  0  0
   12.6860   -3.1140   15.9470 C   0  0  0  0  0  0  0  0  0  0  0  0
   11.3550   -2.8420   14.9220 S   0  0  0  0  0  0  0  0  0  0  0  0
   11.7050   -1.1700   14.9440 C   0  0  0  0  0  0  0  0  0  0  0  0
   12.7380   -0.8170   15.6550 N   0  0  0  0  0  0  0  0  0  0  0  0
 12 13  1  0
 12 11  2  0
 13 14  1  0
  2  3  2  0
 11  3  1  0
 11 15  1  0
  3  4  1  0
 14 15  2  0
  1 10  1  0
  1  5  1  0
 10  8  1  0
  5  4  1  1
  5  6  1  0
  8  9  2  0
  8  7  1  0
  6  7  1  0
M  END
>  <smiles>  (49) 
O=C1CC[C@@H](NC(=O)c2cscn2)CN1

>  <inchikey>  (49) 
MTDCJLXPYPQTPX-ZCFIWIBFSA-N

>  <alias>  (49) 
7gny-a

$$$$
7gqf-a
     RDKit          3D

 10 11  0  0  0  0  0  0  0  0999 V2000
   -1.4190   -8.1260   31.1110 N   0  0  0  0  0  0  0  0  0  0  0  0
   -0.2530   -6.8140   32.4920 N   0  0  0  0  0  0  0  0  0  0  0  0
    0.6230   -5.8280   34.4510 C   0  0  0  0  0  0  0  0  0  0  0  0
    0.6440   -5.9570   33.1050 C   0  0  0  0  0  0  0  0  0  0  0  0
    0.2560   -6.7270   30.1550 N   0  0  0  0  0  0  0  0  0  0  0  0
   -0.4570   -7.2170   31.1740 C   0  0  0  0  0  0  0  0  0  0  0  0
   -1.1810   -7.5560   33.2180 C   0  0  0  0  0  0  0  0  0  0  0  0
   -1.8830   -8.3430   32.4110 N   0  0  0  0  0  0  0  0  0  0  0  0
   -0.3160   -6.5540   35.2160 C   0  0  0  0  0  0  0  0  0  0  0  0
   -1.2030   -7.3980   34.6240 C   0  0  0  0  0  0  0  0  0  0  0  0
 10  9  2  0
 10  7  1  0
  9  3  1  0
  8  7  2  0
  8  1  1  0
  7  2  1  0
  3  4  2  0
  1  6  2  0
  2  4  1  0
  2  6  1  0
  6  5  1  0
M  END
>  <smiles>  (50) 
Nc1nnc2ccccn12

>  <inchikey>  (50) 
NCZQAIFOXJOCFI-UHFFFAOYSA-N

>  <alias>  (50) 
7gqf-a

$$$$
7go1-a
     RDKit          3D

 13 13  0  0  0  0  0  0  0  0999 V2000
   -7.4760   -2.7200    7.0550 C   0  0  0  0  0  0  0  0  0  0  0  0
   -8.8140   -3.3960    6.9290 C   0  0  0  0  0  0  0  0  0  0  0  0
   -7.3030   -1.6700    7.9470 C   0  0  0  0  0  0  0  0  0  0  0  0
   -6.0840   -1.0450    8.0140 C   0  0  0  0  0  0  0  0  0  0  0  0
   -9.1130   -2.3310    4.5490 N   0  0  0  0  0  0  0  0  0  0  0  0
   -3.6530   -0.7270    7.3870 C   0  0  0  0  0  0  0  0  0  0  0  0
   -9.9350   -1.0810    6.4980 O   0  0  0  0  0  0  0  0  0  0  0  0
   -4.9920   -1.4030    7.2520 C   0  0  0  0  0  0  0  0  0  0  0  0
   -5.1860   -2.4570    6.3620 C   0  0  0  0  0  0  0  0  0  0  0  0
   -6.4050   -3.0990    6.2610 C   0  0  0  0  0  0  0  0  0  0  0  0
   -5.9530   -0.0190    8.8760 F   0  0  0  0  0  0  0  0  0  0  0  0
  -11.1230   -3.1200    5.7360 O   0  0  0  0  0  0  0  0  0  0  0  0
   -9.9090   -2.3940    5.9360 S   0  0  0  0  0  0  0  0  0  0  0  0
  6  8  1  0
  8  9  2  0
  9 10  1  0
 10  1  2  0
  2  1  1  0
 13  2  1  0
  7 13  2  0
 12 13  2  0
  5 13  1  0
  1  3  1  0
  3  4  2  0
  8  4  1  0
  4 11  1  0
M  END
>  <smiles>  (51) 
Cc1ccc(CS(N)(=O)=O)cc1F

>  <inchikey>  (51) 
BRGBJOARAPZJCN-UHFFFAOYSA-N

>  <alias>  (51) 
7go1-a

$$$$
7gpc-a
     RDKit          3D

 13 13  0  0  0  0  0  0  0  0999 V2000
   13.9250   -2.0260   15.6220 C   0  0  0  0  0  0  0  0  0  0  0  0
   14.9380   -0.9360   15.4340 C   0  0  0  0  0  0  0  0  0  0  0  0
   14.9670    1.6640   15.1400 C   0  0  0  0  0  0  0  0  0  0  0  0
   13.8920    2.7470   15.1400 C   0  0  0  0  0  0  0  0  0  0  0  0
   15.8240    1.7870   16.4010 C   0  0  0  0  0  0  0  0  0  0  0  0
   14.3050    0.3320   15.0650 N   0  0  0  0  0  0  0  0  0  0  0  0
   12.4300   -1.5160   13.6450 C   0  0  0  0  0  0  0  0  0  0  0  0
   15.0650    2.4700   12.8270 O   0  0  0  0  0  0  0  0  0  0  0  0
   12.7970   -2.2450   14.8990 C   0  0  0  0  0  0  0  0  0  0  0  0
   12.0300   -3.3080   15.4300 C   0  0  0  0  0  0  0  0  0  0  0  0
   12.5910   -3.8870   16.5120 C   0  0  0  0  0  0  0  0  0  0  0  0
   15.8010    1.8720   13.8860 C   0  0  0  0  0  0  0  0  0  0  0  0
   14.0580   -3.1530   16.9280 S   0  0  0  0  0  0  0  0  0  0  0  0
  8 12  1  0
 12  3  1  0
  5  3  1  0
  3  6  1  0
  3  4  1  0
 13 11  1  0
 13  1  1  0
  6  2  1  0
 11 10  2  0
  2  1  1  0
  1  9  2  0
 10  9  1  0
  9  7  1  0
M  END
>  <smiles>  (52) 
Cc1ccsc1CNC(C)(C)CO

>  <inchikey>  (52) 
IFQLAGXBYFTXBB-UHFFFAOYSA-N

>  <alias>  (52) 
7gpc-a

$$$$
7gnw-a
     RDKit          3D

 15 15  0  0  0  0  0  0  0  0999 V2000
  -11.4360  -25.0100   12.7860 C   0  0  0  0  0  0  0  0  0  0  0  0
  -12.8060  -24.9010   12.5540 C   0  0  0  0  0  0  0  0  0  0  0  0
  -13.7060  -25.4180   13.4650 C   0  0  0  0  0  0  0  0  0  0  0  0
  -13.2450  -26.0380   14.6320 C   0  0  0  0  0  0  0  0  0  0  0  0
  -14.7800  -25.4730   16.3540 C   0  0  0  0  0  0  0  0  0  0  0  0
  -10.4720  -24.4430   11.8050 C   0  0  0  0  0  0  0  0  0  0  0  0
  -10.5560  -27.8790   15.8760 C   0  0  0  0  0  0  0  0  0  0  0  0
  -11.4930  -26.8070   15.9970 O   0  0  0  0  0  0  0  0  0  0  0  0
  -11.8650  -26.1610   14.8520 C   0  0  0  0  0  0  0  0  0  0  0  0
  -10.9690  -25.6470   13.9310 C   0  0  0  0  0  0  0  0  0  0  0  0
  -14.1490  -26.4890   15.5760 O   0  0  0  0  0  0  0  0  0  0  0  0
  -15.0630  -25.3940   13.2990 O   0  0  0  0  0  0  0  0  0  0  0  0
  -15.6040  -26.1180   12.1940 C   0  0  0  0  0  0  0  0  0  0  0  0
  -10.9390  -24.3340   10.5900 O   0  0  0  0  0  0  0  0  0  0  0  0
   -9.3340  -24.1230   12.1210 O   0  0  0  0  0  0  0  0  0  0  0  0
  5 11  1  0
 11  4  1  0
  8  7  1  0
  8  9  1  0
 12 13  1  0
 12  3  1  0
  4  9  1  0
  4  3  2  0
  9 10  2  0
  3  2  1  0
  2  1  2  0
 10  1  1  0
  1  6  1  0
  6 14  2  0
  6 15  1  0
M  END
>  <smiles>  (53) 
COc1cc(C(=O)O)cc(OC)c1OC

>  <inchikey>  (53) 
SJSOFNCYXJUNBT-UHFFFAOYSA-N

>  <alias>  (53) 
7gnw-a

$$$$
7gqh-a
     RDKit          3D

 15 16  0  0  0  0  0  0  0  0999 V2000
   -1.3870   -7.6550   33.7650 C   0  0  0  0  0  0  0  0  0  0  0  0
    0.3530   -6.1180   37.8800 C   0  0  0  0  0  0  0  0  0  0  0  0
    0.2870   -5.8410   36.3950 C   0  0  0  0  0  0  0  0  0  0  0  0
   -0.3850   -4.5240   36.0700 C   0  0  0  0  0  0  0  0  0  0  0  0
    1.8450   -5.9550   34.5430 C   0  0  0  0  0  0  0  0  0  0  0  0
    0.7620   -6.5580   33.7710 C   0  0  0  0  0  0  0  0  0  0  0  0
    0.8470   -6.7210   32.3900 C   0  0  0  0  0  0  0  0  0  0  0  0
   -0.1780   -7.3690   31.7200 C   0  0  0  0  0  0  0  0  0  0  0  0
   -1.2950   -7.8480   32.3950 C   0  0  0  0  0  0  0  0  0  0  0  0
   -0.3610   -7.0260   34.4340 C   0  0  0  0  0  0  0  0  0  0  0  0
    1.6430   -5.8520   35.8880 O   0  0  0  0  0  0  0  0  0  0  0  0
    2.9020   -5.5660   34.1060 O   0  0  0  0  0  0  0  0  0  0  0  0
   -2.2570   -8.5200   31.7220 O   0  0  0  0  0  0  0  0  0  0  0  0
   -0.4680   -6.9210   35.8010 O   0  0  0  0  0  0  0  0  0  0  0  0
   -0.0440   -7.6220   29.8460 Br  0  0  0  0  0  0  0  0  0  0  0  0
  3  2  1  0
  4  3  1  0
 11  3  1  0
  5 11  1  0
 12  5  2  0
  6  5  1  0
  7  6  1  0
  8  7  2  0
 15  8  1  0
  9  8  1  0
 13  9  1  0
  1  9  2  0
 10  1  1  0
 14 10  1  0
  3 14  1  0
  6 10  2  0
M  END
>  <smiles>  (54) 
CC1(C)OC(=O)c2cc(Br)c(O)cc2O1

>  <inchikey>  (54) 
FOZVJTHORLMHQD-UHFFFAOYSA-N

>  <alias>  (54) 
7gqh-a

$$$$
7gqq-a
     RDKit          3D

  6  6  0  0  0  0  0  0  0  0999 V2000
   12.9420   -1.2780   16.3340 N   0  0  0  0  0  0  0  0  0  0  0  0
   11.5280   -1.2440   14.6320 N   0  0  0  0  0  0  0  0  0  0  0  0
   12.5370   -2.5520   16.0850 C   0  0  0  0  0  0  0  0  0  0  0  0
   11.6390   -2.5510   15.0140 C   0  0  0  0  0  0  0  0  0  0  0  0
   12.3190   -0.5220   15.4410 C   0  0  0  0  0  0  0  0  0  0  0  0
   13.1140   -3.9090   16.9900 Cl  0  0  0  0  0  0  0  0  0  0  0  0
  5  2  2  0
  5  1  1  0
  2  4  1  0
  1  3  1  0
  4  3  2  0
  3  6  1  0
M  END
>  <smiles>  (55) 
Clc1cnc[nH]1

>  <inchikey>  (55) 
BQRBAXFOPZRMCU-UHFFFAOYSA-N

>  <alias>  (55) 
7gqq-a

$$$$
7gqo-a
     RDKit          3D

  6  6  0  0  0  0  0  0  0  0999 V2000
   12.1750   -1.2220   16.0790 N   0  0  0  0  0  0  0  0  0  0  0  0
   11.5700   -0.4560   15.1340 N   0  0  0  0  0  0  0  0  0  0  0  0
   12.6030   -2.3820   15.5280 C   0  0  0  0  0  0  0  0  0  0  0  0
   12.2690   -2.3720   14.2040 C   0  0  0  0  0  0  0  0  0  0  0  0
   11.6360   -1.1510   14.0060 C   0  0  0  0  0  0  0  0  0  0  0  0
   13.5940   -3.7790   16.6710 I   0  0  0  0  0  0  0  0  0  0  0  0
  5  2  2  0
  5  4  1  0
  2  1  1  0
  4  3  2  0
  1  3  1  0
  3  6  1  0
M  END
>  <smiles>  (56) 
Ic1ccn[nH]1

>  <inchikey>  (56) 
RUKDVLFJSMVBLV-UHFFFAOYSA-N

>  <alias>  (56) 
7gqo-a

$$$$
7gnz-a
     RDKit          3D

 11 11  0  0  0  0  0  0  0  0999 V2000
  -12.1380  -23.7380   31.6870 C   0  0  0  0  0  0  0  0  0  0  0  0
  -10.4530  -25.5570   28.0700 C   0  0  0  0  0  0  0  0  0  0  0  0
  -11.6040  -24.6030   28.1560 C   0  0  0  0  0  0  0  0  0  0  0  0
  -11.6810  -24.6350   30.7000 C   0  0  0  0  0  0  0  0  0  0  0  0
  -10.8570  -25.6870   31.1130 C   0  0  0  0  0  0  0  0  0  0  0  0
  -10.9750  -25.0760   33.3030 C   0  0  0  0  0  0  0  0  0  0  0  0
  -11.7710  -23.9890   33.0070 C   0  0  0  0  0  0  0  0  0  0  0  0
  -13.0040  -22.5500   31.3480 C   0  0  0  0  0  0  0  0  0  0  0  0
  -12.1950  -24.5090   29.3780 N   0  0  0  0  0  0  0  0  0  0  0  0
  -10.5040  -25.9150   32.3820 N   0  0  0  0  0  0  0  0  0  0  0  0
  -12.0140  -23.9930   27.1670 O   0  0  0  0  0  0  0  0  0  0  0  0
  3  2  1  0
 11  3  2  0
  9  3  1  0
  4  9  1  0
  5  4  2  0
 10  5  1  0
  6 10  2  0
  7  6  1  0
  1  7  2  0
  8  1  1  0
  4  1  1  0
M  END
>  <smiles>  (57) 
CC(=O)Nc1cnccc1C

>  <inchikey>  (57) 
WRPYDRDMRXJIJA-UHFFFAOYSA-N

>  <alias>  (57) 
7gnz-a

$$$$
7gpt-a
     RDKit          3D

 13 13  0  0  0  0  0  0  0  0999 V2000
   19.5730   -1.5850   14.5740 C   0  0  0  0  0  0  0  0  0  0  0  0
   16.1290   -0.7690   12.7740 C   0  0  0  0  0  0  0  0  0  0  0  0
   15.9060   -0.6790   11.2750 C   0  0  0  0  0  0  0  0  0  0  0  0
   15.8580   -2.0650   10.6450 C   0  0  0  0  0  0  0  0  0  0  0  0
   17.2640   -1.6890   13.1120 N   0  0  0  0  0  0  0  0  0  0  0  0
   17.0770   -4.2340   10.2550 C   0  0  0  0  0  0  0  0  0  0  0  0
   18.0510   -5.2490   13.0980 O   0  0  0  0  0  0  0  0  0  0  0  0
   17.0880   -2.8990   10.9860 C   0  0  2  0  0  0  0  0  0  0  0  0
   17.2050   -3.0420   12.4970 C   0  0  1  0  0  0  0  0  0  0  0  0
   18.4230   -3.9080   12.7950 C   0  0  0  0  0  0  0  0  0  0  0  0
   17.3440   -2.6430   15.3670 O   0  0  0  0  0  0  0  0  0  0  0  0
   17.4480   -0.2040   15.0600 O   0  0  0  0  0  0  0  0  0  0  0  0
   17.8200   -1.5170   14.6300 S   0  0  0  0  0  0  0  0  0  0  0  0
  7 10  1  0
  8  6  1  6
  9 10  1  6
  9  8  1  0
  9  5  1  0
  8  4  1  0
 11 13  2  0
  4  3  1  0
  5 13  1  0
  5  2  1  0
  1 13  1  0
 13 12  2  0
  2  3  1  0
M  END
>  <smiles>  (58) 
C[C@H]1CCCN(S(C)(=O)=O)[C@@H]1CO

>  <inchikey>  (58) 
JACFLUHHMHHDAJ-JGVFFNPUSA-N

>  <alias>  (58) 
7gpt-a

$$$$
7gpi-a
     RDKit          3D

 15 15  0  0  0  0  0  0  0  0999 V2000
   12.1700   -1.1810   13.7970 N   0  0  0  0  0  0  0  0  0  0  0  0
   13.6750   -3.2560   17.0720 C   0  0  0  0  0  0  0  0  0  0  0  0
   14.3540   -2.1520   16.5860 C   0  0  0  0  0  0  0  0  0  0  0  0
   13.8460   -1.4600   15.5040 C   0  0  0  0  0  0  0  0  0  0  0  0
   12.6550   -1.8510   14.8890 C   0  0  0  0  0  0  0  0  0  0  0  0
   12.0020   -2.9540   15.4180 C   0  0  0  0  0  0  0  0  0  0  0  0
   17.1480   -4.5830   18.8640 N   0  0  0  0  0  0  0  0  0  0  0  0
   16.5370   -4.6610   20.1920 C   0  0  0  0  0  0  0  0  0  0  0  0
   17.0220   -4.6600   16.6230 O   0  0  0  0  0  0  0  0  0  0  0  0
   18.5830   -4.3130   18.8800 C   0  0  0  0  0  0  0  0  0  0  0  0
   16.4740   -4.7480   17.7110 C   0  0  0  0  0  0  0  0  0  0  0  0
   15.0010   -5.0780   17.7660 C   0  0  0  0  0  0  0  0  0  0  0  0
   12.4840   -3.6700   16.4900 C   0  0  0  0  0  0  0  0  0  0  0  0
   10.8310   -3.3170   14.8560 F   0  0  0  0  0  0  0  0  0  0  0  0
   14.2320   -3.9420   18.1150 O   0  0  0  0  0  0  0  0  0  0  0  0
  1  5  1  0
  4  5  2  0
  4  3  1  0
  5  6  1  0
  3  2  2  0
  9 11  2  0
  6 14  1  0
  6 13  2  0
 10  7  1  0
  2 13  1  0
  2 15  1  0
 11  7  1  0
 11 12  1  0
  7  8  1  0
 15 12  1  0
M  END
>  <smiles>  (59) 
CN(C)C(=O)COc1ccc(N)c(F)c1

>  <inchikey>  (59) 
VNDZSXJKUDTTMP-UHFFFAOYSA-N

>  <alias>  (59) 
7gpi-a

$$$$
7gqc-a
     RDKit          3D

 14 15  0  0  0  0  0  0  0  0999 V2000
  -10.3260  -23.2550   31.6030 C   0  0  0  0  0  0  0  0  0  0  0  0
  -10.9520  -22.3780   32.4820 C   0  0  0  0  0  0  0  0  0  0  0  0
  -10.5250  -22.2760   33.7990 C   0  0  0  0  0  0  0  0  0  0  0  0
   -9.4770  -23.0450   34.2510 C   0  0  0  0  0  0  0  0  0  0  0  0
   -8.8430  -23.9170   33.3870 C   0  0  0  0  0  0  0  0  0  0  0  0
  -11.1060  -22.3950   29.4400 N   0  0  0  0  0  0  0  0  0  0  0  0
  -11.7020  -24.9570   26.7630 C   0  0  0  0  0  0  0  0  0  0  0  0
  -11.1370  -26.1680   26.7010 O   0  0  0  0  0  0  0  0  0  0  0  0
  -11.4340  -24.1780   27.9830 C   0  0  0  0  0  0  0  0  0  0  0  0
  -11.4500  -22.8400   28.1840 C   0  0  0  0  0  0  0  0  0  0  0  0
  -10.8120  -23.4020   30.2220 C   0  0  0  0  0  0  0  0  0  0  0  0
   -9.2600  -24.0200   32.0660 C   0  0  0  0  0  0  0  0  0  0  0  0
  -12.4190  -24.4880   25.8710 O   0  0  0  0  0  0  0  0  0  0  0  0
  -10.9730  -24.9580   29.4680 S   0  0  0  0  0  0  0  0  0  0  0  0
 13  7  2  0
 10  9  2  0
 10  6  1  0
  7  8  1  0
  7  9  1  0
  9 14  1  0
  6 11  2  0
 11 14  1  0
 11  1  1  0
  1  2  2  0
  1 12  1  0
  2  3  1  0
 12  5  2  0
  3  4  2  0
  5  4  1  0
M  END
>  <smiles>  (60) 
O=C(O)c1cnc(-c2ccccc2)s1

>  <inchikey>  (60) 
LCALUFNLWHYTKX-UHFFFAOYSA-N

>  <alias>  (60) 
7gqc-a

$$$$
7go5-a
     RDKit          3D

 12 13  0  0  0  0  0  0  0  0999 V2000
   -8.1020    1.3380    8.2080 C   0  0  0  0  0  0  0  0  0  0  0  0
   -8.8380    0.0440    8.2670 C   0  0  0  0  0  0  0  0  0  0  0  0
   -8.2440   -1.1130    7.9960 C   0  0  0  0  0  0  0  0  0  0  0  0
   -6.8490   -1.1540    7.6370 C   0  0  0  0  0  0  0  0  0  0  0  0
   -6.2040   -2.3120    7.1990 C   0  0  0  0  0  0  0  0  0  0  0  0
   -4.8520   -2.2630    6.9660 C   0  0  0  0  0  0  0  0  0  0  0  0
   -6.6700    1.2470    8.0260 O   0  0  0  0  0  0  0  0  0  0  0  0
   -4.0770   -1.1530    7.1910 C   0  0  0  0  0  0  0  0  0  0  0  0
   -4.7280   -0.0250    7.6230 C   0  0  0  0  0  0  0  0  0  0  0  0
   -6.1000    0.0200    7.8060 C   0  0  0  0  0  0  0  0  0  0  0  0
   -4.2600   -3.3500    6.4130 F   0  0  0  0  0  0  0  0  0  0  0  0
   -3.9980    1.0680    7.9610 F   0  0  0  0  0  0  0  0  0  0  0  0
 12  9  1  0
  9  8  2  0
  9 10  1  0
  8  6  1  0
  7 10  1  0
  7  1  1  0
 10  4  2  0
  1  2  1  0
  6 11  1  0
  6  5  2  0
  4  5  1  0
  4  3  1  0
  2  3  2  0
M  END
>  <smiles>  (61) 
Fc1cc(F)c2c(c1)C=CCO2

>  <inchikey>  (61) 
DRQKJKGKLYCHHB-UHFFFAOYSA-N

>  <alias>  (61) 
7go5-a

$$$$
7go0-a
     RDKit          3D

 13 14  0  0  0  0  0  0  0  0999 V2000
   14.3510   -1.9530   16.2190 C   0  0  0  0  0  0  0  0  0  0  0  0
   13.8480    3.2400   16.0770 C   0  0  0  0  0  0  0  0  0  0  0  0
   14.0150    1.7470   16.1100 C   0  0  0  0  0  0  0  0  0  0  0  0
   13.4210    1.1140   14.9220 N   0  0  0  0  0  0  0  0  0  0  0  0
   14.0390   -0.1350   14.4600 C   0  0  0  0  0  0  0  0  0  0  0  0
   13.5630   -1.3520   15.2130 C   0  0  0  0  0  0  0  0  0  0  0  0
   12.3250   -1.9240   14.9130 C   0  0  0  0  0  0  0  0  0  0  0  0
   11.8660   -3.0590   15.5680 C   0  0  0  0  0  0  0  0  0  0  0  0
   12.6280   -3.6660   16.5540 C   0  0  0  0  0  0  0  0  0  0  0  0
   13.8630   -3.1060   16.8690 C   0  0  0  0  0  0  0  0  0  0  0  0
   14.8160   -3.4930   17.7820 N   0  0  0  0  0  0  0  0  0  0  0  0
   15.8740   -2.6220   17.7230 C   0  0  0  0  0  0  0  0  0  0  0  0
   15.6400   -1.6680   16.7890 C   0  0  0  0  0  0  0  0  0  0  0  0
  2  3  1  0
  3  4  1  0
  4  5  1  0
  5  6  1  0
  7  6  2  0
  7  8  1  0
  6  1  1  0
  8  9  2  0
  1 10  2  0
  1 13  1  0
  9 10  1  0
 10 11  1  0
 13 12  2  0
 11 12  1  0
M  END
>  <smiles>  (62) 
CCNCc1cccc2[nH]ccc12

>  <inchikey>  (62) 
HIBJZFFYONQAOO-UHFFFAOYSA-N

>  <alias>  (62) 
7go0-a

$$$$
7gpq-a
     RDKit          3D

 14 14  0  0  0  0  0  0  0  0999 V2000
   -4.5070   -2.2750    6.1610 C   0  0  0  0  0  0  0  0  0  0  0  0
   -7.3330   -3.4550    6.4660 C   0  0  0  0  0  0  0  0  0  0  0  0
   -8.7680   -3.6260    6.8910 C   0  0  0  0  0  0  0  0  0  0  0  0
   -9.5140   -2.5600    6.0900 C   0  0  0  0  0  0  0  0  0  0  0  0
   -7.2130   -1.9830    6.3820 N   0  0  0  0  0  0  0  0  0  0  0  0
   -8.9020   -0.2870    7.0610 C   0  0  0  0  0  0  0  0  0  0  0  0
   -9.7120   -0.4740    4.1540 O   0  0  0  0  0  0  0  0  0  0  0  0
   -8.5390   -1.3590    6.0310 C   0  0  2  0  0  0  0  0  0  0  0  0
   -8.5000   -0.7840    4.6100 C   0  0  0  0  0  0  0  0  0  0  0  0
   -9.9360   -0.6920    2.7400 C   0  0  0  0  0  0  0  0  0  0  0  0
   -7.4930   -0.6400    3.9770 O   0  0  0  0  0  0  0  0  0  0  0  0
   -5.7670   -0.0230    6.0080 O   0  0  0  0  0  0  0  0  0  0  0  0
   -5.7170   -1.1870    8.1710 O   0  0  0  0  0  0  0  0  0  0  0  0
   -5.8000   -1.2450    6.7470 S   0  0  0  0  0  0  0  0  0  0  0  0
  8  6  1  1
  9  8  1  0
  7  9  1  0
 10  7  1  0
 11  9  2  0
  8  5  1  0
  5 14  1  0
 12 14  2  0
  1 14  1  0
 14 13  2  0
  2  5  1  0
  3  2  1  0
  4  3  1  0
  8  4  1  0
M  END
>  <smiles>  (63) 
COC(=O)[C@@]1(C)CCCN1S(C)(=O)=O

>  <inchikey>  (63) 
APDJGJFQSBOQHM-MRVPVSSYSA-N

>  <alias>  (63) 
7gpq-a

$$$$
7go7-a
     RDKit          3D

 16 17  0  0  0  0  0  0  0  0999 V2000
   16.5220   -0.8720   13.3170 N   0  0  0  0  0  0  0  0  0  0  0  0
   15.2670    0.4140   15.0260 C   0  0  0  0  0  0  0  0  0  0  0  0
   14.0140   -0.3670   14.7460 C   0  0  0  0  0  0  0  0  0  0  0  0
   13.0830   -0.1130   13.7830 C   0  0  0  0  0  0  0  0  0  0  0  0
   12.3420   -1.9270   14.8500 C   0  0  0  0  0  0  0  0  0  0  0  0
   13.5540   -1.5350   15.4510 C   0  0  0  0  0  0  0  0  0  0  0  0
   13.3530   -3.4120   16.8840 C   0  0  0  0  0  0  0  0  0  0  0  0
   16.8940   -3.1150   14.1210 C   0  0  0  0  0  0  0  0  0  0  0  0
   12.1660   -3.8100   16.3060 C   0  0  0  0  0  0  0  0  0  0  0  0
   11.6440   -3.0520   15.2710 C   0  0  0  0  0  0  0  0  0  0  0  0
   16.4380   -2.1770   13.0400 C   0  0  0  0  0  0  0  0  0  0  0  0
   16.5400   -0.3440   14.6800 C   0  0  0  0  0  0  0  0  0  0  0  0
   14.0650   -2.2940   16.5000 C   0  0  0  0  0  0  0  0  0  0  0  0
   13.8600   -4.1740   17.8870 F   0  0  0  0  0  0  0  0  0  0  0  0
   12.0750   -1.0390   13.8400 N   0  0  0  0  0  0  0  0  0  0  0  0
   16.0220   -2.5850   11.9540 O   0  0  0  0  0  0  0  0  0  0  0  0
 14  7  1  0
 13  7  1  0
 13  6  2  0
  7  9  2  0
  2 12  1  0
  2  3  1  0
 12  1  1  0
  6  3  1  0
  6  5  1  0
  9 10  1  0
  3  4  2  0
  1 11  1  0
  5 10  2  0
  5 15  1  0
 11  8  1  0
 11 16  2  0
  4 15  1  0
M  END
>  <smiles>  (64) 
CC(=O)NCCc1c[nH]c2ccc(F)cc12

>  <inchikey>  (64) 
UDLASALUJLTGJV-UHFFFAOYSA-N

>  <alias>  (64) 
7go7-a

$$$$
7gpg-a
     RDKit          3D

 12 12  0  0  0  0  0  0  0  0999 V2000
   14.2050   -2.5760   15.8260 N   0  0  0  0  0  0  0  0  0  0  0  0
   13.9730   -4.3710   17.2190 C   0  0  0  0  0  0  0  0  0  0  0  0
   11.9080   -2.2940   14.9250 C   0  0  0  0  0  0  0  0  0  0  0  0
   14.8220   -3.4230   16.7040 N   0  0  0  0  0  0  0  0  0  0  0  0
   17.0280   -4.5560   16.6070 C   0  0  0  0  0  0  0  0  0  0  0  0
   14.3010   -5.3080   17.9260 O   0  0  0  0  0  0  0  0  0  0  0  0
   16.2580   -3.2930   16.9670 C   0  0  0  0  0  0  0  0  0  0  0  0
   12.9690   -2.9110   15.7890 C   0  0  0  0  0  0  0  0  0  0  0  0
   12.5970   -4.0110   16.7280 C   0  0  0  0  0  0  0  0  0  0  0  0
   11.7360   -2.9830   13.8140 F   0  0  0  0  0  0  0  0  0  0  0  0
   10.7470   -2.2380   15.5160 F   0  0  0  0  0  0  0  0  0  0  0  0
   12.1920   -1.0710   14.5990 F   0  0  0  0  0  0  0  0  0  0  0  0
 12  3  1  0
 10  3  1  0
  1  8  2  0
  1  4  1  0
  3  8  1  0
  3 11  1  0
  7  5  1  0
  7  4  1  0
  8  9  1  0
  4  2  1  0
  2  9  1  0
  2  6  2  0
M  END
>  <smiles>  (65) 
CCN1N=C(C(F)(F)F)CC1=O

>  <inchikey>  (65) 
NESMTDYSHSBSJX-UHFFFAOYSA-N

>  <alias>  (65) 
7gpg-a

$$$$
7go9-a
     RDKit          3D

 12 13  0  0  0  0  0  0  0  0999 V2000
   -8.7920   -4.7550    7.1160 N   0  0  0  0  0  0  0  0  0  0  0  0
   -5.2140    0.0000    7.7990 C   0  0  0  0  0  0  0  0  0  0  0  0
   -7.6850   -2.7920    7.1800 C   0  0  0  0  0  0  0  0  0  0  0  0
   -8.4590   -3.7290    7.8870 C   0  0  0  0  0  0  0  0  0  0  0  0
   -7.5740   -3.3330    5.9090 C   0  0  0  0  0  0  0  0  0  0  0  0
   -5.8190   -1.2620    7.3660 N   0  0  0  0  0  0  0  0  0  0  0  0
   -7.1130   -1.5190    7.6180 C   0  0  0  0  0  0  0  0  0  0  0  0
   -7.8390   -0.7310    8.2150 O   0  0  0  0  0  0  0  0  0  0  0  0
   -4.8280   -2.1180    6.6890 C   0  0  0  0  0  0  0  0  0  0  0  0
   -3.5560   -1.2870    6.7220 C   0  0  0  0  0  0  0  0  0  0  0  0
   -3.7440   -0.3340    7.8620 C   0  0  0  0  0  0  0  0  0  0  0  0
   -8.2430   -4.4870    5.9160 N   0  0  0  0  0  0  0  0  0  0  0  0
  8  7  2  0
  9 10  1  0
  9  6  1  0
  7  6  1  0
  7  3  1  0
  5  3  1  0
  5 12  2  0
 10 11  1  0
  6  2  1  0
  3  4  2  0
 12  1  1  0
 11  2  1  0
  4  1  1  0
M  END
>  <smiles>  (66) 
O=C(c1cn[nH]c1)N1CCCC1

>  <inchikey>  (66) 
ZCTYYKNBCKBIMR-UHFFFAOYSA-N

>  <alias>  (66) 
7go9-a

$$$$
7gqg-a
     RDKit          3D

 16 17  0  0  0  0  0  0  0  0999 V2000
  -10.9020    3.2490   10.8700 N   0  0  0  0  0  0  0  0  0  0  0  0
  -12.8580    1.0680   11.1060 C   0  0  0  0  0  0  0  0  0  0  0  0
  -13.0030    1.6810   12.3470 C   0  0  0  0  0  0  0  0  0  0  0  0
  -11.0070    3.2690   12.2170 C   0  0  0  0  0  0  0  0  0  0  0  0
   -9.9510    4.0410   10.3610 C   0  0  0  0  0  0  0  0  0  0  0  0
   -9.1120    4.8180   11.1370 C   0  0  0  0  0  0  0  0  0  0  0  0
  -14.0840    1.3630   13.1580 C   0  0  0  0  0  0  0  0  0  0  0  0
  -16.3920    0.7000   14.6390 O   0  0  0  0  0  0  0  0  0  0  0  0
  -16.2530    0.1950   13.5320 C   0  0  0  0  0  0  0  0  0  0  0  0
  -17.1030   -0.6710   12.9980 O   0  0  0  0  0  0  0  0  0  0  0  0
  -15.0700    0.4950   12.6910 C   0  0  0  0  0  0  0  0  0  0  0  0
  -13.8270    0.1870   10.6510 C   0  0  0  0  0  0  0  0  0  0  0  0
  -14.9330   -0.0890   11.4300 C   0  0  0  0  0  0  0  0  0  0  0  0
  -12.0570    2.6180   12.7930 N   0  0  0  0  0  0  0  0  0  0  0  0
  -10.2590    3.9900   13.0660 N   0  0  0  0  0  0  0  0  0  0  0  0
   -9.3050    4.7440   12.5020 C   0  0  0  0  0  0  0  0  0  0  0  0
 10  9  1  0
  9  8  2  0
 11  9  1  0
 11 13  2  0
 13 12  1  0
 12  2  2  0
  2  3  1  0
 14  3  1  0
  4 14  1  0
  4  1  2  0
  1  5  1  0
  5  6  2  0
  6 16  1  0
 16 15  2  0
 15  4  1  0
  3  7  2  0
  7 11  1  0
M  END
>  <smiles>  (67) 
O=C(O)c1cccc(Nc2ncccn2)c1

>  <inchikey>  (67) 
JCCQTGJTDPBYJP-UHFFFAOYSA-N

>  <alias>  (67) 
7gqg-a

$$$$
7gqp-a
     RDKit          3D

  7  7  0  0  0  0  0  0  0  0999 V2000
  -11.0940  -26.4990   27.8420 N   0  0  0  0  0  0  0  0  0  0  0  0
   -9.7360  -25.4980   30.9480 N   0  0  0  0  0  0  0  0  0  0  0  0
  -10.2480  -25.4860   29.9280 C   0  0  0  0  0  0  0  0  0  0  0  0
  -10.8880  -25.3990   28.6440 C   0  0  0  0  0  0  0  0  0  0  0  0
  -11.3800  -24.2890   28.0250 C   0  0  0  0  0  0  0  0  0  0  0  0
  -11.8980  -24.7070   26.8330 N   0  0  0  0  0  0  0  0  0  0  0  0
  -11.7060  -26.0280   26.7620 C   0  0  0  0  0  0  0  0  0  0  0  0
  2  3  3  0
  3  4  1  0
  5  4  2  0
  5  6  1  0
  4  1  1  0
  6  7  2  0
  1  7  1  0
M  END
>  <smiles>  (68) 
N#Cc1cnc[nH]1

>  <inchikey>  (68) 
NWVGXXPWOYZODV-UHFFFAOYSA-N

>  <alias>  (68) 
7gqp-a

$$$$
7gqa-a
     RDKit          3D

 12 13  0  0  0  0  0  0  0  0999 V2000
   12.3700    0.8510   15.7620 N   0  0  0  0  0  0  0  0  0  0  0  0
   11.5150   -1.4380   15.1050 C   0  0  0  0  0  0  0  0  0  0  0  0
   11.7110   -2.7980   15.2870 C   0  0  0  0  0  0  0  0  0  0  0  0
   12.7140   -3.2690   16.1380 C   0  0  0  0  0  0  0  0  0  0  0  0
   13.5450   -2.3870   16.8210 C   0  0  0  0  0  0  0  0  0  0  0  0
   13.3360   -1.0310   16.6280 C   0  0  0  0  0  0  0  0  0  0  0  0
   13.9910    0.0970   17.1180 N   0  0  0  0  0  0  0  0  0  0  0  0
   15.1280    0.0820   18.0330 C   0  0  0  0  0  0  0  0  0  0  0  0
   13.2160    3.2940   17.7860 O   0  0  0  0  0  0  0  0  0  0  0  0
   13.3690    1.1830   16.5480 C   0  0  0  0  0  0  0  0  0  0  0  0
   13.8590    2.6260   16.7250 C   0  0  0  0  0  0  0  0  0  0  0  0
   12.3390   -0.5440   15.7870 C   0  0  0  0  0  0  0  0  0  0  0  0
 11  9  1  0
 11 10  1  0
 10  1  2  0
 10  7  1  0
  1 12  1  0
  7  8  1  0
  7  6  1  0
 12  2  2  0
 12  6  1  0
  2  3  1  0
  6  5  2  0
  3  4  2  0
  5  4  1  0
M  END
>  <smiles>  (69) 
Cn1c(CO)nc2ccccc21

>  <inchikey>  (69) 
SQRSIOZFPSFABI-UHFFFAOYSA-N

>  <alias>  (69) 
7gqa-a

$$$$
7gob-a
     RDKit          3D

 12 12  0  0  0  0  0  0  0  0999 V2000
  -12.2290  -25.5900   25.6160 C   0  0  0  0  0  0  0  0  0  0  0  0
  -12.0650  -24.3870   26.2810 C   0  0  0  0  0  0  0  0  0  0  0  0
  -11.3090  -24.2990   27.4430 C   0  0  0  0  0  0  0  0  0  0  0  0
  -14.4850  -23.2610   25.7420 N   0  0  0  0  0  0  0  0  0  0  0  0
   -9.9140  -25.3590   29.2540 C   0  0  0  0  0  0  0  0  0  0  0  0
  -12.5640  -22.8160   24.2790 O   0  0  0  0  0  0  0  0  0  0  0  0
  -10.7060  -25.4340   27.9730 C   0  0  0  0  0  0  0  0  0  0  0  0
  -10.8720  -26.6420   27.3130 C   0  0  0  0  0  0  0  0  0  0  0  0
  -11.6250  -26.6870   26.1670 C   0  0  0  0  0  0  0  0  0  0  0  0
  -11.7960  -27.8890   25.5500 F   0  0  0  0  0  0  0  0  0  0  0  0
  -12.6290  -21.8680   26.5520 O   0  0  0  0  0  0  0  0  0  0  0  0
  -12.9070  -22.9620   25.6640 S   0  0  0  0  0  0  0  0  0  0  0  0
  5  7  1  0
  7  8  2  0
  8  9  1  0
 10  9  1  0
  9  1  2  0
  1  2  1  0
  3  2  2  0
  7  3  1  0
  2 12  1  0
  6 12  2  0
 12 11  2  0
  4 12  1  0
M  END
>  <smiles>  (70) 
Cc1cc(F)cc(S(N)(=O)=O)c1

>  <inchikey>  (70) 
RMTMZIARFLDIKQ-UHFFFAOYSA-N

>  <alias>  (70) 
7gob-a

$$$$
7go2-a
     RDKit          3D

  9 10  0  0  0  0  0  0  0  0999 V2000
   -1.8520   -8.3030   32.2300 N   0  0  0  0  0  0  0  0  0  0  0  0
   -0.1540   -6.8920   32.3300 N   0  0  0  0  0  0  0  0  0  0  0  0
    0.7610   -6.0670   32.9740 C   0  0  0  0  0  0  0  0  0  0  0  0
   -1.3510   -8.0960   30.9450 N   0  0  0  0  0  0  0  0  0  0  0  0
   -0.3540   -7.2590   31.0340 C   0  0  0  0  0  0  0  0  0  0  0  0
   -1.1250   -7.5670   33.0620 C   0  0  0  0  0  0  0  0  0  0  0  0
   -1.1310   -7.3510   34.4660 C   0  0  0  0  0  0  0  0  0  0  0  0
    0.6690   -5.9420   34.3130 C   0  0  0  0  0  0  0  0  0  0  0  0
   -0.2780   -6.5710   35.0830 N   0  0  0  0  0  0  0  0  0  0  0  0
  1  4  1  0
  1  6  2  0
  4  5  2  0
  6  7  1  0
  6  2  1  0
  5  2  1  0
  7  9  2  0
  2  3  1  0
  9  8  1  0
  3  8  2  0
M  END
>  <smiles>  (71) 
c1cn2cnnc2cn1

>  <inchikey>  (71) 
NVSPJDGXKBDYIZ-UHFFFAOYSA-N

>  <alias>  (71) 
7go2-a

$$$$
7go4-a
     RDKit          3D

 11 12  0  0  0  0  0  0  0  0999 V2000
   13.0940   -1.5790   16.6320 N   0  0  0  0  0  0  0  0  0  0  0  0
   12.6660    0.7090   16.1120 N   0  0  0  0  0  0  0  0  0  0  0  0
   12.5420   -2.8010   16.2890 C   0  0  0  0  0  0  0  0  0  0  0  0
   11.5270   -2.5130   15.4290 C   0  0  0  0  0  0  0  0  0  0  0  0
   12.3670   -0.6040   15.9570 C   0  0  0  0  0  0  0  0  0  0  0  0
   13.6400    1.0170   16.9270 C   0  0  0  0  0  0  0  0  0  0  0  0
   14.4220    0.0870   17.6340 C   0  0  0  0  0  0  0  0  0  0  0  0
   14.1420   -1.2270   17.4570 C   0  0  0  0  0  0  0  0  0  0  0  0
   11.4070   -1.1490   15.2120 N   0  0  0  0  0  0  0  0  0  0  0  0
   13.9400    2.3070   17.1150 O   0  0  0  0  0  0  0  0  0  0  0  0
   14.8140   -2.2170   17.9680 O   0  0  0  0  0  0  0  0  0  0  0  0
 10  6  1  0
  6  7  1  0
  7  8  2  0
  8 11  1  0
  8  1  1  0
  1  3  1  0
  3  4  2  0
  4  9  1  0
  9  5  2  0
  5  2  1  0
  6  2  2  0
  1  5  1  0
M  END
>  <smiles>  (72) 
Oc1cc(O)n2ccnc2n1

>  <inchikey>  (72) 
BELWUABPSOOYPK-UHFFFAOYSA-N

>  <alias>  (72) 
7go4-a

$$$$
7go4-b
     RDKit          3D

 11 12  0  0  0  0  0  0  0  0999 V2000
  -11.5280  -23.8510   31.2700 N   0  0  0  0  0  0  0  0  0  0  0  0
  -11.9470  -22.5100   29.3350 N   0  0  0  0  0  0  0  0  0  0  0  0
  -11.6740  -23.6830   32.6370 C   0  0  0  0  0  0  0  0  0  0  0  0
  -12.1080  -22.4110   32.8060 C   0  0  0  0  0  0  0  0  0  0  0  0
  -11.9080  -22.6470   30.6840 C   0  0  0  0  0  0  0  0  0  0  0  0
  -11.6330  -23.5450   28.6260 C   0  0  0  0  0  0  0  0  0  0  0  0
  -11.2060  -24.7840   29.1370 C   0  0  0  0  0  0  0  0  0  0  0  0
  -11.1590  -24.9230   30.5030 C   0  0  0  0  0  0  0  0  0  0  0  0
  -12.2540  -21.7510   31.6030 N   0  0  0  0  0  0  0  0  0  0  0  0
  -11.7930  -23.4770   27.3070 O   0  0  0  0  0  0  0  0  0  0  0  0
  -10.8180  -26.0080   31.1500 O   0  0  0  0  0  0  0  0  0  0  0  0
 10  6  1  0
  6  7  1  0
  7  8  2  0
  8 11  1  0
  8  1  1  0
  1  3  1  0
  3  4  2  0
  4  9  1  0
  9  5  2  0
  5  2  1  0
  6  2  2  0
  1  5  1  0
M  END
>  <smiles>  (73) 
Oc1cc(O)n2ccnc2n1

>  <inchikey>  (73) 
BELWUABPSOOYPK-UHFFFAOYSA-N

>  <alias>  (73) 
7go4-b

$$$$
7gph-a
     RDKit          3D

 13 13  0  0  0  0  0  0  0  0999 V2000
   13.3420   -1.1540   15.1390 C   0  0  0  0  0  0  0  0  0  0  0  0
   12.2170   -1.8700   14.7590 C   0  0  0  0  0  0  0  0  0  0  0  0
   11.9150   -3.0830   15.3540 C   0  0  0  0  0  0  0  0  0  0  0  0
   12.7400   -3.5980   16.3310 C   0  0  0  0  0  0  0  0  0  0  0  0
   13.8700   -2.9060   16.7070 C   0  0  0  0  0  0  0  0  0  0  0  0
   13.8180    1.6200   11.6100 C   0  0  0  0  0  0  0  0  0  0  0  0
   15.0600    1.6910   12.8450 S   0  0  0  0  0  0  0  0  0  0  0  0
   14.7720    2.7820   13.7390 O   0  0  0  0  0  0  0  0  0  0  0  0
   16.3520    1.6690   12.2130 O   0  0  0  0  0  0  0  0  0  0  0  0
   14.8620    0.2350   13.7010 C   0  0  0  0  0  0  0  0  0  0  0  0
   13.6160    0.2200   14.5650 C   0  0  2  0  0  0  0  0  0  0  0  0
   13.7440    1.1790   15.6090 O   0  0  0  0  0  0  0  0  0  0  0  0
   14.1710   -1.6920   16.1130 C   0  0  0  0  0  0  0  0  0  0  0  0
  5 13  1  0
  5  4  2  0
 13  1  2  0
  9  7  2  0
  4  3  1  0
  1 11  1  0
  1  2  1  0
 11 12  1  1
 11 10  1  0
  7  8  2  0
  7 10  1  0
  7  6  1  0
  3  2  2  0
M  END
>  <smiles>  (74) 
CS(=O)(=O)C[C@H](O)c1ccccc1

>  <inchikey>  (74) 
FVZQEVNJWREWHU-VIFPVBQESA-N

>  <alias>  (74) 
7gph-a

$$$$
7go8-a
     RDKit          3D

 14 15  0  0  0  0  0  0  0  0999 V2000
  -12.2770  -25.0550   13.4260 N   0  0  0  0  0  0  0  0  0  0  0  0
  -13.4590  -24.4070   12.8250 C   0  0  0  0  0  0  0  0  0  0  0  0
  -14.3550  -25.4480   12.1620 C   0  0  0  0  0  0  0  0  0  0  0  0
  -15.6250  -24.7950   11.6740 C   0  0  0  0  0  0  0  0  0  0  0  0
  -15.5020  -23.0840   13.2730 C   0  0  0  0  0  0  0  0  0  0  0  0
  -14.2380  -23.6320   13.8840 C   0  0  0  0  0  0  0  0  0  0  0  0
  -12.4900  -25.7790   14.5720 N   0  0  0  0  0  0  0  0  0  0  0  0
  -10.3590  -24.3900   11.9050 C   0  0  0  0  0  0  0  0  0  0  0  0
  -11.1870  -24.2910   10.8980 O   0  0  0  0  0  0  0  0  0  0  0  0
  -10.9570  -25.0930   13.0340 C   0  0  0  0  0  0  0  0  0  0  0  0
  -10.3070  -25.8900   13.9580 C   0  0  0  0  0  0  0  0  0  0  0  0
  -11.2900  -26.2690   14.8670 C   0  0  0  0  0  0  0  0  0  0  0  0
   -9.1970  -23.9710   11.9000 O   0  0  0  0  0  0  0  0  0  0  0  0
  -16.3100  -24.1240   12.7330 O   0  0  0  0  0  0  0  0  0  0  0  0
 12 11  1  0
 12  7  2  0
 11 10  2  0
  7  1  1  0
  3  4  1  0
  3  2  1  0
 10  1  1  0
 10  8  1  0
  1  2  1  0
  4 14  1  0
  8  9  2  0
  8 13  1  0
  2  6  1  0
 14  5  1  0
  6  5  1  0
M  END
>  <smiles>  (75) 
O=C(O)c1ccnn1C1CCOCC1

>  <inchikey>  (75) 
CXJSIUBTTAXWQT-UHFFFAOYSA-N

>  <alias>  (75) 
7go8-a

$$$$
7gqk-a
     RDKit          3D

 16 17  0  0  0  0  0  0  0  0999 V2000
   13.0050    3.2100   15.8760 C   0  0  0  0  0  0  0  0  0  0  0  0
   13.9030    3.7920   16.9560 C   0  0  0  0  0  0  0  0  0  0  0  0
   11.9520    0.9770   15.9750 C   0  0  0  0  0  0  0  0  0  0  0  0
   12.1020   -0.5130   16.0000 C   0  0  0  0  0  0  0  0  0  0  0  0
   11.4310   -1.3000   15.0640 C   0  0  0  0  0  0  0  0  0  0  0  0
   12.2810   -3.2910   16.0890 C   0  0  0  0  0  0  0  0  0  0  0  0
   13.0610    1.7430   15.8710 N   0  0  0  0  0  0  0  0  0  0  0  0
   16.2910    3.8670   17.8320 C   0  0  0  0  0  0  0  0  0  0  0  0
   15.5900    4.3610   18.9640 O   0  0  0  0  0  0  0  0  0  0  0  0
   15.3400    3.3100   16.7840 C   0  0  0  0  0  0  0  0  0  0  0  0
   12.9610   -2.5250   17.0090 C   0  0  0  0  0  0  0  0  0  0  0  0
   12.8750   -1.1420   16.9710 C   0  0  0  0  0  0  0  0  0  0  0  0
   15.3540    1.7860   16.7910 C   0  0  0  0  0  0  0  0  0  0  0  0
   14.4330    1.2380   15.7080 C   0  0  0  0  0  0  0  0  0  0  0  0
   11.5230   -2.6810   15.1130 C   0  0  0  0  0  0  0  0  0  0  0  0
   10.8330    1.4640   15.9980 O   0  0  0  0  0  0  0  0  0  0  0  0
  8 10  1  0
  8  9  1  0
 10  2  1  0
 10 13  1  0
  2  1  1  0
  1  7  1  0
 14 13  1  0
 14  7  1  0
  7  3  1  0
  3 16  2  0
  3  4  1  0
  4  5  2  0
  4 12  1  0
  5 15  1  0
 12 11  2  0
 15  6  2  0
 11  6  1  0
M  END
>  <smiles>  (76) 
O=C(c1ccccc1)N1CCC(CO)CC1

>  <inchikey>  (76) 
RLTIVBMLQJFUOB-UHFFFAOYSA-N

>  <alias>  (76) 
7gqk-a

$$$$
7gqn-a
     RDKit          3D

  6  6  0  0  0  0  0  0  0  0999 V2000
   11.7930   -0.8170   15.8800 N   0  0  0  0  0  0  0  0  0  0  0  0
   11.7020   -2.5440   14.5060 N   0  0  0  0  0  0  0  0  0  0  0  0
   12.9110   -1.5850   16.0290 C   0  0  0  0  0  0  0  0  0  0  0  0
   12.8760   -2.6590   15.1980 C   0  0  0  0  0  0  0  0  0  0  0  0
   11.0920   -1.4360   14.9450 C   0  0  0  0  0  0  0  0  0  0  0  0
   14.4280   -1.0690   17.3400 I   0  0  0  0  0  0  0  0  0  0  0  0
  1  5  1  0
  1  3  1  0
  5  2  2  0
  6  3  1  0
  3  4  2  0
  2  4  1  0
M  END
>  <smiles>  (77) 
Ic1cnc[nH]1

>  <inchikey>  (77) 
BHCMXJKPZOPRNN-UHFFFAOYSA-N

>  <alias>  (77) 
7gqn-a

$$$$
7gqn-b
     RDKit          3D

  6  6  0  0  0  0  0  0  0  0999 V2000
   -9.4180  -26.4540   30.8500 N   0  0  0  0  0  0  0  0  0  0  0  0
  -10.4200  -25.1710   32.3350 N   0  0  0  0  0  0  0  0  0  0  0  0
  -10.3650  -25.6970   30.2290 C   0  0  0  0  0  0  0  0  0  0  0  0
  -11.0020  -24.9070   31.1290 C   0  0  0  0  0  0  0  0  0  0  0  0
   -9.4810  -26.0950   32.1250 C   0  0  0  0  0  0  0  0  0  0  0  0
  -10.6650  -25.7430   28.1820 I   0  0  0  0  0  0  0  0  0  0  0  0
  1  5  1  0
  1  3  1  0
  5  2  2  0
  6  3  1  0
  3  4  2  0
  2  4  1  0
M  END
>  <smiles>  (78) 
Ic1cnc[nH]1

>  <inchikey>  (78) 
BHCMXJKPZOPRNN-UHFFFAOYSA-N

>  <alias>  (78) 
7gqn-b

$$$$
7gqn-c
     RDKit          3D

  6  6  0  0  0  0  0  0  0  0999 V2000
   -1.5680  -13.8920   28.4200 N   0  0  0  0  0  0  0  0  0  0  0  0
   -1.4380  -12.1510   27.0620 N   0  0  0  0  0  0  0  0  0  0  0  0
   -0.7920  -12.9130   28.9710 C   0  0  0  0  0  0  0  0  0  0  0  0
   -0.7000  -11.8310   28.1620 C   0  0  0  0  0  0  0  0  0  0  0  0
   -1.9240  -13.3830   27.2520 C   0  0  0  0  0  0  0  0  0  0  0  0
    0.1500  -13.1760   30.7910 I   0  0  0  0  0  0  0  0  0  0  0  0
  1  5  1  0
  1  3  1  0
  5  2  2  0
  6  3  1  0
  3  4  2  0
  2  4  1  0
M  END
>  <smiles>  (79) 
Ic1cnc[nH]1

>  <inchikey>  (79) 
BHCMXJKPZOPRNN-UHFFFAOYSA-N

>  <alias>  (79) 
7gqn-c

$$$$
7gpd-a
     RDKit          3D

 16 16  0  0  0  0  0  0  0  0999 V2000
   15.7180   -0.4660   18.7200 N   0  0  0  0  0  0  0  0  0  0  0  0
   15.1640    0.1780   20.9760 C   0  0  0  0  0  0  0  0  0  0  0  0
   14.5900   -0.5350   17.9750 C   0  0  0  0  0  0  0  0  0  0  0  0
   13.5120   -1.9470   16.2520 C   0  0  0  0  0  0  0  0  0  0  0  0
   13.0000   -1.0830   15.2950 C   0  0  0  0  0  0  0  0  0  0  0  0
   11.9280   -1.4800   14.5140 C   0  0  0  0  0  0  0  0  0  0  0  0
   11.8730   -3.5830   15.6320 C   0  0  0  0  0  0  0  0  0  0  0  0
   17.4950    0.4630   20.1030 C   0  0  0  0  0  0  0  0  0  0  0  0
   16.0100    0.5400   19.7580 C   0  0  0  0  0  0  0  0  0  0  0  0
   15.6510    1.9340   19.2510 C   0  0  0  0  0  0  0  0  0  0  0  0
   16.3720    2.9920   19.8650 O   0  0  0  0  0  0  0  0  0  0  0  0
   14.9670   -1.2240   21.1230 O   0  0  0  0  0  0  0  0  0  0  0  0
   13.6850    0.2960   18.0340 O   0  0  0  0  0  0  0  0  0  0  0  0
   14.5690   -1.5940   17.1120 N   0  0  0  0  0  0  0  0  0  0  0  0
   11.3670   -2.7270   14.6830 C   0  0  0  0  0  0  0  0  0  0  0  0
   12.9460   -3.2040   16.4160 C   0  0  0  0  0  0  0  0  0  0  0  0
  6 15  2  0
  6  5  1  0
 15  7  1  0
  5  4  2  0
  7 16  2  0
  4 16  1  0
  4 14  1  0
 14  3  1  0
 12  2  1  0
  1  3  1  0
  1  9  1  0
  3 13  2  0
 11 10  1  0
  2  9  1  0
  9 10  1  0
  9  8  1  0
M  END
>  <smiles>  (80) 
CC(CO)(CO)NC(=O)Nc1ccccc1

>  <inchikey>  (80) 
NLGYHTMGWVQQIL-UHFFFAOYSA-N

>  <alias>  (80) 
7gpd-a

$$$$
7gpk-b
     RDKit          3D

 13 14  0  0  0  0  0  0  0  0999 V2000
   15.2030    1.7170   13.1750 C   0  0  0  0  0  0  0  0  0  0  0  0
   14.1140    2.7470   12.9700 C   0  0  0  0  0  0  0  0  0  0  0  0
   13.6310    3.2750   14.3020 C   0  0  0  0  0  0  0  0  0  0  0  0
   13.9670    2.3030   15.4150 C   0  0  0  0  0  0  0  0  0  0  0  0
   13.7310    0.0090   16.1270 C   0  0  0  0  0  0  0  0  0  0  0  0
   13.0090   -1.2780   15.8360 C   0  0  0  0  0  0  0  0  0  0  0  0
   13.3380   -2.5580   16.3590 C   0  0  0  0  0  0  0  0  0  0  0  0
   12.4950   -3.5220   15.9730 C   0  0  0  0  0  0  0  0  0  0  0  0
   11.9080   -1.3250   15.0380 C   0  0  0  0  0  0  0  0  0  0  0  0
   14.6720    0.5140   13.9550 C   0  0  0  0  0  0  0  0  0  0  0  0
   13.7030    0.9240   14.9910 N   0  0  0  0  0  0  0  0  0  0  0  0
   14.5750    3.8200   12.1510 O   0  0  0  0  0  0  0  0  0  0  0  0
   11.2880   -2.8900   14.9380 S   0  0  0  0  0  0  0  0  0  0  0  0
  2 12  1  0
  3  2  1  0
  4  3  1  0
 11  4  1  0
  6  5  1  0
  7  6  1  0
  8  7  2  0
 13  8  1  0
  9 13  1  0
  5 11  1  0
 10 11  1  0
  1 10  1  0
  2  1  1  0
  6  9  2  0
M  END
>  <smiles>  (81) 
OC1CCN(Cc2ccsc2)CC1

>  <inchikey>  (81) 
JQJVNJKLFUBEBG-UHFFFAOYSA-N

>  <alias>  (81) 
7gpk-b

$$$$
7gpk-a
     RDKit          3D

 13 14  0  0  0  0  0  0  0  0999 V2000
   -4.9440   -0.2230   33.5090 C   0  0  0  0  0  0  0  0  0  0  0  0
   -4.7000   -1.6960   33.7060 C   0  0  0  0  0  0  0  0  0  0  0  0
   -4.6170   -2.0090   35.1790 C   0  0  0  0  0  0  0  0  0  0  0  0
   -5.2290   -0.8850   36.0070 C   0  0  0  0  0  0  0  0  0  0  0  0
   -7.1680    0.5450   36.3250 C   0  0  0  0  0  0  0  0  0  0  0  0
   -8.4380    0.0600   36.9780 C   0  0  0  0  0  0  0  0  0  0  0  0
   -9.0250    0.6410   38.1460 C   0  0  0  0  0  0  0  0  0  0  0  0
  -10.1990    0.0410   38.5260 C   0  0  0  0  0  0  0  0  0  0  0  0
   -9.1870   -0.9790   36.4970 C   0  0  0  0  0  0  0  0  0  0  0  0
   -6.2790    0.1890   34.1130 C   0  0  0  0  0  0  0  0  0  0  0  0
   -6.5080   -0.4170   35.4350 N   0  0  0  0  0  0  0  0  0  0  0  0
   -5.7610   -2.4380   33.1170 O   0  0  0  0  0  0  0  0  0  0  0  0
  -10.5850   -1.2610   37.4330 S   0  0  0  0  0  0  0  0  0  0  0  0
  2 12  1  0
  3  2  1  0
  4  3  1  0
 11  4  1  0
  6  5  1  0
  7  6  1  0
  8  7  2  0
 13  8  1  0
  9 13  1  0
  5 11  1  0
 10 11  1  0
  1 10  1  0
  2  1  1  0
  6  9  2  0
M  END
>  <smiles>  (82) 
OC1CCN(Cc2ccsc2)CC1

>  <inchikey>  (82) 
JQJVNJKLFUBEBG-UHFFFAOYSA-N

>  <alias>  (82) 
7gpk-a

$$$$
7gq3-a
     RDKit          3D

  6  6  0  0  0  0  0  0  0  0999 V2000
   11.8550   -1.0130   14.0510 N   0  0  0  0  0  0  0  0  0  0  0  0
   12.2060   -1.8270   15.0350 C   0  0  0  0  0  0  0  0  0  0  0  0
   11.6390   -3.0010   15.2330 N   0  0  0  0  0  0  0  0  0  0  0  0
   12.2850   -3.5020   16.3090 N   0  0  0  0  0  0  0  0  0  0  0  0
   13.2200   -2.6630   16.7660 C   0  0  0  0  0  0  0  0  0  0  0  0
   13.2060   -1.5560   15.9660 C   0  0  0  0  0  0  0  0  0  0  0  0
  4  5  2  0
  4  3  1  0
  5  6  1  0
  3  2  1  0
  2  6  2  0
  2  1  1  0
M  END
>  <smiles>  (83) 
Nc1ccn[nH]1

>  <inchikey>  (83) 
JVVRJMXHNUAPHW-UHFFFAOYSA-N

>  <alias>  (83) 
7gq3-a

$$$$
7gpl-a
     RDKit          3D

 10 10  0  0  0  0  0  0  0  0999 V2000
  -11.6970  -24.5560   33.8650 N   0  0  0  0  0  0  0  0  0  0  0  0
  -10.7260  -25.0460   32.0270 C   0  0  0  0  0  0  0  0  0  0  0  0
  -12.3360  -23.8330   32.9420 C   0  0  0  0  0  0  0  0  0  0  0  0
  -10.7050  -25.3050   33.3300 N   0  0  0  0  0  0  0  0  0  0  0  0
  -11.3120  -24.8210   27.1190 C   0  0  0  0  0  0  0  0  0  0  0  0
  -11.4710  -24.1020   29.3930 O   0  0  0  0  0  0  0  0  0  0  0  0
  -12.0450  -23.9450   28.0570 C   0  0  0  0  0  0  0  0  0  0  0  0
  -12.1660  -23.5760   30.4140 C   0  0  0  0  0  0  0  0  0  0  0  0
  -11.7420  -24.1210   31.7200 C   0  0  0  0  0  0  0  0  0  0  0  0
  -13.0430  -22.7530   30.2820 O   0  0  0  0  0  0  0  0  0  0  0  0
  4  1  1  0
  4  2  2  0
  1  3  1  0
  2  9  1  0
  3  9  2  0
  9  8  1  0
  6  8  1  0
  6  7  1  0
  8 10  2  0
  7  5  1  0
M  END
>  <smiles>  (84) 
CCOC(=O)c1cn[nH]c1

>  <inchikey>  (84) 
KACZQOKEFKFNDB-UHFFFAOYSA-N

>  <alias>  (84) 
7gpl-a

$$$$
7gpo-a
     RDKit          3D

 17 18  0  0  0  0  0  0  0  0999 V2000
   15.7500   -0.4900   17.3760 N   0  0  0  0  0  0  0  0  0  0  0  0
   13.6560   -2.1420   15.4600 C   0  0  0  0  0  0  0  0  0  0  0  0
   13.1910   -3.1410   16.3040 C   0  0  0  0  0  0  0  0  0  0  0  0
   11.9070   -3.6330   16.1730 C   0  0  0  0  0  0  0  0  0  0  0  0
   11.0600   -3.1050   15.2310 C   0  0  0  0  0  0  0  0  0  0  0  0
   11.4910   -2.0850   14.4220 C   0  0  0  0  0  0  0  0  0  0  0  0
   15.3330   -0.2860   15.9920 C   0  0  0  0  0  0  0  0  0  0  0  0
   16.4650   -1.7540   17.5610 C   0  0  0  0  0  0  0  0  0  0  0  0
   17.1950   -2.8970   14.3540 O   0  0  0  0  0  0  0  0  0  0  0  0
   17.1340   -3.2650   15.6020 C   0  0  0  0  0  0  0  0  0  0  0  0
   16.0160   -2.5980   16.3640 C   0  0  2  0  0  0  0  0  0  0  0  0
   15.1020   -1.7060   15.4800 C   0  0  1  0  0  0  0  0  0  0  0  0
   12.7820   -1.6080   14.5270 C   0  0  0  0  0  0  0  0  0  0  0  0
   15.4980    0.4130   18.3530 C   0  0  0  0  0  0  0  0  0  0  0  0
   15.6270    1.8690   18.0170 C   0  0  0  0  0  0  0  0  0  0  0  0
   15.1840    0.0480   19.4780 O   0  0  0  0  0  0  0  0  0  0  0  0
   17.8690   -4.0890   16.1040 O   0  0  0  0  0  0  0  0  0  0  0  0
  9 10  2  0
 15 14  1  0
  7 12  1  0
  7  1  1  0
 12 11  1  0
 12  2  1  1
 13  2  1  0
 13  6  2  0
  1 14  1  0
  1  8  1  0
 11 10  1  6
 10 17  1  0
 14 16  2  0
 11  8  1  0
  2  3  2  0
  6  5  1  0
  3  4  1  0
  5  4  2  0
M  END
>  <smiles>  (85) 
CC(=O)N1C[C@H](C(=O)O)[C@@H](c2ccccc2)C1

>  <inchikey>  (85) 
UJHLINFGICYWPQ-NEPJUHHUSA-N

>  <alias>  (85) 
7gpo-a

$$$$
B0426a
     RDKit          3D

 22 24  0  0  0  0  0  0  0  0999 V2000
   -3.2830   -1.2090    8.0320 F   0  0  0  0  0  0  0  0  0  0  0  0
   -4.0190   -0.6470    7.0840 C   0  0  0  0  0  0  0  0  0  0  0  0
   -3.3700   -0.8240    5.9300 F   0  0  0  0  0  0  0  0  0  0  0  0
   -3.9660    0.6620    7.3430 F   0  0  0  0  0  0  0  0  0  0  0  0
   -5.4020   -1.2160    7.0220 C   0  0  0  0  0  0  0  0  0  0  0  0
   -6.4760   -0.5460    7.6020 C   0  0  0  0  0  0  0  0  0  0  0  0
   -7.7760   -1.0710    7.5120 C   0  0  0  0  0  0  0  0  0  0  0  0
   -7.9630   -2.2930    6.8480 C   0  0  0  0  0  0  0  0  0  0  0  0
   -6.8870   -2.9520    6.2810 C   0  0  0  0  0  0  0  0  0  0  0  0
   -5.6180   -2.4170    6.3640 C   0  0  0  0  0  0  0  0  0  0  0  0
   -8.8860   -0.3760    8.0520 N   0  0  0  0  0  0  0  0  0  0  0  0
  -10.1870   -0.7780    7.4990 C   0  0  0  0  0  0  0  0  0  0  0  0
  -11.3300   -0.2080    8.3020 C   0  0  0  0  0  0  0  0  0  0  0  0
  -11.2390    1.2460    8.3320 N   0  0  0  0  0  0  0  0  0  0  0  0
   -9.9970    1.6170    9.0120 C   0  0  0  0  0  0  0  0  0  0  0  0
   -8.7910    1.0770    8.2530 C   0  0  0  0  0  0  0  0  0  0  0  0
  -12.4090    1.8630    8.9640 C   0  0  0  0  0  0  0  0  0  0  0  0
  -13.4730    0.9260    9.4760 C   0  0  0  0  0  0  0  0  0  0  0  0
  -14.5590    0.4130    8.7640 C   0  0  0  0  0  0  0  0  0  0  0  0
  -15.3000   -0.2940    9.6220 N   0  0  0  0  0  0  0  0  0  0  0  0
  -14.7670   -0.2920   10.8630 N   0  0  0  0  0  0  0  0  0  0  0  0
  -13.6590    0.4370   10.7740 C   0  0  0  0  0  0  0  0  0  0  0  0
  3  2  1  0
  4  2  1  0
  2  1  1  0
  5  2  1  0
  5 10  2  0
 10  9  1  0
  9  8  2  0
  8  7  1  0
 11  7  1  0
 11 16  1  0
 16 15  1  0
 15 14  1  0
 17 14  1  0
 18 17  1  0
 18 22  1  0
 22 21  2  0
 21 20  1  0
 20 19  1  0
 19 18  2  0
 14 13  1  0
 13 12  1  0
 12 11  1  0
  7  6  2  0
  6  5  1  0
M  END
>  <smiles>  (86) 
FC(F)(F)c1cccc(N2CCN(Cc3cn[nH]c3)CC2)c1

>  <inchikey>  (86) 
DJYGXLQCAWWWIH-UHFFFAOYSA-N

>  <alias>  (86) 
B0426a

$$$$
B0436a
     RDKit          3D

 21 23  0  0  0  0  0  0  0  0999 V2000
    3.8150    1.7910   33.3850 O   0  0  0  0  0  0  0  0  0  0  0  0
    3.5000    0.9670   34.2420 C   0  0  0  0  0  0  0  0  0  0  0  0
    2.5550    1.2040   35.1450 N   0  0  0  0  0  0  0  0  0  0  0  0
    2.4470    2.4700   35.8470 C   0  0  0  0  0  0  0  0  0  0  0  0
    4.1830   -0.3840   34.3360 C   0  0  0  0  0  0  0  0  0  0  0  0
    3.3490   -1.5330   33.8130 C   0  0  0  0  0  0  0  0  0  0  0  0
    2.5820   -1.4000   32.6640 C   0  0  0  0  0  0  0  0  0  0  0  0
    1.8340   -2.4560   32.1770 C   0  0  0  0  0  0  0  0  0  0  0  0
    1.8270   -3.6850   32.8320 C   0  0  0  0  0  0  0  0  0  0  0  0
    2.6010   -3.8220   33.9820 C   0  0  0  0  0  0  0  0  0  0  0  0
    3.3510   -2.7600   34.4600 C   0  0  0  0  0  0  0  0  0  0  0  0
    1.0010   -4.8110   32.3340 C   0  0  0  0  0  0  0  0  0  0  0  0
    0.2450   -5.5590   33.1780 C   0  0  0  0  0  0  0  0  0  0  0  0
   -0.5130   -6.6100   32.6980 N   0  0  0  0  0  0  0  0  0  0  0  0
   -1.3610   -7.5380   33.2920 C   0  0  0  0  0  0  0  0  0  0  0  0
   -1.5820   -7.5670   34.6120 N   0  0  0  0  0  0  0  0  0  0  0  0
   -1.8720   -8.3530   32.3780 N   0  0  0  0  0  0  0  0  0  0  0  0
   -1.3510   -7.9780   31.1400 N   0  0  0  0  0  0  0  0  0  0  0  0
   -0.5440   -6.9450   31.3470 C   0  0  0  0  0  0  0  0  0  0  0  0
    0.2460   -6.1770   30.4510 C   0  0  0  0  0  0  0  0  0  0  0  0
    0.9850   -5.1510   30.9370 C   0  0  0  0  0  0  0  0  0  0  0  0
  4  3  1  0
  3  2  1  0
  2  1  2  0
  5  2  1  0
  6  5  1  0
  6 11  2  0
 11 10  1  0
 10  9  2  0
 12  9  1  0
 12 21  1  0
 21 20  2  0
 20 19  1  0
 19 18  2  0
 18 17  1  0
 17 15  2  0
 16 15  1  0
 15 14  1  0
 19 14  1  0
 14 13  1  0
 13 12  2  0
  9  8  1  0
  8  7  2  0
  7  6  1  0
M  END
>  <smiles>  (87) 
CNC(=O)Cc1ccc(-c2ccc3nnc(N)n3c2)cc1

>  <inchikey>  (87) 
RWCBDYVITSXUHF-UHFFFAOYSA-N

>  <alias>  (87) 
B0436a

$$$$
B0439a
     RDKit          3D

 21 23  0  0  0  0  0  0  0  0999 V2000
    4.5690   -4.9910   35.5690 O   0  0  0  0  0  0  0  0  0  0  0  0
    4.1790   -3.7510   36.1660 S   0  0  0  0  0  0  0  0  0  0  0  0
    4.9430   -3.2400   37.2620 O   0  0  0  0  0  0  0  0  0  0  0  0
    2.5070   -3.8810   36.6750 C   0  0  0  0  0  0  0  0  0  0  0  0
    4.2060   -2.6230   34.9930 N   0  0  0  0  0  0  0  0  0  0  0  0
    3.4540   -2.6970   33.7790 C   0  0  0  0  0  0  0  0  0  0  0  0
    2.6610   -3.8030   33.4690 C   0  0  0  0  0  0  0  0  0  0  0  0
    1.8970   -3.8200   32.3030 C   0  0  0  0  0  0  0  0  0  0  0  0
    1.9440   -2.7200   31.4490 C   0  0  0  0  0  0  0  0  0  0  0  0
    2.7320   -1.6240   31.7550 C   0  0  0  0  0  0  0  0  0  0  0  0
    3.4860   -1.6070   32.9150 C   0  0  0  0  0  0  0  0  0  0  0  0
    1.0430   -4.9930   31.9870 C   0  0  0  0  0  0  0  0  0  0  0  0
    0.3150   -5.6340   32.9380 C   0  0  0  0  0  0  0  0  0  0  0  0
   -0.5180   -6.6870   32.5940 N   0  0  0  0  0  0  0  0  0  0  0  0
   -1.3780   -7.5220   33.2990 C   0  0  0  0  0  0  0  0  0  0  0  0
   -1.5500   -7.4230   34.6210 N   0  0  0  0  0  0  0  0  0  0  0  0
   -1.9740   -8.3820   32.4820 N   0  0  0  0  0  0  0  0  0  0  0  0
   -1.5070   -8.1330   31.1960 N   0  0  0  0  0  0  0  0  0  0  0  0
   -0.6450   -7.1310   31.2770 C   0  0  0  0  0  0  0  0  0  0  0  0
    0.1240   -6.4850   30.2790 C   0  0  0  0  0  0  0  0  0  0  0  0
    0.9320   -5.4580   30.6280 C   0  0  0  0  0  0  0  0  0  0  0  0
  4  2  1  0
  3  2  2  0
  2  1  2  0
  5  2  1  0
  6  5  1  0
  6 11  2  0
 11 10  1  0
 10  9  2  0
  9  8  1  0
 12  8  1  0
 12 21  1  0
 21 20  2  0
 20 19  1  0
 19 18  2  0
 18 17  1  0
 17 15  2  0
 16 15  1  0
 15 14  1  0
 19 14  1  0
 14 13  1  0
 13 12  2  0
  8  7  2  0
  7  6  1  0
M  END
>  <smiles>  (88) 
CS(=O)(=O)Nc1cccc(-c2ccc3nnc(N)n3c2)c1

>  <inchikey>  (88) 
POMKRPOCZAWFPL-UHFFFAOYSA-N

>  <alias>  (88) 
B0439a

$$$$
B0446a
     RDKit          3D

 19 20  0  0  0  0  0  0  0  0999 V2000
   -1.9890   -3.5900   31.6130 O   0  0  0  0  0  0  0  0  0  0  0  0
   -0.9560   -3.5150   30.9650 C   0  0  0  0  0  0  0  0  0  0  0  0
    0.1430   -4.2040   31.3370 N   0  0  0  0  0  0  0  0  0  0  0  0
    0.3590   -4.5740   32.7270 C   0  0  0  0  0  0  0  0  0  0  0  0
    0.7730   -6.0330   32.8410 C   0  0  0  0  0  0  0  0  0  0  0  0
   -0.2440   -6.9810   32.3150 N   0  0  0  0  0  0  0  0  0  0  0  0
   -0.4260   -7.3720   31.0330 C   0  0  0  0  0  0  0  0  0  0  0  0
   -1.3950   -8.2460   30.9470 N   0  0  0  0  0  0  0  0  0  0  0  0
   -1.8720   -8.4410   32.2370 N   0  0  0  0  0  0  0  0  0  0  0  0
   -1.1600   -7.6770   33.0230 C   0  0  0  0  0  0  0  0  0  0  0  0
   -0.8660   -2.7480   29.8220 N   0  0  0  0  0  0  0  0  0  0  0  0
    0.3320   -2.6860   28.9900 C   0  0  0  0  0  0  0  0  0  0  0  0
   -1.9740   -1.8900   29.3800 C   0  0  0  0  0  0  0  0  0  0  0  0
   -1.5580   -0.4710   29.0590 C   0  0  0  0  0  0  0  0  0  0  0  0
   -1.8910    0.1080   27.8400 C   0  0  0  0  0  0  0  0  0  0  0  0
   -1.5610    1.4280   27.5630 C   0  0  0  0  0  0  0  0  0  0  0  0
   -0.8700    2.1760   28.4900 C   0  0  0  0  0  0  0  0  0  0  0  0
   -0.5200    1.6110   29.7010 C   0  0  0  0  0  0  0  0  0  0  0  0
   -0.8690    0.2980   29.9880 C   0  0  0  0  0  0  0  0  0  0  0  0
 12 11  1  0
 13 11  1  0
 14 13  1  0
 14 19  2  0
 19 18  1  0
 18 17  2  0
 17 16  1  0
 16 15  2  0
 15 14  1  0
 11  2  1  0
  2  1  2  0
  3  2  1  0
  4  3  1  0
  5  4  1  0
  6  5  1  0
  6 10  1  0
 10  9  2  0
  9  8  1  0
  8  7  2  0
  7  6  1  0
M  END
>  <smiles>  (89) 
CN(Cc1ccccc1)C(=O)NCCn1cnnc1

>  <inchikey>  (89) 
DGXVCUCSXWHVSR-UHFFFAOYSA-N

>  <alias>  (89) 
B0446a

$$$$
B0446b
     RDKit          3D

 19 20  0  0  0  0  0  0  0  0999 V2000
   -2.2770   -3.2460   31.6790 O   0  0  0  0  0  0  0  0  0  0  0  0
   -1.2590   -3.3680   31.0110 C   0  0  0  0  0  0  0  0  0  0  0  0
   -0.2540   -4.1910   31.3790 N   0  0  0  0  0  0  0  0  0  0  0  0
   -0.0440   -4.5720   32.7690 C   0  0  0  0  0  0  0  0  0  0  0  0
    0.6250   -5.9230   32.8230 C   0  0  0  0  0  0  0  0  0  0  0  0
   -0.3030   -6.9360   32.3260 N   0  0  0  0  0  0  0  0  0  0  0  0
   -0.5020   -7.3080   31.0460 C   0  0  0  0  0  0  0  0  0  0  0  0
   -1.4510   -8.1990   30.9670 N   0  0  0  0  0  0  0  0  0  0  0  0
   -1.8970   -8.4280   32.2590 N   0  0  0  0  0  0  0  0  0  0  0  0
   -1.1880   -7.6620   33.0430 C   0  0  0  0  0  0  0  0  0  0  0  0
   -1.1310   -2.7430   29.7990 N   0  0  0  0  0  0  0  0  0  0  0  0
   -0.0070   -2.9530   28.8940 C   0  0  0  0  0  0  0  0  0  0  0  0
   -2.1670   -1.8240   29.3330 C   0  0  0  0  0  0  0  0  0  0  0  0
   -1.6560   -0.4220   29.1010 C   0  0  0  0  0  0  0  0  0  0  0  0
   -1.9640    0.2620   27.9340 C   0  0  0  0  0  0  0  0  0  0  0  0
   -1.4450    1.5230   27.6930 C   0  0  0  0  0  0  0  0  0  0  0  0
   -0.5970    2.1070   28.6040 C   0  0  0  0  0  0  0  0  0  0  0  0
   -0.2840    1.4400   29.7700 C   0  0  0  0  0  0  0  0  0  0  0  0
   -0.8240    0.1900   30.0250 C   0  0  0  0  0  0  0  0  0  0  0  0
 12 11  1  0
 13 11  1  0
 14 13  1  0
 14 19  2  0
 19 18  1  0
 18 17  2  0
 17 16  1  0
 16 15  2  0
 15 14  1  0
 11  2  1  0
  2  1  2  0
  3  2  1  0
  4  3  1  0
  5  4  1  0
  6  5  1  0
  6 10  1  0
 10  9  2  0
  9  8  1  0
  8  7  2  0
  7  6  1  0
M  END
>  <smiles>  (90) 
CN(Cc1ccccc1)C(=O)NCCn1cnnc1

>  <inchikey>  (90) 
DGXVCUCSXWHVSR-UHFFFAOYSA-N

>  <alias>  (90) 
B0446b

$$$$
B0450a
     RDKit          3D

 20 22  0  0  0  0  0  0  0  0999 V2000
   -1.5260   -7.6400   34.5750 N   0  0  0  0  0  0  0  0  0  0  0  0
   -1.3210   -7.6120   33.2510 C   0  0  0  0  0  0  0  0  0  0  0  0
   -1.9160   -8.3590   32.3280 N   0  0  0  0  0  0  0  0  0  0  0  0
   -1.4050   -7.9820   31.0890 N   0  0  0  0  0  0  0  0  0  0  0  0
   -0.4230   -6.7430   32.6670 N   0  0  0  0  0  0  0  0  0  0  0  0
   -0.5130   -7.0170   31.3060 C   0  0  0  0  0  0  0  0  0  0  0  0
    0.3190   -6.2830   30.4240 C   0  0  0  0  0  0  0  0  0  0  0  0
    1.1710   -5.3550   30.9310 C   0  0  0  0  0  0  0  0  0  0  0  0
    0.4450   -5.7930   33.1700 C   0  0  0  0  0  0  0  0  0  0  0  0
    1.2600   -5.0860   32.3450 C   0  0  0  0  0  0  0  0  0  0  0  0
    2.2490   -4.1200   32.8820 C   0  0  0  0  0  0  0  0  0  0  0  0
    2.4530   -2.8860   32.2660 C   0  0  0  0  0  0  0  0  0  0  0  0
    3.3870   -1.9910   32.7590 C   0  0  0  0  0  0  0  0  0  0  0  0
    2.9970   -4.4510   34.0090 C   0  0  0  0  0  0  0  0  0  0  0  0
    3.9380   -3.5690   34.5080 C   0  0  0  0  0  0  0  0  0  0  0  0
    4.7330   -3.8180   35.5930 O   0  0  0  0  0  0  0  0  0  0  0  0
    5.4020   -5.0790   35.6500 C   0  0  0  0  0  0  0  0  0  0  0  0
    4.1330   -2.3230   33.8800 C   0  0  0  0  0  0  0  0  0  0  0  0
    5.0690   -1.5100   34.4600 O   0  0  0  0  0  0  0  0  0  0  0  0
    6.2170   -1.1670   33.6830 C   0  0  0  0  0  0  0  0  0  0  0  0
 20 19  1  0
 19 18  1  0
 18 13  1  0
 13 12  2  0
 12 11  1  0
 11 10  1  0
 10  8  1  0
  8  7  2  0
  7  6  1  0
  6  4  2  0
  4  3  1  0
  3  2  2  0
  2  1  1  0
  5  2  1  0
  6  5  1  0
  9  5  1  0
 10  9  2  0
 14 11  2  0
 15 14  1  0
 18 15  2  0
 16 15  1  0
 17 16  1  0
M  END
>  <smiles>  (91) 
COc1ccc(-c2ccc3nnc(N)n3c2)cc1OC

>  <inchikey>  (91) 
WPZDOUWFJLYHBJ-UHFFFAOYSA-N

>  <alias>  (91) 
B0450a

$$$$
B0450b
     RDKit          3D

 20 22  0  0  0  0  0  0  0  0999 V2000
   -1.6790   -7.5360   34.6210 N   0  0  0  0  0  0  0  0  0  0  0  0
   -1.4300   -7.5130   33.3040 C   0  0  0  0  0  0  0  0  0  0  0  0
   -1.9260   -8.3210   32.3740 N   0  0  0  0  0  0  0  0  0  0  0  0
   -1.3720   -7.9350   31.1480 N   0  0  0  0  0  0  0  0  0  0  0  0
   -0.5800   -6.5910   32.7420 N   0  0  0  0  0  0  0  0  0  0  0  0
   -0.5660   -6.8980   31.3840 C   0  0  0  0  0  0  0  0  0  0  0  0
    0.2340   -6.0900   30.5320 C   0  0  0  0  0  0  0  0  0  0  0  0
    0.9440   -5.0580   31.0640 C   0  0  0  0  0  0  0  0  0  0  0  0
    0.1350   -5.5310   33.2650 C   0  0  0  0  0  0  0  0  0  0  0  0
    0.9040   -4.7400   32.4760 C   0  0  0  0  0  0  0  0  0  0  0  0
    1.6620   -3.5880   33.0460 C   0  0  0  0  0  0  0  0  0  0  0  0
    1.8840   -2.4290   32.3000 C   0  0  0  0  0  0  0  0  0  0  0  0
    2.5090   -1.3300   32.8630 C   0  0  0  0  0  0  0  0  0  0  0  0
    2.0990   -3.6370   34.3710 C   0  0  0  0  0  0  0  0  0  0  0  0
    2.7070   -2.5360   34.9490 C   0  0  0  0  0  0  0  0  0  0  0  0
    3.0990   -2.4640   36.2590 O   0  0  0  0  0  0  0  0  0  0  0  0
    4.1530   -3.3310   36.6800 C   0  0  0  0  0  0  0  0  0  0  0  0
    2.9190   -1.3710   34.1880 C   0  0  0  0  0  0  0  0  0  0  0  0
    3.5520   -0.3480   34.8390 O   0  0  0  0  0  0  0  0  0  0  0  0
    4.9790   -0.3700   34.8690 C   0  0  0  0  0  0  0  0  0  0  0  0
 20 19  1  0
 19 18  1  0
 18 13  1  0
 13 12  2  0
 12 11  1  0
 11 10  1  0
 10  8  1  0
  8  7  2  0
  7  6  1  0
  6  4  2  0
  4  3  1  0
  3  2  2  0
  2  1  1  0
  5  2  1  0
  6  5  1  0
  9  5  1  0
 10  9  2  0
 14 11  2  0
 15 14  1  0
 18 15  2  0
 16 15  1  0
 17 16  1  0
M  END
>  <smiles>  (92) 
COc1ccc(-c2ccc3nnc(N)n3c2)cc1OC

>  <inchikey>  (92) 
WPZDOUWFJLYHBJ-UHFFFAOYSA-N

>  <alias>  (92) 
B0450b

$$$$
B0454a
     RDKit          3D

 17 18  0  0  0  0  0  0  0  0999 V2000
   -1.6620   -4.1990   31.8530 O   0  0  0  0  0  0  0  0  0  0  0  0
   -0.5920   -4.0620   32.3960 C   0  0  0  0  0  0  0  0  0  0  0  0
    0.2330   -5.3070   32.7140 C   0  0  0  0  0  0  0  0  0  0  0  0
   -0.4700   -6.5150   32.2840 N   0  0  0  0  0  0  0  0  0  0  0  0
   -1.2400   -7.3280   33.0350 C   0  0  0  0  0  0  0  0  0  0  0  0
   -1.8130   -8.2420   32.2930 N   0  0  0  0  0  0  0  0  0  0  0  0
   -1.3990   -8.0140   30.9900 N   0  0  0  0  0  0  0  0  0  0  0  0
   -0.5970   -6.9850   31.0220 C   0  0  0  0  0  0  0  0  0  0  0  0
   -0.1360   -2.8360   32.7400 N   0  0  0  0  0  0  0  0  0  0  0  0
    1.0890   -2.5900   33.4840 C   0  0  0  0  0  0  0  0  0  0  0  0
   -0.9590   -1.6410   32.4380 C   0  0  0  0  0  0  0  0  0  0  0  0
   -0.8750   -1.1730   31.0020 C   0  0  0  0  0  0  0  0  0  0  0  0
   -0.3550    0.0790   30.7020 C   0  0  0  0  0  0  0  0  0  0  0  0
   -0.3140    0.5350   29.3960 C   0  0  0  0  0  0  0  0  0  0  0  0
   -0.7700   -0.2600   28.3690 C   0  0  0  0  0  0  0  0  0  0  0  0
   -1.2810   -1.5080   28.6480 C   0  0  0  0  0  0  0  0  0  0  0  0
   -1.3460   -1.9580   29.9560 C   0  0  0  0  0  0  0  0  0  0  0  0
 10  9  1  0
 11  9  1  0
 12 11  1  0
 12 17  2  0
 17 16  1  0
 16 15  2  0
 15 14  1  0
 14 13  2  0
 13 12  1  0
  9  2  1  0
  2  1  2  0
  3  2  1  0
  4  3  1  0
  4  8  1  0
  8  7  2  0
  7  6  1  0
  6  5  2  0
  5  4  1  0
M  END
>  <smiles>  (93) 
CN(Cc1ccccc1)C(=O)Cn1cnnc1

>  <inchikey>  (93) 
AVTXWKNPLMOCII-UHFFFAOYSA-N

>  <alias>  (93) 
B0454a

$$$$
B0454b
     RDKit          3D

 17 18  0  0  0  0  0  0  0  0999 V2000
   -1.4970   -4.2770   31.7960 O   0  0  0  0  0  0  0  0  0  0  0  0
   -0.4050   -4.2390   32.3450 C   0  0  0  0  0  0  0  0  0  0  0  0
    0.2550   -5.5350   32.8180 C   0  0  0  0  0  0  0  0  0  0  0  0
   -0.4680   -6.7000   32.3210 N   0  0  0  0  0  0  0  0  0  0  0  0
   -0.5970   -7.0930   31.0360 C   0  0  0  0  0  0  0  0  0  0  0  0
   -1.4190   -8.1010   30.9400 N   0  0  0  0  0  0  0  0  0  0  0  0
   -1.8390   -8.4000   32.2320 N   0  0  0  0  0  0  0  0  0  0  0  0
   -1.2440   -7.5490   33.0270 C   0  0  0  0  0  0  0  0  0  0  0  0
    0.2340   -3.0660   32.5620 N   0  0  0  0  0  0  0  0  0  0  0  0
    1.6080   -2.9260   33.0290 C   0  0  0  0  0  0  0  0  0  0  0  0
   -0.4800   -1.8040   32.2780 C   0  0  0  0  0  0  0  0  0  0  0  0
   -0.2840   -1.3300   30.8570 C   0  0  0  0  0  0  0  0  0  0  0  0
   -1.1140   -1.7750   29.8340 C   0  0  0  0  0  0  0  0  0  0  0  0
   -0.8800   -1.4010   28.5200 C   0  0  0  0  0  0  0  0  0  0  0  0
    0.1820   -0.5770   28.2120 C   0  0  0  0  0  0  0  0  0  0  0  0
    1.0030   -0.1170   29.2170 C   0  0  0  0  0  0  0  0  0  0  0  0
    0.7690   -0.4840   30.5340 C   0  0  0  0  0  0  0  0  0  0  0  0
 10  9  1  0
 11  9  1  0
 12 11  1  0
 12 17  2  0
 17 16  1  0
 16 15  2  0
 15 14  1  0
 14 13  2  0
 13 12  1  0
  9  2  1  0
  2  1  2  0
  3  2  1  0
  4  3  1  0
  4  8  1  0
  8  7  2  0
  7  6  1  0
  6  5  2  0
  5  4  1  0
M  END
>  <smiles>  (94) 
CN(Cc1ccccc1)C(=O)Cn1cnnc1

>  <inchikey>  (94) 
AVTXWKNPLMOCII-UHFFFAOYSA-N

>  <alias>  (94) 
B0454b

$$$$
B0455a
     RDKit          3D

 20 22  0  0  0  0  0  0  0  0999 V2000
    4.2300    0.6260   33.4930 O   0  0  0  0  0  0  0  0  0  0  0  0
    3.2090    0.1710   34.0010 C   0  0  0  0  0  0  0  0  0  0  0  0
    2.5750    0.7990   34.9910 N   0  0  0  0  0  0  0  0  0  0  0  0
    1.7770    0.0890   35.9740 C   0  0  0  0  0  0  0  0  0  0  0  0
    2.6190   -1.1150   33.5140 C   0  0  0  0  0  0  0  0  0  0  0  0
    1.8430   -1.1510   32.3590 C   0  0  0  0  0  0  0  0  0  0  0  0
    1.2760   -2.3370   31.9260 C   0  0  0  0  0  0  0  0  0  0  0  0
    1.4650   -3.5210   32.6360 C   0  0  0  0  0  0  0  0  0  0  0  0
    2.2570   -3.4870   33.7820 C   0  0  0  0  0  0  0  0  0  0  0  0
    2.8280   -2.3020   34.2120 C   0  0  0  0  0  0  0  0  0  0  0  0
    0.8030   -4.7760   32.2100 C   0  0  0  0  0  0  0  0  0  0  0  0
    0.0970   -5.5340   33.0860 C   0  0  0  0  0  0  0  0  0  0  0  0
   -0.5990   -6.6450   32.6530 N   0  0  0  0  0  0  0  0  0  0  0  0
   -1.4280   -7.5620   33.2780 C   0  0  0  0  0  0  0  0  0  0  0  0
   -1.6720   -7.5250   34.5930 N   0  0  0  0  0  0  0  0  0  0  0  0
   -1.9020   -8.4350   32.4000 N   0  0  0  0  0  0  0  0  0  0  0  0
   -1.3720   -8.1100   31.1530 N   0  0  0  0  0  0  0  0  0  0  0  0
   -0.5990   -7.0440   31.3190 C   0  0  0  0  0  0  0  0  0  0  0  0
    0.1580   -6.2820   30.3940 C   0  0  0  0  0  0  0  0  0  0  0  0
    0.8280   -5.1890   30.8310 C   0  0  0  0  0  0  0  0  0  0  0  0
  4  3  1  0
  3  2  1  0
  2  1  2  0
  5  2  1  0
  5 10  2  0
 10  9  1  0
  9  8  2  0
 11  8  1  0
 11 20  1  0
 20 19  2  0
 19 18  1  0
 18 17  2  0
 17 16  1  0
 16 14  2  0
 15 14  1  0
 14 13  1  0
 18 13  1  0
 13 12  1  0
 12 11  2  0
  8  7  1  0
  7  6  2  0
  6  5  1  0
M  END
>  <smiles>  (95) 
CNC(=O)c1ccc(-c2ccc3nnc(N)n3c2)cc1

>  <inchikey>  (95) 
CKVYAEVDVNCGJD-UHFFFAOYSA-N

>  <alias>  (95) 
B0455a

$$$$
B0495a
     RDKit          3D

 18 19  0  0  0  0  0  0  0  0999 V2000
  -13.1540  -37.6410   31.9290 Br  0  0  0  0  0  0  0  0  0  0  0  0
  -13.8160  -36.3010   33.0530 C   0  0  0  0  0  0  0  0  0  0  0  0
  -13.8340  -36.4320   34.3730 N   0  0  0  0  0  0  0  0  0  0  0  0
  -14.3840  -35.2370   34.8660 O   0  0  0  0  0  0  0  0  0  0  0  0
  -14.6710  -34.4390   33.8280 C   0  0  0  0  0  0  0  0  0  0  0  0
  -14.3530  -35.0130   32.6520 C   0  0  0  0  0  0  0  0  0  0  0  0
  -14.4720  -34.4790   31.2480 C   0  0  0  0  0  0  0  0  0  0  0  0
  -14.4940  -33.0160   31.1560 N   0  0  0  0  0  0  0  0  0  0  0  0
  -13.3090  -32.3760   31.7510 C   0  0  0  0  0  0  0  0  0  0  0  0
  -12.6210  -31.6050   30.6370 C   0  0  0  0  0  0  0  0  0  0  0  0
  -14.5480  -32.4960   29.7810 C   0  0  0  0  0  0  0  0  0  0  0  0
  -13.0730  -32.3390   29.3750 C   0  0  1  0  0  0  0  0  0  0  0  0
  -12.6870  -31.4900   27.8460 S   0  0  0  0  0  0  0  0  0  0  0  0
  -11.6450  -32.2330   27.2010 O   0  0  0  0  0  0  0  0  0  0  0  0
  -12.4690  -30.1090   28.1570 O   0  0  0  0  0  0  0  0  0  0  0  0
  -14.0290  -31.5680   26.8620 N   0  0  0  0  0  0  0  0  0  0  0  0
  -14.6990  -30.3410   26.4160 C   0  0  0  0  0  0  0  0  0  0  0  0
  -14.2070  -32.7150   25.9660 C   0  0  0  0  0  0  0  0  0  0  0  0
 18 16  1  0
 17 16  1  0
 16 13  1  0
 14 13  2  0
 15 13  2  0
 12 13  1  6
 12 10  1  0
 10  9  1  0
  9  8  1  0
  8  7  1  0
  7  6  1  0
  6  5  2  0
  5  4  1  0
  4  3  1  0
  3  2  2  0
  6  2  1  0
  2  1  1  0
 11  8  1  0
 12 11  1  0
M  END
>  <smiles>  (96) 
CN(C)S(=O)(=O)[C@H]1CCN(Cc2conc2Br)C1

>  <inchikey>  (96) 
UAILPSBZZNOEFZ-VIFPVBQESA-N

>  <alias>  (96) 
B0495a

$$$$
B0513a
     RDKit          3D

 26 29  0  0  0  0  0  0  0  0999 V2000
   -4.1480   -1.4750    6.3870 F   0  0  0  0  0  0  0  0  0  0  0  0
   -4.5290   -0.4280    7.1090 C   0  0  0  0  0  0  0  0  0  0  0  0
   -3.4580    0.0040    7.7670 F   0  0  0  0  0  0  0  0  0  0  0  0
   -4.8910    0.5240    6.2570 F   0  0  0  0  0  0  0  0  0  0  0  0
   -5.5020   -0.7020    7.9860 O   0  0  0  0  0  0  0  0  0  0  0  0
   -6.7540   -1.2020    7.5260 C   0  0  0  0  0  0  0  0  0  0  0  0
   -7.9070   -0.4860    7.8260 C   0  0  0  0  0  0  0  0  0  0  0  0
   -9.1600   -1.0170    7.5220 C   0  0  0  0  0  0  0  0  0  0  0  0
   -9.2270   -2.2600    6.9070 C   0  0  0  0  0  0  0  0  0  0  0  0
   -8.0740   -2.9570    6.5880 C   0  0  0  0  0  0  0  0  0  0  0  0
   -6.8310   -2.4320    6.8920 C   0  0  0  0  0  0  0  0  0  0  0  0
  -10.4530   -0.3020    7.8350 C   0  0  2  0  0  0  0  0  0  0  0  0
  -10.7030    0.6470    6.7900 O   0  0  0  0  0  0  0  0  0  0  0  0
  -12.0380    1.1760    6.8720 C   0  0  0  0  0  0  0  0  0  0  0  0
  -12.6980    0.8350    8.1920 C   0  0  0  0  0  0  0  0  0  0  0  0
  -11.7800    1.0980    9.3100 N   0  0  0  0  0  0  0  0  0  0  0  0
  -10.5000    0.3970    9.1860 C   0  0  0  0  0  0  0  0  0  0  0  0
  -12.3850    1.2660   10.5570 C   0  0  0  0  0  0  0  0  0  0  0  0
  -11.7790    2.2060   11.3890 N   0  0  0  0  0  0  0  0  0  0  0  0
  -10.6910    3.0200   11.2610 C   0  0  0  0  0  0  0  0  0  0  0  0
  -10.5060    3.7250   12.3440 N   0  0  0  0  0  0  0  0  0  0  0  0
  -11.5100    3.3830   13.2460 N   0  0  0  0  0  0  0  0  0  0  0  0
  -12.2750    2.4710   12.6630 C   0  0  0  0  0  0  0  0  0  0  0  0
  -13.4260    1.7750   13.1000 C   0  0  0  0  0  0  0  0  0  0  0  0
  -14.0200    0.8620   12.2820 C   0  0  0  0  0  0  0  0  0  0  0  0
  -13.5130    0.5860   10.9950 C   0  0  0  0  0  0  0  0  0  0  0  0
  3  2  1  0
  4  2  1  0
  2  1  1  0
  5  2  1  0
  6  5  1  0
  6 11  2  0
 11 10  1  0
 10  9  2  0
  9  8  1  0
 12  8  1  6
 12 17  1  0
 17 16  1  0
 18 16  1  0
 18 26  2  0
 26 25  1  0
 25 24  2  0
 24 23  1  0
 23 22  2  0
 22 21  1  0
 21 20  2  0
 20 19  1  0
 19 18  1  0
 23 19  1  0
 16 15  1  0
 15 14  1  0
 14 13  1  0
 13 12  1  0
  8  7  2  0
  7  6  1  0
M  END
>  <smiles>  (97) 
FC(F)(F)Oc1cccc([C@H]2CN(c3cccc4nncn34)CCO2)c1

>  <inchikey>  (97) 
BAOSFOHTMXUOCD-CQSZACIVSA-N

>  <alias>  (97) 
B0513a

$$$$
B0517a
     RDKit          3D

 19 20  0  0  0  0  0  0  0  0999 V2000
   -0.6870   -6.7860   35.6590 O   0  0  0  0  0  0  0  0  0  0  0  0
   -0.5650   -6.7140   34.4420 C   0  0  0  0  0  0  0  0  0  0  0  0
   -1.3540   -7.4450   33.5840 N   0  0  0  0  0  0  0  0  0  0  0  0
   -1.2920   -7.4460   32.1950 C   0  0  0  0  0  0  0  0  0  0  0  0
   -2.0540   -8.1810   31.5430 O   0  0  0  0  0  0  0  0  0  0  0  0
   -0.3010   -6.5710   31.6400 C   0  0  0  0  0  0  0  0  0  0  0  0
    0.4790   -5.8450   32.4600 C   0  0  0  0  0  0  0  0  0  0  0  0
    0.3700   -5.9040   33.8280 N   0  0  0  0  0  0  0  0  0  0  0  0
    1.2790   -5.1260   34.6650 C   0  0  0  0  0  0  0  0  0  0  0  0
    2.3840   -6.0100   35.2180 C   0  0  0  0  0  0  0  0  0  0  0  0
    2.6880   -7.0690   34.6680 O   0  0  0  0  0  0  0  0  0  0  0  0
    2.9740   -5.5550   36.3250 N   0  0  0  0  0  0  0  0  0  0  0  0
    3.7720   -6.3990   37.2060 C   0  0  0  0  0  0  0  0  0  0  0  0
    3.0130   -6.9730   38.3790 C   0  0  0  0  0  0  0  0  0  0  0  0
    1.6290   -7.0990   38.3530 C   0  0  0  0  0  0  0  0  0  0  0  0
    0.9450   -7.6410   39.4290 C   0  0  0  0  0  0  0  0  0  0  0  0
    1.6330   -8.0600   40.5480 C   0  0  0  0  0  0  0  0  0  0  0  0
    3.0060   -7.9400   40.5880 C   0  0  0  0  0  0  0  0  0  0  0  0
    3.6920   -7.4000   39.5120 C   0  0  0  0  0  0  0  0  0  0  0  0
 11 10  2  0
 10  9  1  0
  9  8  1  0
  8  7  1  0
  7  6  2  0
  6  4  1  0
  5  4  2  0
  4  3  1  0
  3  2  1  0
  8  2  1  0
  2  1  2  0
 12 10  1  0
 13 12  1  0
 14 13  1  0
 14 19  2  0
 19 18  1  0
 18 17  2  0
 17 16  1  0
 16 15  2  0
 15 14  1  0
M  END
>  <smiles>  (98) 
O=C(Cn1ccc(=O)[nH]c1=O)NCc1ccccc1

>  <inchikey>  (98) 
QYWZZQOITPPOQW-UHFFFAOYSA-N

>  <alias>  (98) 
B0517a

$$$$
B0525a
     RDKit          3D

 22 24  0  0  0  0  0  0  0  0999 V2000
   -1.4560   -4.1850   31.8380 O   0  0  0  0  0  0  0  0  0  0  0  0
   -0.2440   -4.2140   31.9860 C   0  0  0  0  0  0  0  0  0  0  0  0
    0.4400   -5.4840   32.4920 C   0  0  0  0  0  0  0  0  0  0  0  0
   -0.3610   -6.6630   32.1840 N   0  0  0  0  0  0  0  0  0  0  0  0
   -1.0810   -7.4110   33.0440 C   0  0  0  0  0  0  0  0  0  0  0  0
   -1.7500   -8.3340   32.4050 N   0  0  0  0  0  0  0  0  0  0  0  0
   -1.4450   -8.1850   31.0540 N   0  0  0  0  0  0  0  0  0  0  0  0
   -0.6120   -7.1850   30.9650 C   0  0  0  0  0  0  0  0  0  0  0  0
    0.5410   -3.1560   31.6870 N   0  0  0  0  0  0  0  0  0  0  0  0
   -0.0270   -1.9490   31.0860 C   0  0  0  0  0  0  0  0  0  0  0  0
    0.4650   -1.8700   29.6410 C   0  0  2  0  0  0  0  0  0  0  0  0
    1.9920   -1.7510   29.6320 C   0  0  0  0  0  0  0  0  0  0  0  0
    2.6410   -2.8870   30.4280 C   0  0  0  0  0  0  0  0  0  0  0  0
    2.0010   -3.0400   31.8030 C   0  0  0  0  0  0  0  0  0  0  0  0
   -0.2690   -0.8150   28.8320 C   0  0  0  0  0  0  0  0  0  0  0  0
    0.1120    0.5200   28.8320 C   0  0  0  0  0  0  0  0  0  0  0  0
   -0.6080    1.4680   28.1250 C   0  0  0  0  0  0  0  0  0  0  0  0
   -1.7300    1.1110   27.3890 C   0  0  0  0  0  0  0  0  0  0  0  0
   -2.5480    2.1430   26.6500 C   0  0  0  0  0  0  0  0  0  0  0  0
   -1.7800    3.2800   26.2610 O   0  0  0  0  0  0  0  0  0  0  0  0
   -2.1000   -0.2260   27.3740 C   0  0  0  0  0  0  0  0  0  0  0  0
   -1.3860   -1.1710   28.0880 C   0  0  0  0  0  0  0  0  0  0  0  0
  2  1  2  0
  3  2  1  0
  4  3  1  0
  4  8  1  0
  8  7  2  0
  7  6  1  0
  6  5  2  0
  5  4  1  0
  9  2  1  0
  9 14  1  0
 14 13  1  0
 13 12  1  0
 12 11  1  0
 11 15  1  1
 15 22  2  0
 22 21  1  0
 21 18  2  0
 19 18  1  0
 20 19  1  0
 18 17  1  0
 17 16  2  0
 16 15  1  0
 11 10  1  0
 10  9  1  0
M  END
>  <smiles>  (99) 
O=C(Cn1cnnc1)N1CCC[C@H](c2ccc(CO)cc2)C1

>  <inchikey>  (99) 
QDVBRKQJPHDTEK-HNNXBMFYSA-N

>  <alias>  (99) 
B0525a

$$$$
B0525b
     RDKit          3D

 22 24  0  0  0  0  0  0  0  0999 V2000
   -1.6740   -4.2090   31.7740 O   0  0  0  0  0  0  0  0  0  0  0  0
   -0.4770   -4.2380   31.9900 C   0  0  0  0  0  0  0  0  0  0  0  0
    0.1550   -5.4440   32.6820 C   0  0  0  0  0  0  0  0  0  0  0  0
   -0.5200   -6.6770   32.2890 N   0  0  0  0  0  0  0  0  0  0  0  0
   -0.5930   -7.2110   31.0530 C   0  0  0  0  0  0  0  0  0  0  0  0
   -1.3580   -8.2690   31.0500 N   0  0  0  0  0  0  0  0  0  0  0  0
   -1.8030   -8.4420   32.3560 N   0  0  0  0  0  0  0  0  0  0  0  0
   -1.2780   -7.4770   33.0630 C   0  0  0  0  0  0  0  0  0  0  0  0
    0.3430   -3.2400   31.6010 N   0  0  0  0  0  0  0  0  0  0  0  0
   -0.2230   -2.0030   31.0610 C   0  0  0  0  0  0  0  0  0  0  0  0
    0.2330   -1.8820   29.6090 C   0  0  2  0  0  0  0  0  0  0  0  0
    1.7550   -1.7230   29.5620 C   0  0  0  0  0  0  0  0  0  0  0  0
    2.3920   -2.0190   30.9190 C   0  0  0  0  0  0  0  0  0  0  0  0
    1.8120   -3.2770   31.5570 C   0  0  0  0  0  0  0  0  0  0  0  0
   -0.5280   -0.7990   28.8700 C   0  0  0  0  0  0  0  0  0  0  0  0
   -1.4390   -1.1330   27.8810 C   0  0  0  0  0  0  0  0  0  0  0  0
   -2.1220   -0.1570   27.1810 C   0  0  0  0  0  0  0  0  0  0  0  0
   -1.9320    1.1860   27.4610 C   0  0  0  0  0  0  0  0  0  0  0  0
   -2.6890    2.2360   26.6880 C   0  0  0  0  0  0  0  0  0  0  0  0
   -2.0360    3.4980   26.6980 O   0  0  0  0  0  0  0  0  0  0  0  0
   -1.0330    1.5220   28.4610 C   0  0  0  0  0  0  0  0  0  0  0  0
   -0.3400    0.5450   29.1530 C   0  0  0  0  0  0  0  0  0  0  0  0
  2  1  2  0
  3  2  1  0
  4  3  1  0
  4  8  1  0
  8  7  2  0
  7  6  1  0
  6  5  2  0
  5  4  1  0
  9  2  1  0
  9 14  1  0
 14 13  1  0
 13 12  1  0
 12 11  1  0
 11 15  1  1
 15 22  2  0
 22 21  1  0
 21 18  2  0
 19 18  1  0
 20 19  1  0
 18 17  1  0
 17 16  2  0
 16 15  1  0
 11 10  1  0
 10  9  1  0
M  END
>  <smiles>  (100) 
O=C(Cn1cnnc1)N1CCC[C@H](c2ccc(CO)cc2)C1

>  <inchikey>  (100) 
QDVBRKQJPHDTEK-HNNXBMFYSA-N

>  <alias>  (100) 
B0525b

$$$$
B0541a
     RDKit          3D

 25 28  0  0  0  0  0  0  0  0999 V2000
   -4.5960   -3.0550    6.1350 O   0  0  0  0  0  0  0  0  0  0  0  0
   -4.7650   -1.6400    6.3050 S   0  0  0  0  0  0  0  0  0  0  0  0
   -4.4490   -0.7840    5.1980 O   0  0  0  0  0  0  0  0  0  0  0  0
   -3.8210   -1.1330    7.6930 C   0  0  0  0  0  0  0  0  0  0  0  0
   -6.4430   -1.3410    6.7770 C   0  0  0  0  0  0  0  0  0  0  0  0
   -7.2510   -2.4050    7.1420 C   0  0  0  0  0  0  0  0  0  0  0  0
   -8.5650   -2.1660    7.4980 C   0  0  0  0  0  0  0  0  0  0  0  0
   -9.0940   -0.8830    7.4810 C   0  0  0  0  0  0  0  0  0  0  0  0
   -8.2640    0.1700    7.1160 C   0  0  0  0  0  0  0  0  0  0  0  0
   -6.9430   -0.0480    6.7630 C   0  0  0  0  0  0  0  0  0  0  0  0
  -10.5500   -0.6640    7.8100 C   0  0  2  0  0  0  0  0  0  0  0  0
  -11.1290    0.1450    6.7790 O   0  0  0  0  0  0  0  0  0  0  0  0
  -12.5650    0.1240    6.8540 C   0  0  0  0  0  0  0  0  0  0  0  0
  -13.0400   -0.0770    8.2770 C   0  0  0  0  0  0  0  0  0  0  0  0
  -12.1060    0.5550    9.2170 N   0  0  0  0  0  0  0  0  0  0  0  0
  -10.7510    0.0010    9.1620 C   0  0  0  0  0  0  0  0  0  0  0  0
  -12.6260    0.9460   10.4510 C   0  0  0  0  0  0  0  0  0  0  0  0
  -12.1560    2.1630   10.9290 N   0  0  0  0  0  0  0  0  0  0  0  0
  -11.2990    3.1020   10.4310 C   0  0  0  0  0  0  0  0  0  0  0  0
  -11.1810    4.1070   11.2540 N   0  0  0  0  0  0  0  0  0  0  0  0
  -11.9870    3.8440   12.3600 N   0  0  0  0  0  0  0  0  0  0  0  0
  -12.5710    2.6710   12.1570 C   0  0  0  0  0  0  0  0  0  0  0  0
  -13.4920    1.9170   12.9230 C   0  0  0  0  0  0  0  0  0  0  0  0
  -13.9580    0.7240   12.4470 C   0  0  0  0  0  0  0  0  0  0  0  0
  -13.5410    0.2170   11.1960 C   0  0  0  0  0  0  0  0  0  0  0  0
  4  2  1  0
  3  2  2  0
  2  1  2  0
  5  2  1  0
  5 10  2  0
 10  9  1  0
  9  8  2  0
 11  8  1  6
 11 16  1  0
 16 15  1  0
 17 15  1  0
 17 25  2  0
 25 24  1  0
 24 23  2  0
 23 22  1  0
 22 21  2  0
 21 20  1  0
 20 19  2  0
 19 18  1  0
 18 17  1  0
 22 18  1  0
 15 14  1  0
 14 13  1  0
 13 12  1  0
 12 11  1  0
  8  7  1  0
  7  6  2  0
  6  5  1  0
M  END
>  <smiles>  (101) 
CS(=O)(=O)c1ccc([C@H]2CN(c3cccc4nncn34)CCO2)cc1

>  <inchikey>  (101) 
GAAWFMASBWHQIA-OAHLLOKOSA-N

>  <alias>  (101) 
B0541a

$$$$
B0691a
     RDKit          3D

 22 25  0  0  0  0  0  0  0  0999 V2000
    2.1190   -7.6800   35.1020 O   0  0  0  0  0  0  0  0  0  0  0  0
    0.9230   -7.1620   35.7050 S   0  0  0  0  0  0  0  0  0  0  0  0
   -0.0540   -8.1010   36.1650 O   0  0  0  0  0  0  0  0  0  0  0  0
    0.2370   -5.8500   34.8320 N   0  0  0  0  0  0  0  0  0  0  0  0
    0.0060   -5.8030   33.4410 C   0  0  0  0  0  0  0  0  0  0  0  0
   -0.8110   -6.7710   32.8610 N   0  0  0  0  0  0  0  0  0  0  0  0
   -1.5910   -7.7620   33.3790 C   0  0  0  0  0  0  0  0  0  0  0  0
   -2.0800   -8.5100   32.4320 N   0  0  0  0  0  0  0  0  0  0  0  0
   -1.6460   -7.9910   31.2170 N   0  0  0  0  0  0  0  0  0  0  0  0
   -0.8850   -6.9440   31.4810 C   0  0  0  0  0  0  0  0  0  0  0  0
   -0.1310   -6.0820   30.6520 C   0  0  0  0  0  0  0  0  0  0  0  0
    0.6360   -5.1000   31.2080 C   0  0  0  0  0  0  0  0  0  0  0  0
    0.7070   -4.9470   32.6090 C   0  0  0  0  0  0  0  0  0  0  0  0
   -0.1050   -4.6060   35.5590 C   0  0  0  0  0  0  0  0  0  0  0  0
    0.3820   -4.8060   36.9890 C   0  0  0  0  0  0  0  0  0  0  0  0
    1.3360   -6.0070   37.0170 C   0  0  1  0  0  0  0  0  0  0  0  0
    1.4160   -6.7990   38.3020 C   0  0  0  0  0  0  0  0  0  0  0  0
    0.2830   -7.0390   39.0740 C   0  0  0  0  0  0  0  0  0  0  0  0
    0.3480   -7.8640   40.1870 C   0  0  0  0  0  0  0  0  0  0  0  0
    1.5440   -8.4600   40.5410 C   0  0  0  0  0  0  0  0  0  0  0  0
    2.6730   -8.2200   39.7930 C   0  0  0  0  0  0  0  0  0  0  0  0
    2.6130   -7.3900   38.6850 C   0  0  0  0  0  0  0  0  0  0  0  0
  3  2  2  0
  2  1  2  0
  2 16  1  0
 16 17  1  1
 17 22  2  0
 22 21  1  0
 21 20  2  0
 20 19  1  0
 19 18  2  0
 18 17  1  0
 16 15  1  0
 15 14  1  0
 14  4  1  0
  4  2  1  0
  5  4  1  0
  5 13  2  0
 13 12  1  0
 12 11  2  0
 11 10  1  0
 10  9  2  0
  9  8  1  0
  8  7  2  0
  7  6  1  0
  6  5  1  0
 10  6  1  0
M  END
>  <smiles>  (102) 
O=S1(=O)[C@H](c2ccccc2)CCN1c1cccc2nncn12

>  <inchikey>  (102) 
YWAUSXIRKVBYLY-ZDUSSCGKSA-N

>  <alias>  (102) 
B0691a

$$$$
B0691b
     RDKit          3D

 22 25  0  0  0  0  0  0  0  0999 V2000
    2.1460   -7.7520   34.9900 O   0  0  0  0  0  0  0  0  0  0  0  0
    1.0180   -7.2060   35.6870 S   0  0  0  0  0  0  0  0  0  0  0  0
    0.0320   -8.1240   36.1700 O   0  0  0  0  0  0  0  0  0  0  0  0
    0.3620   -5.8350   34.9040 N   0  0  0  0  0  0  0  0  0  0  0  0
    0.0920   -5.7260   33.5070 C   0  0  0  0  0  0  0  0  0  0  0  0
   -0.6890   -6.6990   32.8620 N   0  0  0  0  0  0  0  0  0  0  0  0
   -1.4830   -7.7100   33.3280 C   0  0  0  0  0  0  0  0  0  0  0  0
   -1.9830   -8.4080   32.3430 N   0  0  0  0  0  0  0  0  0  0  0  0
   -1.5190   -7.8450   31.1560 N   0  0  0  0  0  0  0  0  0  0  0  0
   -0.7450   -6.8110   31.4760 C   0  0  0  0  0  0  0  0  0  0  0  0
   -0.0010   -5.8870   30.6950 C   0  0  0  0  0  0  0  0  0  0  0  0
    0.7300   -4.9040   31.3110 C   0  0  0  0  0  0  0  0  0  0  0  0
    0.7790   -4.8010   32.7270 C   0  0  0  0  0  0  0  0  0  0  0  0
    0.1870   -4.6050   35.7290 C   0  0  0  0  0  0  0  0  0  0  0  0
    0.4480   -5.0840   37.1510 C   0  0  0  0  0  0  0  0  0  0  0  0
    1.5400   -6.1490   37.0270 C   0  0  1  0  0  0  0  0  0  0  0  0
    1.8410   -7.0700   38.1870 C   0  0  0  0  0  0  0  0  0  0  0  0
    0.9140   -7.2950   39.1950 C   0  0  0  0  0  0  0  0  0  0  0  0
    1.1670   -8.2160   40.1990 C   0  0  0  0  0  0  0  0  0  0  0  0
    2.3510   -8.9180   40.2120 C   0  0  0  0  0  0  0  0  0  0  0  0
    3.2870   -8.6990   39.2220 C   0  0  0  0  0  0  0  0  0  0  0  0
    3.0350   -7.7790   38.2170 C   0  0  0  0  0  0  0  0  0  0  0  0
  3  2  2  0
  2  1  2  0
  2 16  1  0
 16 17  1  1
 17 22  2  0
 22 21  1  0
 21 20  2  0
 20 19  1  0
 19 18  2  0
 18 17  1  0
 16 15  1  0
 15 14  1  0
 14  4  1  0
  4  2  1  0
  5  4  1  0
  5 13  2  0
 13 12  1  0
 12 11  2  0
 11 10  1  0
 10  9  2  0
  9  8  1  0
  8  7  2  0
  7  6  1  0
  6  5  1  0
 10  6  1  0
M  END
>  <smiles>  (103) 
O=S1(=O)[C@H](c2ccccc2)CCN1c1cccc2nncn12

>  <inchikey>  (103) 
YWAUSXIRKVBYLY-ZDUSSCGKSA-N

>  <alias>  (103) 
B0691b

$$$$
B0693a
     RDKit          3D

 19 21  0  0  0  0  0  0  0  0999 V2000
   17.4940   -3.0830   17.8160 O   0  0  0  0  0  0  0  0  0  0  0  0
   17.3140   -2.0280   17.2140 C   0  0  0  0  0  0  0  0  0  0  0  0
   18.4550   -1.0550   16.9970 C   0  0  0  0  0  0  0  0  0  0  0  0
   19.0720   -1.2150   15.6030 C   0  0  0  0  0  0  0  0  0  0  0  0
   19.3110   -0.1810   14.7750 N   0  0  0  0  0  0  0  0  0  0  0  0
   19.8690   -0.6060   13.6070 N   0  0  0  0  0  0  0  0  0  0  0  0
   19.9730   -1.9230   13.7260 C   0  0  0  0  0  0  0  0  0  0  0  0
   19.4820   -2.3530   14.9560 C   0  0  0  0  0  0  0  0  0  0  0  0
   16.1210   -1.6420   16.6960 N   0  0  0  0  0  0  0  0  0  0  0  0
   14.9000   -2.3670   16.6170 C   0  0  0  0  0  0  0  0  0  0  0  0
   14.0730   -2.1740   15.4900 C   0  0  0  0  0  0  0  0  0  0  0  0
   14.5210   -1.2830   14.3520 C   0  0  0  0  0  0  0  0  0  0  0  0
   13.6630   -1.4840   13.1250 C   0  0  0  0  0  0  0  0  0  0  0  0
   12.2360   -1.4840   13.4620 N   0  0  0  0  0  0  0  0  0  0  0  0
   11.9040   -2.6540   14.2750 C   0  0  0  0  0  0  0  0  0  0  0  0
   12.8300   -2.8240   15.4520 C   0  0  0  0  0  0  0  0  0  0  0  0
   12.4430   -3.6380   16.5140 C   0  0  0  0  0  0  0  0  0  0  0  0
   13.2710   -3.8260   17.6050 C   0  0  0  0  0  0  0  0  0  0  0  0
   14.5030   -3.1980   17.6640 C   0  0  0  0  0  0  0  0  0  0  0  0
  2  1  2  0
  3  2  1  0
  4  3  1  0
  4  8  2  0
  8  7  1  0
  7  6  2  0
  6  5  1  0
  5  4  1  0
  9  2  1  0
 10  9  1  0
 10 19  1  0
 19 18  2  0
 18 17  1  0
 17 16  2  0
 16 11  1  0
 11 10  2  0
 12 11  1  0
 13 12  1  0
 14 13  1  0
 15 14  1  0
 16 15  1  0
M  END
>  <smiles>  (104) 
O=C(Cc1ccn[nH]1)Nc1cccc2c1CCNC2

>  <inchikey>  (104) 
XMHWMSYQYNZKGG-UHFFFAOYSA-N

>  <alias>  (104) 
B0693a

$$$$
B0723a
     RDKit          3D

 23 26  0  0  0  0  0  0  0  0999 V2000
   -0.5760    3.3830   27.4750 C   0  0  0  0  0  0  0  0  0  0  0  0
   -1.6700    3.6290   26.6710 C   0  0  0  0  0  0  0  0  0  0  0  0
   -0.3360    2.1050   27.9570 C   0  0  0  0  0  0  0  0  0  0  0  0
   -1.1960    1.0560   27.6360 C   0  0  0  0  0  0  0  0  0  0  0  0
   -2.2980    1.3180   26.8230 C   0  0  0  0  0  0  0  0  0  0  0  0
   -2.5350    2.5990   26.3530 C   0  0  0  0  0  0  0  0  0  0  0  0
   -0.9960   -0.2950   28.1940 C   0  0  0  0  0  0  0  0  0  0  0  0
    0.1960   -0.8140   28.6280 N   0  0  0  0  0  0  0  0  0  0  0  0
    0.0660   -2.1540   28.8290 C   0  0  0  0  0  0  0  0  0  0  0  0
   -1.1810   -2.4710   28.5090 N   0  0  0  0  0  0  0  0  0  0  0  0
   -1.8400   -1.3080   28.1090 N   0  0  0  0  0  0  0  0  0  0  0  0
    1.0920   -3.1420   29.3600 C   0  0  0  0  0  0  0  0  0  0  0  0
    0.3930   -4.0420   30.3020 N   0  0  0  0  0  0  0  0  0  0  0  0
    1.2550   -4.9300   31.0930 C   0  0  0  0  0  0  0  0  0  0  0  0
    0.5310   -5.6110   32.2120 C   0  0  0  0  0  0  0  0  0  0  0  0
   -0.3630   -6.6580   31.9050 N   0  0  0  0  0  0  0  0  0  0  0  0
   -0.7490   -7.2230   30.7210 C   0  0  0  0  0  0  0  0  0  0  0  0
   -1.5790   -8.2070   30.9230 N   0  0  0  0  0  0  0  0  0  0  0  0
   -1.7730   -8.3220   32.2980 N   0  0  0  0  0  0  0  0  0  0  0  0
   -1.0260   -7.3900   32.8840 C   0  0  0  0  0  0  0  0  0  0  0  0
   -0.7780   -7.0730   34.2440 C   0  0  0  0  0  0  0  0  0  0  0  0
    0.0940   -6.0600   34.5500 C   0  0  0  0  0  0  0  0  0  0  0  0
    0.7430   -5.3220   33.5250 C   0  0  0  0  0  0  0  0  0  0  0  0
  2  6  2  0
  6  5  1  0
  5  4  2  0
  7  4  1  0
  7 11  2  0
 11 10  1  0
 10  9  2  0
 12  9  1  0
 13 12  1  0
 14 13  1  0
 15 14  1  0
 15 23  2  0
 23 22  1  0
 22 21  2  0
 21 20  1  0
 20 19  2  0
 19 18  1  0
 18 17  2  0
 17 16  1  0
 16 15  1  0
 20 16  1  0
  9  8  1  0
  8  7  1  0
  4  3  1  0
  3  1  2  0
  2  1  1  0
M  END
>  <smiles>  (105) 
c1ccc(-c2nnc(CNCc3cccc4nncn34)[nH]2)cc1

>  <inchikey>  (105) 
XEHZOMCBCLBNAD-UHFFFAOYSA-N

>  <alias>  (105) 
B0723a

$$$$
B0738a
     RDKit          3D

 20 23  0  0  0  0  0  0  0  0999 V2000
    4.1120   -8.8390   38.4740 C   0  0  0  0  0  0  0  0  0  0  0  0
    5.0820   -9.7550   38.9290 C   0  0  0  0  0  0  0  0  0  0  0  0
    4.1590   -8.8360   37.0830 C   0  0  0  0  0  0  0  0  0  0  0  0
    5.1460   -9.7160   36.7120 N   0  0  0  0  0  0  0  0  0  0  0  0
    5.7020  -10.2780   37.8250 C   0  0  0  0  0  0  0  0  0  0  0  0
    3.3220   -8.1590   36.1530 C   0  0  0  0  0  0  0  0  0  0  0  0
    2.3260   -7.3770   36.6780 O   0  0  0  0  0  0  0  0  0  0  0  0
    1.6840   -6.9580   35.5550 C   0  0  0  0  0  0  0  0  0  0  0  0
    2.2080   -7.4170   34.4740 N   0  0  0  0  0  0  0  0  0  0  0  0
    3.2940   -8.2030   34.8670 N   0  0  0  0  0  0  0  0  0  0  0  0
    0.3100   -5.8750   35.5970 S   0  0  0  0  0  0  0  0  0  0  0  0
    0.2650   -5.7560   33.8330 C   0  0  0  0  0  0  0  0  0  0  0  0
   -0.4510   -6.7130   33.0920 N   0  0  0  0  0  0  0  0  0  0  0  0
   -1.3210   -7.7070   33.4480 C   0  0  0  0  0  0  0  0  0  0  0  0
   -1.7730   -8.3330   32.3950 N   0  0  0  0  0  0  0  0  0  0  0  0
   -1.1830   -7.7480   31.2710 N   0  0  0  0  0  0  0  0  0  0  0  0
   -0.3950   -6.7660   31.7000 C   0  0  0  0  0  0  0  0  0  0  0  0
    0.3980   -5.8040   31.0250 C   0  0  0  0  0  0  0  0  0  0  0  0
    1.0650   -4.8500   31.7500 C   0  0  0  0  0  0  0  0  0  0  0  0
    0.9950   -4.8230   33.1710 C   0  0  0  0  0  0  0  0  0  0  0  0
  2  5  2  0
  5  4  1  0
  4  3  1  0
  6  3  1  0
  6 10  2  0
 10  9  1  0
  9  8  2  0
 11  8  1  0
 12 11  1  0
 12 20  2  0
 20 19  1  0
 19 18  2  0
 18 17  1  0
 17 16  2  0
 16 15  1  0
 15 14  2  0
 14 13  1  0
 13 12  1  0
 17 13  1  0
  8  7  1  0
  7  6  1  0
  3  1  2  0
  2  1  1  0
M  END
>  <smiles>  (106) 
c1c[nH]c(-c2nnc(Sc3cccc4nncn34)o2)c1

>  <inchikey>  (106) 
LJMUUEZBPOHHNK-UHFFFAOYSA-N

>  <alias>  (106) 
B0738a

$$$$
B0738b
     RDKit          3D

 20 23  0  0  0  0  0  0  0  0999 V2000
    3.9080   -7.9920   38.2630 C   0  0  0  0  0  0  0  0  0  0  0  0
    4.9990   -8.6950   38.7480 C   0  0  0  0  0  0  0  0  0  0  0  0
    3.8160   -8.2500   36.9020 C   0  0  0  0  0  0  0  0  0  0  0  0
    4.8440   -9.0930   36.5760 N   0  0  0  0  0  0  0  0  0  0  0  0
    5.5600   -9.3720   37.6880 C   0  0  0  0  0  0  0  0  0  0  0  0
    2.9340   -7.8100   36.0230 C   0  0  0  0  0  0  0  0  0  0  0  0
    1.9740   -6.9710   36.4960 O   0  0  0  0  0  0  0  0  0  0  0  0
    1.2680   -6.7060   35.3700 C   0  0  0  0  0  0  0  0  0  0  0  0
    1.7280   -7.3110   34.3320 N   0  0  0  0  0  0  0  0  0  0  0  0
    2.8280   -8.0370   34.7630 N   0  0  0  0  0  0  0  0  0  0  0  0
   -0.0700   -5.6440   35.3280 S   0  0  0  0  0  0  0  0  0  0  0  0
    0.0110   -5.8040   33.5900 C   0  0  0  0  0  0  0  0  0  0  0  0
   -0.7510   -6.8030   32.9770 N   0  0  0  0  0  0  0  0  0  0  0  0
   -1.6380   -7.7250   33.4510 C   0  0  0  0  0  0  0  0  0  0  0  0
   -2.0950   -8.4710   32.4830 N   0  0  0  0  0  0  0  0  0  0  0  0
   -1.4990   -8.0380   31.2980 N   0  0  0  0  0  0  0  0  0  0  0  0
   -0.6860   -7.0370   31.6050 C   0  0  0  0  0  0  0  0  0  0  0  0
    0.1920   -6.2360   30.8280 C   0  0  0  0  0  0  0  0  0  0  0  0
    0.9310   -5.2630   31.4360 C   0  0  0  0  0  0  0  0  0  0  0  0
    0.8340   -5.0370   32.8320 C   0  0  0  0  0  0  0  0  0  0  0  0
  2  5  2  0
  5  4  1  0
  4  3  1  0
  6  3  1  0
  6 10  2  0
 10  9  1  0
  9  8  2  0
 11  8  1  0
 12 11  1  0
 12 20  2  0
 20 19  1  0
 19 18  2  0
 18 17  1  0
 17 16  2  0
 16 15  1  0
 15 14  2  0
 14 13  1  0
 13 12  1  0
 17 13  1  0
  8  7  1  0
  7  6  1  0
  3  1  2  0
  2  1  1  0
M  END
>  <smiles>  (107) 
c1c[nH]c(-c2nnc(Sc3cccc4nncn34)o2)c1

>  <inchikey>  (107) 
LJMUUEZBPOHHNK-UHFFFAOYSA-N

>  <alias>  (107) 
B0738b

$$$$
B0742a
     RDKit          3D

 21 24  0  0  0  0  0  0  0  0999 V2000
   -1.7590   -6.0370   41.1640 C   0  0  0  0  0  0  0  0  0  0  0  0
   -1.0630   -7.1140   41.6710 C   0  0  0  0  0  0  0  0  0  0  0  0
   -1.5930   -5.6560   39.8390 C   0  0  0  0  0  0  0  0  0  0  0  0
   -0.7310   -6.3620   39.0060 C   0  0  0  0  0  0  0  0  0  0  0  0
   -0.0240   -7.4410   39.5330 C   0  0  0  0  0  0  0  0  0  0  0  0
   -0.1930   -7.8100   40.8580 C   0  0  0  0  0  0  0  0  0  0  0  0
   -0.6160   -6.0220   37.5750 C   0  0  0  0  0  0  0  0  0  0  0  0
    0.3190   -6.5670   36.7340 N   0  0  0  0  0  0  0  0  0  0  0  0
    0.0160   -6.0940   35.5100 C   0  0  0  0  0  0  0  0  0  0  0  0
   -1.0230   -5.2780   35.5590 N   0  0  0  0  0  0  0  0  0  0  0  0
   -1.4300   -5.2280   36.8940 N   0  0  0  0  0  0  0  0  0  0  0  0
    0.7350   -6.4710   34.4190 N   0  0  0  0  0  0  0  0  0  0  0  0
    0.4600   -6.0450   33.1220 C   0  0  0  0  0  0  0  0  0  0  0  0
   -0.4440   -6.8590   32.4600 N   0  0  0  0  0  0  0  0  0  0  0  0
   -1.2640   -7.8670   32.8800 C   0  0  0  0  0  0  0  0  0  0  0  0
   -1.9410   -8.3620   31.8840 N   0  0  0  0  0  0  0  0  0  0  0  0
   -1.5750   -7.6570   30.7370 N   0  0  0  0  0  0  0  0  0  0  0  0
   -0.6760   -6.7470   31.0970 C   0  0  0  0  0  0  0  0  0  0  0  0
    0.0190   -5.7430   30.3810 C   0  0  0  0  0  0  0  0  0  0  0  0
    0.8810   -4.9090   31.0380 C   0  0  0  0  0  0  0  0  0  0  0  0
    1.1110   -5.0390   32.4230 C   0  0  0  0  0  0  0  0  0  0  0  0
  2  6  2  0
  6  5  1  0
  5  4  2  0
  7  4  1  0
  7 11  2  0
 11 10  1  0
 10  9  2  0
 12  9  1  0
 13 12  1  0
 13 21  2  0
 21 20  1  0
 20 19  2  0
 19 18  1  0
 18 17  2  0
 17 16  1  0
 16 15  2  0
 15 14  1  0
 14 13  1  0
 18 14  1  0
  9  8  1  0
  8  7  1  0
  4  3  1  0
  3  1  2  0
  2  1  1  0
M  END
>  <smiles>  (108) 
c1ccc(-c2nnc(Nc3cccc4nncn34)[nH]2)cc1

>  <inchikey>  (108) 
DNEHZXPFMONSEW-UHFFFAOYSA-N

>  <alias>  (108) 
B0742a

$$$$
B0805a
     RDKit          3D

 23 26  0  0  0  0  0  0  0  0999 V2000
   -0.1940   -7.7970   36.4630 O   0  0  0  0  0  0  0  0  0  0  0  0
    0.9180   -7.1310   35.8520 S   0  0  0  0  0  0  0  0  0  0  0  0
    1.8360   -7.9180   35.0820 O   0  0  0  0  0  0  0  0  0  0  0  0
    0.3130   -5.9250   34.9060 N   0  0  0  0  0  0  0  0  0  0  0  0
    0.2210   -5.8950   33.5010 C   0  0  0  0  0  0  0  0  0  0  0  0
   -0.6450   -6.8080   32.8890 N   0  0  0  0  0  0  0  0  0  0  0  0
   -1.5210   -7.7320   33.3870 C   0  0  0  0  0  0  0  0  0  0  0  0
   -2.1020   -8.3910   32.4210 N   0  0  0  0  0  0  0  0  0  0  0  0
   -1.6050   -7.8950   31.2150 N   0  0  0  0  0  0  0  0  0  0  0  0
   -0.7340   -6.9350   31.5080 C   0  0  0  0  0  0  0  0  0  0  0  0
    0.0680   -6.0860   30.7040 C   0  0  0  0  0  0  0  0  0  0  0  0
    0.8940   -5.1740   31.2930 C   0  0  0  0  0  0  0  0  0  0  0  0
    0.9860   -5.0630   32.7010 C   0  0  0  0  0  0  0  0  0  0  0  0
   -0.2880   -4.7850   35.6450 C   0  0  0  0  0  0  0  0  0  0  0  0
    0.6470   -4.1780   36.6590 C   0  0  0  0  0  0  0  0  0  0  0  0
    1.0000   -5.1980   37.7330 C   0  0  0  0  0  0  0  0  0  0  0  0
    1.8550   -6.3150   37.1350 C   0  0  1  0  0  0  0  0  0  0  0  0
    2.3290   -7.3490   38.1320 C   0  0  0  0  0  0  0  0  0  0  0  0
    1.4390   -7.9880   38.9850 C   0  0  0  0  0  0  0  0  0  0  0  0
    1.8720   -8.9950   39.8350 C   0  0  0  0  0  0  0  0  0  0  0  0
    3.1970   -9.3630   39.8530 C   0  0  0  0  0  0  0  0  0  0  0  0
    4.0920   -8.7310   39.0190 C   0  0  0  0  0  0  0  0  0  0  0  0
    3.6630   -7.7250   38.1670 C   0  0  0  0  0  0  0  0  0  0  0  0
  3  2  2  0
  2  1  2  0
  2 17  1  0
 17 18  1  1
 18 23  2  0
 23 22  1  0
 22 21  2  0
 21 20  1  0
 20 19  2  0
 19 18  1  0
 17 16  1  0
 16 15  1  0
 15 14  1  0
 14  4  1  0
  4  2  1  0
  5  4  1  0
  5 13  2  0
 13 12  1  0
 12 11  2  0
 11 10  1  0
 10  9  2  0
  9  8  1  0
  8  7  2  0
  7  6  1  0
  6  5  1  0
 10  6  1  0
M  END
>  <smiles>  (109) 
O=S1(=O)[C@H](c2ccccc2)CCCN1c1cccc2nncn12

>  <inchikey>  (109) 
DPLORBPGZRNKJU-AWEZNQCLSA-N

>  <alias>  (109) 
B0805a

$$$$
B0805b
     RDKit          3D

 23 26  0  0  0  0  0  0  0  0999 V2000
   -0.7120   -7.2680   36.4320 O   0  0  0  0  0  0  0  0  0  0  0  0
    0.5190   -6.8160   35.8600 S   0  0  0  0  0  0  0  0  0  0  0  0
    1.3970   -7.7870   35.2780 O   0  0  0  0  0  0  0  0  0  0  0  0
    0.1370   -5.7240   34.7050 N   0  0  0  0  0  0  0  0  0  0  0  0
    0.2560   -5.9220   33.3370 C   0  0  0  0  0  0  0  0  0  0  0  0
   -0.5910   -6.8520   32.7630 N   0  0  0  0  0  0  0  0  0  0  0  0
   -1.5150   -7.7110   33.2820 C   0  0  0  0  0  0  0  0  0  0  0  0
   -2.0540   -8.4330   32.3440 N   0  0  0  0  0  0  0  0  0  0  0  0
   -1.4830   -8.0420   31.1340 N   0  0  0  0  0  0  0  0  0  0  0  0
   -0.5970   -7.0980   31.3980 C   0  0  0  0  0  0  0  0  0  0  0  0
    0.3140   -6.3860   30.5890 C   0  0  0  0  0  0  0  0  0  0  0  0
    1.1610   -5.4730   31.1550 C   0  0  0  0  0  0  0  0  0  0  0  0
    1.1420   -5.2200   32.5500 C   0  0  0  0  0  0  0  0  0  0  0  0
   -0.3950   -4.4190   35.1830 C   0  0  0  0  0  0  0  0  0  0  0  0
   -0.5250   -4.3160   36.6860 C   0  0  0  0  0  0  0  0  0  0  0  0
    0.8300   -4.5060   37.3600 C   0  0  0  0  0  0  0  0  0  0  0  0
    1.4420   -5.8860   37.0810 C   0  0  1  0  0  0  0  0  0  0  0  0
    1.5860   -6.7470   38.3160 C   0  0  0  0  0  0  0  0  0  0  0  0
    2.7510   -7.4710   38.5360 C   0  0  0  0  0  0  0  0  0  0  0  0
    2.8770   -8.2870   39.6520 C   0  0  0  0  0  0  0  0  0  0  0  0
    1.8450   -8.3850   40.5620 C   0  0  0  0  0  0  0  0  0  0  0  0
    0.6840   -7.6640   40.3600 C   0  0  0  0  0  0  0  0  0  0  0  0
    0.5550   -6.8510   39.2420 C   0  0  0  0  0  0  0  0  0  0  0  0
  3  2  2  0
  2  1  2  0
  2 17  1  0
 17 18  1  1
 18 23  2  0
 23 22  1  0
 22 21  2  0
 21 20  1  0
 20 19  2  0
 19 18  1  0
 17 16  1  0
 16 15  1  0
 15 14  1  0
 14  4  1  0
  4  2  1  0
  5  4  1  0
  5 13  2  0
 13 12  1  0
 12 11  2  0
 11 10  1  0
 10  9  2  0
  9  8  1  0
  8  7  2  0
  7  6  1  0
  6  5  1  0
 10  6  1  0
M  END
>  <smiles>  (110) 
O=S1(=O)[C@H](c2ccccc2)CCCN1c1cccc2nncn12

>  <inchikey>  (110) 
DPLORBPGZRNKJU-AWEZNQCLSA-N

>  <alias>  (110) 
B0805b

$$$$
B0839a
     RDKit          3D

 21 23  0  0  0  0  0  0  0  0999 V2000
    7.9110  -10.0450   26.5630 O   0  0  0  0  0  0  0  0  0  0  0  0
    7.4740   -8.8980   26.5280 C   0  0  0  0  0  0  0  0  0  0  0  0
    7.0210   -8.3530   25.3500 N   0  0  0  0  0  0  0  0  0  0  0  0
    6.5350   -7.0900   25.2050 C   0  0  0  0  0  0  0  0  0  0  0  0
    7.4130   -8.0020   27.7050 C   0  0  0  0  0  0  0  0  0  0  0  0
    6.9130   -6.6930   27.5790 C   0  0  0  0  0  0  0  0  0  0  0  0
    6.9100   -5.8500   28.6910 C   0  0  0  0  0  0  0  0  0  0  0  0
    7.4040   -6.2970   29.9070 C   0  0  0  0  0  0  0  0  0  0  0  0
    7.8970   -7.5790   30.0290 C   0  0  0  0  0  0  0  0  0  0  0  0
    7.8990   -8.4370   28.9390 C   0  0  0  0  0  0  0  0  0  0  0  0
    6.4500   -6.2480   26.2570 C   0  0  0  0  0  0  0  0  0  0  0  0
    5.8990   -5.0000   26.1320 N   0  0  0  0  0  0  0  0  0  0  0  0
    4.5660   -4.7800   26.3480 C   0  0  0  0  0  0  0  0  0  0  0  0
    3.7730   -5.6770   26.6460 O   0  0  0  0  0  0  0  0  0  0  0  0
    4.1400   -3.3690   26.1850 C   0  0  0  0  0  0  0  0  0  0  0  0
    5.0770   -2.3610   26.0440 N   0  0  0  0  0  0  0  0  0  0  0  0
    4.3700   -1.2980   25.9250 C   0  0  0  0  0  0  0  0  0  0  0  0
    3.0290   -1.4910   25.9760 O   0  0  0  0  0  0  0  0  0  0  0  0
    2.8980   -2.8450   26.1470 C   0  0  0  0  0  0  0  0  0  0  0  0
    1.5190   -3.3820   26.2410 C   0  0  0  0  0  0  0  0  0  0  0  0
    0.9490   -3.7130   24.9570 N   0  0  0  0  0  0  0  0  0  0  0  0
 21 20  1  0
 20 19  1  0
 19 18  1  0
 18 17  1  0
 17 16  2  0
 16 15  1  0
 19 15  2  0
 15 13  1  0
 14 13  2  0
 13 12  1  0
 12 11  1  0
 11  4  2  0
  4  3  1  0
  3  2  1  0
  2  1  2  0
  5  2  1  0
  5 10  2  0
 10  9  1  0
  9  8  2  0
  8  7  1  0
  7  6  2  0
 11  6  1  0
  6  5  1  0
M  END
>  <smiles>  (111) 
NCc1ocnc1C(=O)Nc1c[nH]c(=O)c2ccccc12

>  <inchikey>  (111) 
NJGXKVVNPAPYKZ-UHFFFAOYSA-N

>  <alias>  (111) 
B0839a

$$$$
B0839b
     RDKit          3D

 21 23  0  0  0  0  0  0  0  0999 V2000
    7.8340  -10.4360   26.4370 O   0  0  0  0  0  0  0  0  0  0  0  0
    7.4740   -9.2620   26.4410 C   0  0  0  0  0  0  0  0  0  0  0  0
    7.0790   -8.6400   25.2800 N   0  0  0  0  0  0  0  0  0  0  0  0
    6.6820   -7.3410   25.1810 C   0  0  0  0  0  0  0  0  0  0  0  0
    7.4400   -8.4160   27.6530 C   0  0  0  0  0  0  0  0  0  0  0  0
    7.0500   -7.0680   27.5720 C   0  0  0  0  0  0  0  0  0  0  0  0
    7.0470   -6.2850   28.7290 C   0  0  0  0  0  0  0  0  0  0  0  0
    7.4160   -6.8350   29.9440 C   0  0  0  0  0  0  0  0  0  0  0  0
    7.7840   -8.1610   30.0260 C   0  0  0  0  0  0  0  0  0  0  0  0
    7.7990   -8.9550   28.8910 C   0  0  0  0  0  0  0  0  0  0  0  0
    6.6520   -6.5330   26.2620 C   0  0  0  0  0  0  0  0  0  0  0  0
    6.2600   -5.2150   26.1910 N   0  0  0  0  0  0  0  0  0  0  0  0
    4.9550   -4.7960   26.2250 C   0  0  0  0  0  0  0  0  0  0  0  0
    3.9950   -5.5700   26.2520 O   0  0  0  0  0  0  0  0  0  0  0  0
    4.7740   -3.3220   26.1860 C   0  0  0  0  0  0  0  0  0  0  0  0
    3.7280   -2.7660   25.4690 N   0  0  0  0  0  0  0  0  0  0  0  0
    3.8230   -1.5110   25.7080 C   0  0  0  0  0  0  0  0  0  0  0  0
    4.8500   -1.1550   26.5190 O   0  0  0  0  0  0  0  0  0  0  0  0
    5.4590   -2.3470   26.8200 C   0  0  0  0  0  0  0  0  0  0  0  0
    6.6360   -2.2750   27.7260 C   0  0  0  0  0  0  0  0  0  0  0  0
    6.2940   -2.1790   29.1340 N   0  0  0  0  0  0  0  0  0  0  0  0
 21 20  1  0
 20 19  1  0
 19 18  1  0
 18 17  1  0
 17 16  2  0
 16 15  1  0
 19 15  2  0
 15 13  1  0
 14 13  2  0
 13 12  1  0
 12 11  1  0
 11  4  2  0
  4  3  1  0
  3  2  1  0
  2  1  2  0
  5  2  1  0
  5 10  2  0
 10  9  1  0
  9  8  2  0
  8  7  1  0
  7  6  2  0
 11  6  1  0
  6  5  1  0
M  END
>  <smiles>  (112) 
NCc1ocnc1C(=O)Nc1c[nH]c(=O)c2ccccc12

>  <inchikey>  (112) 
NJGXKVVNPAPYKZ-UHFFFAOYSA-N

>  <alias>  (112) 
B0839b

$$$$
B0857a
     RDKit          3D

 16 18  0  0  0  0  0  0  0  0999 V2000
   -1.4260   -7.5370   34.6910 N   0  0  0  0  0  0  0  0  0  0  0  0
   -1.2750   -7.5410   33.3600 C   0  0  0  0  0  0  0  0  0  0  0  0
   -0.4460   -6.6370   32.7090 N   0  0  0  0  0  0  0  0  0  0  0  0
   -0.6170   -6.9420   31.3600 C   0  0  0  0  0  0  0  0  0  0  0  0
   -1.4670   -7.9530   31.2080 N   0  0  0  0  0  0  0  0  0  0  0  0
   -1.8850   -8.3320   32.4860 N   0  0  0  0  0  0  0  0  0  0  0  0
    0.3770   -5.6110   33.1320 C   0  0  0  0  0  0  0  0  0  0  0  0
    1.0510   -4.8470   32.2340 C   0  0  0  0  0  0  0  0  0  0  0  0
    0.8690   -5.1460   30.8370 C   0  0  0  0  0  0  0  0  0  0  0  0
    0.0720   -6.1530   30.4100 C   0  0  0  0  0  0  0  0  0  0  0  0
    1.9720   -3.7700   32.6570 C   0  0  0  0  0  0  0  0  0  0  0  0
    3.1550   -3.7110   32.0240 N   0  0  0  0  0  0  0  0  0  0  0  0
    3.9980   -2.7450   32.4160 C   0  0  0  0  0  0  0  0  0  0  0  0
    3.6730   -1.8540   33.4210 C   0  0  0  0  0  0  0  0  0  0  0  0
    2.4960   -1.9090   34.0530 N   0  0  0  0  0  0  0  0  0  0  0  0
    1.6500   -2.8680   33.6660 C   0  0  0  0  0  0  0  0  0  0  0  0
  2  1  1  0
  2  6  2  0
  6  5  1  0
  5  4  2  0
  4 10  1  0
 10  9  2  0
  9  8  1  0
 11  8  1  0
 11 16  2  0
 16 15  1  0
 15 14  2  0
 14 13  1  0
 13 12  2  0
 12 11  1  0
  8  7  2  0
  7  3  1  0
  3  2  1  0
  4  3  1  0
M  END
>  <smiles>  (113) 
Nc1nnc2ccc(-c3cnccn3)cn12

>  <inchikey>  (113) 
UMISTZPDVYVABX-UHFFFAOYSA-N

>  <alias>  (113) 
B0857a

$$$$
B0857b
     RDKit          3D

 16 18  0  0  0  0  0  0  0  0999 V2000
   -1.5630   -7.4920   34.6390 N   0  0  0  0  0  0  0  0  0  0  0  0
   -1.3700   -7.5900   33.3240 C   0  0  0  0  0  0  0  0  0  0  0  0
   -0.4960   -6.7620   32.6410 N   0  0  0  0  0  0  0  0  0  0  0  0
   -0.5810   -7.1980   31.3210 C   0  0  0  0  0  0  0  0  0  0  0  0
   -1.4410   -8.2030   31.2140 N   0  0  0  0  0  0  0  0  0  0  0  0
   -1.9450   -8.4510   32.4930 N   0  0  0  0  0  0  0  0  0  0  0  0
    0.2920   -5.6920   33.0120 C   0  0  0  0  0  0  0  0  0  0  0  0
    1.0060   -4.9960   32.0890 C   0  0  0  0  0  0  0  0  0  0  0  0
    0.9420   -5.4600   30.7220 C   0  0  0  0  0  0  0  0  0  0  0  0
    0.1880   -6.5200   30.3490 C   0  0  0  0  0  0  0  0  0  0  0  0
    1.7560   -3.7610   32.4450 C   0  0  0  0  0  0  0  0  0  0  0  0
    2.6920   -3.3580   31.5720 N   0  0  0  0  0  0  0  0  0  0  0  0
    3.3170   -2.2030   31.8480 C   0  0  0  0  0  0  0  0  0  0  0  0
    3.0250   -1.4650   32.9760 C   0  0  0  0  0  0  0  0  0  0  0  0
    2.1060   -1.8670   33.8580 N   0  0  0  0  0  0  0  0  0  0  0  0
    1.4740   -3.0150   33.5870 C   0  0  0  0  0  0  0  0  0  0  0  0
  2  1  1  0
  2  6  2  0
  6  5  1  0
  5  4  2  0
  4 10  1  0
 10  9  2  0
  9  8  1  0
 11  8  1  0
 11 16  2  0
 16 15  1  0
 15 14  2  0
 14 13  1  0
 13 12  2  0
 12 11  1  0
  8  7  2  0
  7  3  1  0
  3  2  1  0
  4  3  1  0
M  END
>  <smiles>  (114) 
Nc1nnc2ccc(-c3cnccn3)cn12

>  <inchikey>  (114) 
UMISTZPDVYVABX-UHFFFAOYSA-N

>  <alias>  (114) 
B0857b

$$$$
B0875a
     RDKit          3D

 18 20  0  0  0  0  0  0  0  0999 V2000
    0.4630   -7.3520   35.6810 O   0  0  0  0  0  0  0  0  0  0  0  0
   -0.1670   -6.3260   35.9050 C   0  0  0  0  0  0  0  0  0  0  0  0
   -0.3500   -5.8550   37.2020 N   0  0  0  0  0  0  0  0  0  0  0  0
   -0.0960   -6.5820   38.3780 C   0  0  0  0  0  0  0  0  0  0  0  0
   -0.5760   -6.3550   39.6380 C   0  0  0  0  0  0  0  0  0  0  0  0
   -0.0940   -7.3190   40.4290 N   0  0  0  0  0  0  0  0  0  0  0  0
    0.6910   -8.1750   39.7420 N   0  0  0  0  0  0  0  0  0  0  0  0
    0.6990   -7.7280   38.4930 C   0  0  0  0  0  0  0  0  0  0  0  0
   -0.2820   -5.3690   34.9120 N   0  0  0  0  0  0  0  0  0  0  0  0
   -0.0810   -5.6760   33.5660 C   0  0  0  0  0  0  0  0  0  0  0  0
   -0.8520   -6.6970   32.9730 N   0  0  0  0  0  0  0  0  0  0  0  0
   -1.7600   -7.5860   33.4760 C   0  0  0  0  0  0  0  0  0  0  0  0
   -2.1530   -8.4200   32.5580 N   0  0  0  0  0  0  0  0  0  0  0  0
   -1.5040   -8.0830   31.3730 N   0  0  0  0  0  0  0  0  0  0  0  0
   -0.7240   -7.0400   31.6320 C   0  0  0  0  0  0  0  0  0  0  0  0
    0.2020   -6.3160   30.8390 C   0  0  0  0  0  0  0  0  0  0  0  0
    0.9580   -5.3230   31.4060 C   0  0  0  0  0  0  0  0  0  0  0  0
    0.8350   -4.9980   32.7770 C   0  0  0  0  0  0  0  0  0  0  0  0
  2  1  2  0
  3  2  1  0
  4  3  1  0
  4  8  1  0
  8  7  2  0
  7  6  1  0
  6  5  1  0
  5  4  2  0
  9  2  1  0
 10  9  1  0
 10 18  2  0
 18 17  1  0
 17 16  2  0
 16 15  1  0
 15 14  2  0
 14 13  1  0
 13 12  2  0
 12 11  1  0
 11 10  1  0
 15 11  1  0
M  END
>  <smiles>  (115) 
O=C(Nc1cn[nH]c1)Nc1cccc2nncn12

>  <inchikey>  (115) 
JRIYYXNYNZMFKZ-UHFFFAOYSA-N

>  <alias>  (115) 
B0875a

$$$$
B0875b
     RDKit          3D

 18 20  0  0  0  0  0  0  0  0999 V2000
    0.6140   -7.6840   35.6120 O   0  0  0  0  0  0  0  0  0  0  0  0
    0.2880   -6.5460   35.9520 C   0  0  0  0  0  0  0  0  0  0  0  0
    0.1880   -6.1820   37.2980 N   0  0  0  0  0  0  0  0  0  0  0  0
    0.5530   -7.0650   38.3300 C   0  0  0  0  0  0  0  0  0  0  0  0
   -0.0790   -7.3040   39.5160 C   0  0  0  0  0  0  0  0  0  0  0  0
    0.6050   -8.2670   40.1400 N   0  0  0  0  0  0  0  0  0  0  0  0
    1.6720   -8.6700   39.4190 N   0  0  0  0  0  0  0  0  0  0  0  0
    1.6500   -7.9320   38.3150 C   0  0  0  0  0  0  0  0  0  0  0  0
   -0.3420   -5.6850   35.0680 N   0  0  0  0  0  0  0  0  0  0  0  0
   -0.1100   -5.7480   33.6980 C   0  0  0  0  0  0  0  0  0  0  0  0
   -0.8070   -6.7280   33.0120 N   0  0  0  0  0  0  0  0  0  0  0  0
   -1.6850   -7.6920   33.4170 C   0  0  0  0  0  0  0  0  0  0  0  0
   -2.0720   -8.4210   32.4090 N   0  0  0  0  0  0  0  0  0  0  0  0
   -1.4350   -7.9310   31.2660 N   0  0  0  0  0  0  0  0  0  0  0  0
   -0.6760   -6.9090   31.6420 C   0  0  0  0  0  0  0  0  0  0  0  0
    0.2020   -6.0510   30.9340 C   0  0  0  0  0  0  0  0  0  0  0  0
    0.8940   -5.0850   31.6030 C   0  0  0  0  0  0  0  0  0  0  0  0
    0.7510   -4.9160   32.9940 C   0  0  0  0  0  0  0  0  0  0  0  0
  2  1  2  0
  3  2  1  0
  4  3  1  0
  4  8  1  0
  8  7  2  0
  7  6  1  0
  6  5  1  0
  5  4  2  0
  9  2  1  0
 10  9  1  0
 10 18  2  0
 18 17  1  0
 17 16  2  0
 16 15  1  0
 15 14  2  0
 14 13  1  0
 13 12  2  0
 12 11  1  0
 11 10  1  0
 15 11  1  0
M  END
>  <smiles>  (116) 
O=C(Nc1cn[nH]c1)Nc1cccc2nncn12

>  <inchikey>  (116) 
JRIYYXNYNZMFKZ-UHFFFAOYSA-N

>  <alias>  (116) 
B0875b

$$$$
B0914a
     RDKit          3D

 24 27  0  0  0  0  0  0  0  0999 V2000
    2.6520   -1.7390   29.9240 C   0  0  0  0  0  0  0  0  0  0  0  0
    1.9610   -2.3400   29.0290 C   0  0  0  0  0  0  0  0  0  0  0  0
    0.8420   -3.2790   29.3100 C   0  0  0  0  0  0  0  0  0  0  0  0
   -0.0470   -2.8300   30.3930 N   0  0  0  0  0  0  0  0  0  0  0  0
   -1.2450   -2.1750   30.2220 C   0  0  0  0  0  0  0  0  0  0  0  0
   -1.4700   -1.0510   29.2920 C   0  0  0  0  0  0  0  0  0  0  0  0
   -2.2990   -1.1790   28.1850 C   0  0  0  0  0  0  0  0  0  0  0  0
   -2.4830   -0.2090   27.2760 N   0  0  0  0  0  0  0  0  0  0  0  0
   -1.8290    0.9420   27.4620 C   0  0  0  0  0  0  0  0  0  0  0  0
   -0.9940    1.1730   28.5360 C   0  0  0  0  0  0  0  0  0  0  0  0
   -0.8170    0.1610   29.4620 C   0  0  0  0  0  0  0  0  0  0  0  0
   -2.1390   -2.6320   31.0760 N   0  0  0  0  0  0  0  0  0  0  0  0
   -1.5190   -3.5940   31.8740 N   0  0  0  0  0  0  0  0  0  0  0  0
   -0.2700   -3.6590   31.4770 C   0  0  0  0  0  0  0  0  0  0  0  0
    1.0430   -4.4520   32.3240 S   0  0  0  0  0  0  0  0  0  0  0  0
    0.2550   -5.7380   33.1900 C   0  0  0  0  0  0  0  0  0  0  0  0
   -0.4670   -6.7510   32.5360 N   0  0  0  0  0  0  0  0  0  0  0  0
   -0.6510   -7.1030   31.2280 C   0  0  0  0  0  0  0  0  0  0  0  0
   -1.4410   -8.1350   31.1290 N   0  0  0  0  0  0  0  0  0  0  0  0
   -1.8040   -8.5100   32.4190 N   0  0  0  0  0  0  0  0  0  0  0  0
   -1.2070   -7.6760   33.2570 C   0  0  0  0  0  0  0  0  0  0  0  0
   -1.1990   -7.5960   34.6700 C   0  0  0  0  0  0  0  0  0  0  0  0
   -0.4660   -6.6320   35.2830 C   0  0  0  0  0  0  0  0  0  0  0  0
    0.2680   -5.6980   34.5430 C   0  0  0  0  0  0  0  0  0  0  0  0
  2  1  2  0
  3  2  1  0
  4  3  1  0
  4 14  1  0
 15 14  1  0
 16 15  1  0
 16 24  2  0
 24 23  1  0
 23 22  2  0
 22 21  1  0
 21 20  2  0
 20 19  1  0
 19 18  2  0
 18 17  1  0
 17 16  1  0
 21 17  1  0
 14 13  2  0
 13 12  1  0
 12  5  2  0
  5  4  1  0
  6  5  1  0
  6 11  2  0
 11 10  1  0
 10  9  2  0
  9  8  1  0
  8  7  2  0
  7  6  1  0
M  END
>  <smiles>  (117) 
C=CCn1c(Sc2cccc3nncn23)nnc1-c1cccnc1

>  <inchikey>  (117) 
RYSJOJRUDGPUDU-UHFFFAOYSA-N

>  <alias>  (117) 
B0914a

$$$$
B0914b
     RDKit          3D

 24 27  0  0  0  0  0  0  0  0999 V2000
    1.2380   -4.0510   29.3570 C   0  0  0  0  0  0  0  0  0  0  0  0
    2.3530   -3.5820   29.8190 C   0  0  0  0  0  0  0  0  0  0  0  0
    2.5020   -2.6040   30.9470 C   0  0  0  0  0  0  0  0  0  0  0  0
    1.3670   -2.5550   31.8880 N   0  0  0  0  0  0  0  0  0  0  0  0
    0.7980   -1.4290   32.4450 C   0  0  0  0  0  0  0  0  0  0  0  0
    0.5640   -0.1600   31.7400 C   0  0  0  0  0  0  0  0  0  0  0  0
   -0.6040    0.0300   31.0110 C   0  0  0  0  0  0  0  0  0  0  0  0
   -0.8190    1.0840   30.2180 N   0  0  0  0  0  0  0  0  0  0  0  0
    0.1460    2.0090   30.1480 C   0  0  0  0  0  0  0  0  0  0  0  0
    1.3260    1.9320   30.8610 C   0  0  0  0  0  0  0  0  0  0  0  0
    1.5310    0.8320   31.6690 C   0  0  0  0  0  0  0  0  0  0  0  0
    0.3960   -1.6810   33.6710 N   0  0  0  0  0  0  0  0  0  0  0  0
    0.6710   -3.0190   33.9440 N   0  0  0  0  0  0  0  0  0  0  0  0
    1.2360   -3.5150   32.8670 C   0  0  0  0  0  0  0  0  0  0  0  0
    1.7340   -5.1750   32.6370 S   0  0  0  0  0  0  0  0  0  0  0  0
    0.4520   -6.0490   33.3810 C   0  0  0  0  0  0  0  0  0  0  0  0
   -0.3810   -6.8770   32.5960 N   0  0  0  0  0  0  0  0  0  0  0  0
   -0.4990   -7.1660   31.2640 C   0  0  0  0  0  0  0  0  0  0  0  0
   -1.4440   -8.0480   31.0580 N   0  0  0  0  0  0  0  0  0  0  0  0
   -1.9880   -8.3720   32.2940 N   0  0  0  0  0  0  0  0  0  0  0  0
   -1.3460   -7.6570   33.2150 C   0  0  0  0  0  0  0  0  0  0  0  0
   -1.4770   -7.5710   34.6250 C   0  0  0  0  0  0  0  0  0  0  0  0
   -0.6630   -6.7580   35.3520 C   0  0  0  0  0  0  0  0  0  0  0  0
    0.3190   -5.9780   34.7290 C   0  0  0  0  0  0  0  0  0  0  0  0
  2  1  2  0
  3  2  1  0
  4  3  1  0
  4 14  1  0
 15 14  1  0
 16 15  1  0
 16 24  2  0
 24 23  1  0
 23 22  2  0
 22 21  1  0
 21 20  2  0
 20 19  1  0
 19 18  2  0
 18 17  1  0
 17 16  1  0
 21 17  1  0
 14 13  2  0
 13 12  1  0
 12  5  2  0
  5  4  1  0
  6  5  1  0
  6 11  2  0
 11 10  1  0
 10  9  2  0
  9  8  1  0
  8  7  2  0
  7  6  1  0
M  END
>  <smiles>  (118) 
C=CCn1c(Sc2cccc3nncn23)nnc1-c1cccnc1

>  <inchikey>  (118) 
RYSJOJRUDGPUDU-UHFFFAOYSA-N

>  <alias>  (118) 
B0914b

$$$$
B0931b
     RDKit          3D

 17 19  0  0  0  0  0  0  0  0999 V2000
    0.0840   -6.2770   30.6450 C   0  0  0  0  0  0  0  0  0  0  0  0
    0.8080   -5.3770   31.3570 C   0  0  0  0  0  0  0  0  0  0  0  0
   -0.7690   -7.1720   31.3270 C   0  0  0  0  0  0  0  0  0  0  0  0
   -1.6000   -8.1110   30.9060 N   0  0  0  0  0  0  0  0  0  0  0  0
   -2.2100   -8.6610   32.0310 N   0  0  0  0  0  0  0  0  0  0  0  0
   -1.7340   -8.0520   33.0780 C   0  0  0  0  0  0  0  0  0  0  0  0
   -0.8230   -7.1050   32.7150 N   0  0  0  0  0  0  0  0  0  0  0  0
   -0.0690   -6.1970   33.4500 C   0  0  0  0  0  0  0  0  0  0  0  0
    0.7240   -5.3370   32.7600 C   0  0  0  0  0  0  0  0  0  0  0  0
   -0.2080   -6.2850   35.1970 S   0  0  0  0  0  0  0  0  0  0  0  0
    0.5700   -4.7270   35.7370 C   0  0  0  0  0  0  0  0  0  0  0  0
    2.0480   -4.7440   35.4450 C   0  0  0  0  0  0  0  0  0  0  0  0
    2.8200   -5.8580   35.7190 C   0  0  0  0  0  0  0  0  0  0  0  0
    4.1420   -5.8820   35.3130 C   0  0  0  0  0  0  0  0  0  0  0  0
    4.7390   -4.8690   34.6800 N   0  0  0  0  0  0  0  0  0  0  0  0
    3.9920   -3.7850   34.4440 C   0  0  0  0  0  0  0  0  0  0  0  0
    2.6620   -3.6800   34.8060 C   0  0  0  0  0  0  0  0  0  0  0  0
  2  9  1  0
  9  8  2  0
 10  8  1  0
 11 10  1  0
 12 11  1  0
 12 17  2  0
 17 16  1  0
 16 15  2  0
 15 14  1  0
 14 13  2  0
 13 12  1  0
  8  7  1  0
  7  6  1  0
  6  5  2  0
  5  4  1  0
  4  3  2  0
  7  3  1  0
  3  1  1  0
  2  1  2  0
M  END
>  <smiles>  (119) 
c1cc(SCc2ccncc2)n2cnnc2c1

>  <inchikey>  (119) 
YKUFZDVJLQYFAS-UHFFFAOYSA-N

>  <alias>  (119) 
B0931b

$$$$
B0938a
     RDKit          3D

 20 23  0  0  0  0  0  0  0  0999 V2000
    2.9460   -8.5490   35.0310 O   0  0  0  0  0  0  0  0  0  0  0  0
    2.1430   -7.9790   35.7770 C   0  0  0  0  0  0  0  0  0  0  0  0
    2.0170   -8.1090   37.2270 C   0  0  0  0  0  0  0  0  0  0  0  0
    3.0130   -9.0820   38.2440 S   0  0  0  0  0  0  0  0  0  0  0  0
    2.1190   -8.6300   39.6240 C   0  0  0  0  0  0  0  0  0  0  0  0
    1.1000   -7.7620   39.3510 C   0  0  0  0  0  0  0  0  0  0  0  0
    1.0420   -7.4540   37.9480 C   0  0  0  0  0  0  0  0  0  0  0  0
    0.1560   -6.6250   37.3090 N   0  0  0  0  0  0  0  0  0  0  0  0
    0.2660   -6.4890   36.0170 C   0  0  0  0  0  0  0  0  0  0  0  0
    1.1990   -7.1230   35.2490 N   0  0  0  0  0  0  0  0  0  0  0  0
   -0.8560   -5.3960   35.2530 S   0  0  0  0  0  0  0  0  0  0  0  0
   -0.4930   -5.5920   33.5470 C   0  0  0  0  0  0  0  0  0  0  0  0
   -0.9950   -6.7450   32.9410 N   0  0  0  0  0  0  0  0  0  0  0  0
   -1.6930   -7.8140   33.4210 C   0  0  0  0  0  0  0  0  0  0  0  0
   -2.0060   -8.6340   32.4630 N   0  0  0  0  0  0  0  0  0  0  0  0
   -1.4920   -8.1230   31.2840 N   0  0  0  0  0  0  0  0  0  0  0  0
   -0.8700   -6.9820   31.5800 C   0  0  0  0  0  0  0  0  0  0  0  0
   -0.1660   -6.0320   30.8030 C   0  0  0  0  0  0  0  0  0  0  0  0
    0.3410   -4.9130   31.4080 C   0  0  0  0  0  0  0  0  0  0  0  0
    0.1730   -4.6860   32.7920 C   0  0  0  0  0  0  0  0  0  0  0  0
  2  1  2  0
  2 10  1  0
 10  9  1  0
 11  9  1  0
 12 11  1  0
 12 20  2  0
 20 19  1  0
 19 18  2  0
 18 17  1  0
 17 16  2  0
 16 15  1  0
 15 14  2  0
 14 13  1  0
 13 12  1  0
 17 13  1  0
  9  8  2  0
  8  7  1  0
  7  6  1  0
  6  5  2  0
  5  4  1  0
  4  3  1  0
  3  2  1  0
  7  3  2  0
M  END
>  <smiles>  (120) 
O=c1[nH]c(Sc2cccc3nncn23)nc2ccsc12

>  <inchikey>  (120) 
NCWBPSWMAZWHHP-UHFFFAOYSA-N

>  <alias>  (120) 
B0938a

$$$$
B1020a
     RDKit          3D

 18 20  0  0  0  0  0  0  0  0999 V2000
    2.0780   -6.2400   36.4020 O   0  0  0  0  0  0  0  0  0  0  0  0
    0.6680   -6.3230   36.5450 S   0  0  0  0  0  0  0  0  0  0  0  0
    0.0410   -7.3940   37.2400 O   0  0  0  0  0  0  0  0  0  0  0  0
    0.0060   -6.2800   35.0920 N   0  0  0  0  0  0  0  0  0  0  0  0
   -1.1330   -7.1170   34.6590 C   0  0  0  0  0  0  0  0  0  0  0  0
   -1.1180   -7.3780   33.1870 C   0  0  0  0  0  0  0  0  0  0  0  0
   -1.8880   -8.1640   32.4110 N   0  0  0  0  0  0  0  0  0  0  0  0
   -1.5200   -8.0470   31.1220 N   0  0  0  0  0  0  0  0  0  0  0  0
   -0.5190   -7.1920   31.0800 N   0  0  0  0  0  0  0  0  0  0  0  0
   -0.2480   -6.7770   32.3460 C   0  0  0  0  0  0  0  0  0  0  0  0
    0.8470   -5.8700   32.8160 C   0  0  0  0  0  0  0  0  0  0  0  0
    0.4380   -5.2370   34.1400 C   0  0  0  0  0  0  0  0  0  0  0  0
    0.1430   -4.9380   37.1470 N   0  0  0  0  0  0  0  0  0  0  0  0
   -1.2380   -4.9530   37.6610 C   0  0  0  0  0  0  0  0  0  0  0  0
   -1.7630   -3.5340   37.7390 C   0  0  0  0  0  0  0  0  0  0  0  0
   -0.7520   -2.5970   38.2570 N   0  0  0  0  0  0  0  0  0  0  0  0
    0.3140   -3.3090   38.9720 C   0  0  0  0  0  0  0  0  0  0  0  0
    1.0820   -4.2270   38.0380 C   0  0  0  0  0  0  0  0  0  0  0  0
  3  2  2  0
  2  1  2  0
 13  2  1  0
 13 18  1  0
 18 17  1  0
 17 16  1  0
 16 15  1  0
 15 14  1  0
 14 13  1  0
  4  2  1  0
  4 12  1  0
 12 11  1  0
 11 10  1  0
 10  9  1  0
  9  8  2  0
  8  7  1  0
  7  6  1  0
 10  6  2  0
  6  5  1  0
  5  4  1  0
M  END
>  <smiles>  (121) 
O=S(=O)(N1CCNCC1)N1CCc2nn[nH]c2C1

>  <inchikey>  (121) 
RMTPRUDWXABPBE-UHFFFAOYSA-N

>  <alias>  (121) 
B1020a

$$$$
B1033a
     RDKit          3D

 19 21  0  0  0  0  0  0  0  0999 V2000
   -9.8790    1.1550    9.4720 O   0  0  0  0  0  0  0  0  0  0  0  0
  -10.6860   -0.0110    9.3140 S   0  0  0  0  0  0  0  0  0  0  0  0
  -11.6900   -0.3090   10.2820 O   0  0  0  0  0  0  0  0  0  0  0  0
  -11.2340   -0.1310    7.7750 N   0  0  0  0  0  0  0  0  0  0  0  0
  -11.2860    1.0740    6.9250 C   0  0  0  0  0  0  0  0  0  0  0  0
  -11.1760    0.6640    5.4730 C   0  0  0  0  0  0  0  0  0  0  0  0
  -12.1880   -0.3430    5.1260 N   0  0  0  0  0  0  0  0  0  0  0  0
  -13.0880   -0.6250    6.2570 C   0  0  0  0  0  0  0  0  0  0  0  0
  -12.3210   -1.0850    7.4830 C   0  0  0  0  0  0  0  0  0  0  0  0
   -9.6570   -1.2550    9.3560 N   0  0  0  0  0  0  0  0  0  0  0  0
   -8.4680   -1.3850    8.5700 C   0  0  0  0  0  0  0  0  0  0  0  0
   -7.4000   -0.4980    8.7170 C   0  0  0  0  0  0  0  0  0  0  0  0
   -6.2450   -0.7350    7.9960 C   0  0  0  0  0  0  0  0  0  0  0  0
   -5.0560   -0.0510    8.1460 O   0  0  0  0  0  0  0  0  0  0  0  0
   -4.0340   -0.8150    7.4490 C   0  0  0  0  0  0  0  0  0  0  0  0
   -4.7470   -1.7780    6.5150 C   0  0  0  0  0  0  0  0  0  0  0  0
   -6.1300   -1.7840    7.1050 C   0  0  0  0  0  0  0  0  0  0  0  0
   -7.2080   -2.6450    6.9450 C   0  0  0  0  0  0  0  0  0  0  0  0
   -8.3660   -2.4550    7.6830 C   0  0  0  0  0  0  0  0  0  0  0  0
  3  2  2  0
  2  1  2  0
 10  2  1  0
 11 10  1  0
 11 19  2  0
 19 18  1  0
 18 17  2  0
 17 13  1  0
 13 12  2  0
 12 11  1  0
 14 13  1  0
 15 14  1  0
 16 15  1  0
 17 16  1  0
  4  2  1  0
  4  9  1  0
  9  8  1  0
  8  7  1  0
  7  6  1  0
  6  5  1  0
  5  4  1  0
M  END
>  <smiles>  (122) 
O=S(=O)(Nc1ccc2c(c1)OCC2)N1CCNCC1

>  <inchikey>  (122) 
WNRHSBGDKHXNGM-UHFFFAOYSA-N

>  <alias>  (122) 
B1033a

$$$$
B1169a
     RDKit          3D

 14 15  0  0  0  0  0  0  0  0999 V2000
    0.0000    0.0000    0.0000 Cl  0  0  0  0  0  0  0  0  0  0  0  0
   -0.7610   -5.2580   25.3520 C   0  0  2  0  0  0  0  0  0  0  0  0
   -0.2870   -5.3960   26.7810 C   0  0  0  0  0  0  0  0  0  0  0  0
   -0.7310   -6.2920   27.4940 O   0  0  0  0  0  0  0  0  0  0  0  0
    0.6240   -4.4920   27.2220 N   0  0  0  0  0  0  0  0  0  0  0  0
    1.2530   -3.4380   26.4170 C   0  0  0  0  0  0  0  0  0  0  0  0
    2.7440   -3.4590   26.6290 C   0  0  0  0  0  0  0  0  0  0  0  0
    3.7130   -2.8520   25.7810 C   0  0  0  0  0  0  0  0  0  0  0  0
    4.9890   -3.0670   26.2120 C   0  0  0  0  0  0  0  0  0  0  0  0
    5.0280   -4.0010   27.6370 S   0  0  0  0  0  0  0  0  0  0  0  0
    3.3010   -4.1110   27.6800 C   0  0  0  0  0  0  0  0  0  0  0  0
    2.5270   -4.8420   28.7350 C   0  0  0  0  0  0  0  0  0  0  0  0
    1.0660   -4.4390   28.6210 C   0  0  0  0  0  0  0  0  0  0  0  0
    0.5220   -6.0930   24.5730 S   0  0  0  0  0  0  0  0  0  0  0  0
  4  3  2  0
  3  2  1  0
  2  1  1  0
  5  3  1  0
  5 13  1  0
 13 12  1  0
 12 11  1  0
 11 10  1  0
 10  9  1  0
  9  8  2  0
  8  7  1  0
 11  7  2  0
  7  6  1  0
  6  5  1  0
  2 14  1  6
M  END
>  <smiles>  (123) 
O=C([C@H](S)Cl)N1CCc2sccc2C1

>  <inchikey>  (123) 
PDBFXSXTYLNPFJ-QMMMGPOBSA-N

>  <alias>  (123) 
B1169a

$$$$
B1170a
     RDKit          3D

 18 19  0  0  0  0  0  0  0  0999 V2000
   -3.5050   -0.2660    7.9630 Cl  0  0  0  0  0  0  0  0  0  0  0  0
   -4.4180   -0.6760    6.3580 C   0  0  1  0  0  0  0  0  0  0  0  0
   -3.9750   -1.8310    5.8870 F   0  0  0  0  0  0  0  0  0  0  0  0
   -5.8690   -0.8020    6.8050 C   0  0  0  0  0  0  0  0  0  0  0  0
   -6.4400   -1.8880    6.7200 O   0  0  0  0  0  0  0  0  0  0  0  0
   -6.4230    0.3260    7.3090 N   0  0  0  0  0  0  0  0  0  0  0  0
   -7.7150    0.4910    7.8570 C   0  0  0  0  0  0  0  0  0  0  0  0
   -8.1060    1.7190    8.3750 C   0  0  0  0  0  0  0  0  0  0  0  0
   -9.2830    1.9390    8.9680 N   0  0  0  0  0  0  0  0  0  0  0  0
  -10.1370    0.9100    9.0440 C   0  0  0  0  0  0  0  0  0  0  0  0
   -9.8540   -0.3570    8.5290 C   0  0  0  0  0  0  0  0  0  0  0  0
   -8.6220   -0.5540    7.9380 C   0  0  0  0  0  0  0  0  0  0  0  0
  -11.3290    1.1570    9.6720 N   0  0  0  0  0  0  0  0  0  0  0  0
  -11.8080    2.5170    9.9190 C   0  0  0  0  0  0  0  0  0  0  0  0
  -13.2910    2.4810   10.1800 C   0  0  0  0  0  0  0  0  0  0  0  0
  -13.8820    1.2700    9.7040 O   0  0  0  0  0  0  0  0  0  0  0  0
  -13.3950    0.1550   10.4510 C   0  0  0  0  0  0  0  0  0  0  0  0
  -11.9020    0.2190   10.6400 C   0  0  0  0  0  0  0  0  0  0  0  0
  5  4  2  0
  6  4  1  0
  7  6  1  0
  7 12  2  0
 12 11  1  0
 11 10  2  0
 13 10  1  0
 13 18  1  0
 18 17  1  0
 17 16  1  0
 16 15  1  0
 15 14  1  0
 14 13  1  0
 10  9  1  0
  9  8  2  0
  8  7  1  0
  4  2  1  0
  2  3  1  1
  2  1  1  0
M  END
>  <smiles>  (124) 
O=C(Nc1ccc(N2CCOCC2)nc1)[C@H](F)Cl

>  <inchikey>  (124) 
UAKMQVWDSXMIIM-JTQLQIEISA-N

>  <alias>  (124) 
B1170a

$$$$
B1219b
     RDKit          3D

 20 23  0  0  0  0  0  0  0  0999 V2000
   -3.8020   -2.3390    7.6850 F   0  0  0  0  0  0  0  0  0  0  0  0
   -4.6430   -1.2760    7.5420 C   0  0  0  0  0  0  0  0  0  0  0  0
   -5.9940   -1.5310    7.4780 C   0  0  0  0  0  0  0  0  0  0  0  0
   -6.8300   -0.4410    7.2810 C   0  0  0  0  0  0  0  0  0  0  0  0
   -6.3210    0.8510    7.1500 C   0  0  0  0  0  0  0  0  0  0  0  0
   -4.9430    1.0630    7.2350 C   0  0  0  0  0  0  0  0  0  0  0  0
   -4.0950   -0.0150    7.4360 C   0  0  0  0  0  0  0  0  0  0  0  0
   -8.2020   -0.3210    7.1120 N   0  0  0  0  0  0  0  0  0  0  0  0
   -8.4450    0.9910    6.8710 C   0  0  0  0  0  0  0  0  0  0  0  0
   -7.3690    1.7320    6.8990 N   0  0  0  0  0  0  0  0  0  0  0  0
  -10.0450    1.5660    6.4520 S   0  0  0  0  0  0  0  0  0  0  0  0
  -11.0940    0.5830    7.4290 C   0  0  0  0  0  0  0  0  0  0  0  0
  -11.2490    0.9370    8.7640 N   0  0  0  0  0  0  0  0  0  0  0  0
  -10.6500    1.8690    9.5590 C   0  0  0  0  0  0  0  0  0  0  0  0
  -11.1740    1.8680   10.7520 N   0  0  0  0  0  0  0  0  0  0  0  0
  -12.1660    0.8850   10.7750 N   0  0  0  0  0  0  0  0  0  0  0  0
  -12.2000    0.3290    9.5710 C   0  0  0  0  0  0  0  0  0  0  0  0
  -13.0020   -0.6860    9.0060 C   0  0  0  0  0  0  0  0  0  0  0  0
  -12.8110   -1.0540    7.7000 C   0  0  0  0  0  0  0  0  0  0  0  0
  -11.8370   -0.4160    6.8940 C   0  0  0  0  0  0  0  0  0  0  0  0
  2  1  1  0
  2  7  2  0
  7  6  1  0
  6  5  2  0
  5 10  1  0
 10  9  2  0
 11  9  1  0
 12 11  1  0
 12 20  2  0
 20 19  1  0
 19 18  2  0
 18 17  1  0
 17 16  2  0
 16 15  1  0
 15 14  2  0
 14 13  1  0
 13 12  1  0
 17 13  1  0
  9  8  1  0
  8  4  1  0
  5  4  1  0
  4  3  2  0
  3  2  1  0
M  END
>  <smiles>  (125) 
Fc1ccc2nc(Sc3cccc4nncn34)[nH]c2c1

>  <inchikey>  (125) 
RAAZIUQROHXXRO-UHFFFAOYSA-N

>  <alias>  (125) 
B1219b

$$$$
B1307a
     RDKit          3D

 18 19  0  0  0  0  0  0  0  0999 V2000
   -1.9800   -3.6830   31.4550 O   0  0  0  0  0  0  0  0  0  0  0  0
   -1.0040   -2.6490   31.6030 S   0  0  0  0  0  0  0  0  0  0  0  0
   -0.9490   -1.8990   32.8200 O   0  0  0  0  0  0  0  0  0  0  0  0
   -1.2030   -1.4920   30.3000 C   0  0  0  0  0  0  0  0  0  0  0  0
   -1.0060    0.1650   30.4570 S   0  0  0  0  0  0  0  0  0  0  0  0
   -1.1960    0.4780   28.8480 N   0  0  0  0  0  0  0  0  0  0  0  0
   -1.4180   -0.6800   28.1980 C   0  0  0  0  0  0  0  0  0  0  0  0
   -1.4390   -1.8200   28.9940 C   0  0  0  0  0  0  0  0  0  0  0  0
    0.4430   -3.3500   31.4090 N   0  0  0  0  0  0  0  0  0  0  0  0
    0.7260   -4.2070   30.2430 C   0  0  0  0  0  0  0  0  0  0  0  0
    1.3440   -5.5570   30.5860 C   0  0  0  0  0  0  0  0  0  0  0  0
    0.5610   -6.2810   31.6280 C   0  0  0  0  0  0  0  0  0  0  0  0
   -0.3920   -7.1460   31.1660 N   0  0  0  0  0  0  0  0  0  0  0  0
   -1.2540   -7.8390   31.9980 C   0  0  0  0  0  0  0  0  0  0  0  0
   -2.0970   -8.5830   31.5020 O   0  0  0  0  0  0  0  0  0  0  0  0
    0.7210   -6.0690   32.8940 N   0  0  0  0  0  0  0  0  0  0  0  0
   -0.0950   -6.7250   33.7650 C   0  0  0  0  0  0  0  0  0  0  0  0
   -1.0690   -7.5950   33.4070 C   0  0  0  0  0  0  0  0  0  0  0  0
 15 14  2  0
 14 18  1  0
 18 17  2  0
 17 16  1  0
 16 12  2  0
 12 11  1  0
 11 10  1  0
 10  9  1  0
  9  2  1  0
  3  2  2  0
  2  1  2  0
  4  2  1  0
  4  8  2  0
  8  7  1  0
  7  6  2  0
  6  5  1  0
  5  4  1  0
 13 12  1  0
 14 13  1  0
M  END
>  <smiles>  (126) 
O=c1ccnc(CCNS(=O)(=O)c2ccns2)[nH]1

>  <inchikey>  (126) 
CZVHMIQYFCZUOC-UHFFFAOYSA-N

>  <alias>  (126) 
B1307a

$$$$
B1307b
     RDKit          3D

 18 19  0  0  0  0  0  0  0  0999 V2000
   -2.1720   -3.3740   31.4000 O   0  0  0  0  0  0  0  0  0  0  0  0
   -1.0900   -2.4480   31.5090 S   0  0  0  0  0  0  0  0  0  0  0  0
   -0.9470   -1.6710   32.7010 O   0  0  0  0  0  0  0  0  0  0  0  0
   -1.2320   -1.3220   30.1750 C   0  0  0  0  0  0  0  0  0  0  0  0
   -1.0950    0.3140   30.2300 S   0  0  0  0  0  0  0  0  0  0  0  0
   -1.3870    0.5510   28.6090 N   0  0  0  0  0  0  0  0  0  0  0  0
   -1.5880   -0.6330   28.0280 C   0  0  0  0  0  0  0  0  0  0  0  0
   -1.5020   -1.7210   28.8920 C   0  0  0  0  0  0  0  0  0  0  0  0
    0.2810   -3.2790   31.3070 N   0  0  0  0  0  0  0  0  0  0  0  0
    0.5100   -4.0730   30.0910 C   0  0  0  0  0  0  0  0  0  0  0  0
    1.2110   -5.3840   30.3970 C   0  0  0  0  0  0  0  0  0  0  0  0
    0.5250   -6.1390   31.4840 C   0  0  0  0  0  0  0  0  0  0  0  0
   -0.3980   -7.0710   31.0910 N   0  0  0  0  0  0  0  0  0  0  0  0
   -1.1630   -7.8050   31.9770 C   0  0  0  0  0  0  0  0  0  0  0  0
   -1.9970   -8.5900   31.5420 O   0  0  0  0  0  0  0  0  0  0  0  0
    0.7520   -5.9120   32.7370 N   0  0  0  0  0  0  0  0  0  0  0  0
    0.0290   -6.6150   33.6640 C   0  0  0  0  0  0  0  0  0  0  0  0
   -0.9160   -7.5380   33.3700 C   0  0  0  0  0  0  0  0  0  0  0  0
 15 14  2  0
 14 18  1  0
 18 17  2  0
 17 16  1  0
 16 12  2  0
 12 11  1  0
 11 10  1  0
 10  9  1  0
  9  2  1  0
  3  2  2  0
  2  1  2  0
  4  2  1  0
  4  8  2  0
  8  7  1  0
  7  6  2  0
  6  5  1  0
  5  4  1  0
 13 12  1  0
 14 13  1  0
M  END
>  <smiles>  (127) 
O=c1ccnc(CCNS(=O)(=O)c2ccns2)[nH]1

>  <inchikey>  (127) 
CZVHMIQYFCZUOC-UHFFFAOYSA-N

>  <alias>  (127) 
B1307b

$$$$
B1361a
     RDKit          3D

 20 21  0  0  0  0  0  0  0  0999 V2000
   -2.3530   -3.0450   31.3800 O   0  0  0  0  0  0  0  0  0  0  0  0
   -1.2920   -2.0830   31.3410 S   0  0  0  0  0  0  0  0  0  0  0  0
   -1.0960   -1.2220   32.4690 O   0  0  0  0  0  0  0  0  0  0  0  0
   -1.5270   -1.0700   29.9190 C   0  0  0  0  0  0  0  0  0  0  0  0
   -1.3130    0.2980   29.9990 C   0  0  0  0  0  0  0  0  0  0  0  0
   -1.5290    1.0890   28.8830 C   0  0  0  0  0  0  0  0  0  0  0  0
   -1.9690    0.5160   27.6980 C   0  0  0  0  0  0  0  0  0  0  0  0
   -2.2820    1.2950   26.6180 O   0  0  0  0  0  0  0  0  0  0  0  0
   -2.1590   -0.8560   27.6210 C   0  0  0  0  0  0  0  0  0  0  0  0
   -1.9390   -1.6510   28.7310 C   0  0  0  0  0  0  0  0  0  0  0  0
    0.0880   -2.8870   31.1210 N   0  0  0  0  0  0  0  0  0  0  0  0
    0.2710   -3.7500   29.9490 C   0  0  0  0  0  0  0  0  0  0  0  0
    1.0590   -4.9890   30.3170 C   0  0  0  0  0  0  0  0  0  0  0  0
    0.3100   -5.7580   31.3620 C   0  0  0  0  0  0  0  0  0  0  0  0
   -0.5150   -6.7200   30.9310 N   0  0  0  0  0  0  0  0  0  0  0  0
   -1.1300   -7.4580   31.8750 C   0  0  0  0  0  0  0  0  0  0  0  0
   -1.8740   -8.4400   31.4740 O   0  0  0  0  0  0  0  0  0  0  0  0
   -0.9580   -7.2300   33.2420 C   0  0  0  0  0  0  0  0  0  0  0  0
   -0.0910   -6.2040   33.5660 C   0  0  0  0  0  0  0  0  0  0  0  0
    0.5560   -5.4580   32.6610 N   0  0  0  0  0  0  0  0  0  0  0  0
  3  2  2  0
  2  1  2  0
 11  2  1  0
 12 11  1  0
 13 12  1  0
 14 13  1  0
 14 20  2  0
 20 19  1  0
 19 18  2  0
 18 16  1  0
 17 16  1  0
 16 15  2  0
 15 14  1  0
  4  2  1  0
  4 10  2  0
 10  9  1  0
  9  7  2  0
  8  7  1  0
  7  6  1  0
  6  5  2  0
  5  4  1  0
M  END
>  <smiles>  (128) 
O=S(=O)(NCCc1nccc(O)n1)c1ccc(O)cc1

>  <inchikey>  (128) 
CINSIERXHZAWIH-UHFFFAOYSA-N

>  <alias>  (128) 
B1361a

$$$$
B1361b
     RDKit          3D

 20 21  0  0  0  0  0  0  0  0999 V2000
   -2.2680   -3.3200   31.5680 O   0  0  0  0  0  0  0  0  0  0  0  0
   -1.1870   -2.3830   31.5630 S   0  0  0  0  0  0  0  0  0  0  0  0
   -1.0070   -1.5180   32.6890 O   0  0  0  0  0  0  0  0  0  0  0  0
   -1.3670   -1.3710   30.1320 C   0  0  0  0  0  0  0  0  0  0  0  0
   -1.0090   -0.0340   30.1840 C   0  0  0  0  0  0  0  0  0  0  0  0
   -1.2100    0.7700   29.0760 C   0  0  0  0  0  0  0  0  0  0  0  0
   -1.7780    0.2390   27.9230 C   0  0  0  0  0  0  0  0  0  0  0  0
   -2.0040    1.0270   26.8280 O   0  0  0  0  0  0  0  0  0  0  0  0
   -2.1310   -1.1040   27.8810 C   0  0  0  0  0  0  0  0  0  0  0  0
   -1.9150   -1.9120   28.9830 C   0  0  0  0  0  0  0  0  0  0  0  0
    0.1790   -3.2350   31.4010 N   0  0  0  0  0  0  0  0  0  0  0  0
    0.4380   -4.0530   30.2020 C   0  0  0  0  0  0  0  0  0  0  0  0
    1.2430   -5.3180   30.5300 C   0  0  0  0  0  0  0  0  0  0  0  0
    0.5010   -6.1690   31.5130 C   0  0  0  0  0  0  0  0  0  0  0  0
   -0.3850   -7.0450   31.0210 N   0  0  0  0  0  0  0  0  0  0  0  0
   -1.1240   -7.7300   31.9260 C   0  0  0  0  0  0  0  0  0  0  0  0
   -2.0090   -8.5910   31.4640 O   0  0  0  0  0  0  0  0  0  0  0  0
   -0.9810   -7.5530   33.3030 C   0  0  0  0  0  0  0  0  0  0  0  0
   -0.0220   -6.6340   33.6840 C   0  0  0  0  0  0  0  0  0  0  0  0
    0.7320   -5.9380   32.8240 N   0  0  0  0  0  0  0  0  0  0  0  0
  3  2  2  0
  2  1  2  0
 11  2  1  0
 12 11  1  0
 13 12  1  0
 14 13  1  0
 14 20  2  0
 20 19  1  0
 19 18  2  0
 18 16  1  0
 17 16  1  0
 16 15  2  0
 15 14  1  0
  4  2  1  0
  4 10  2  0
 10  9  1  0
  9  7  2  0
  8  7  1  0
  7  6  1  0
  6  5  2  0
  5  4  1  0
M  END
>  <smiles>  (129) 
O=S(=O)(NCCc1nccc(O)n1)c1ccc(O)cc1

>  <inchikey>  (129) 
CINSIERXHZAWIH-UHFFFAOYSA-N

>  <alias>  (129) 
B1361b

$$$$
B1368a
     RDKit          3D

 19 20  0  0  0  0  0  0  0  0999 V2000
   -1.7960   -3.8550   31.5150 O   0  0  0  0  0  0  0  0  0  0  0  0
   -0.9200   -2.7400   31.6770 S   0  0  0  0  0  0  0  0  0  0  0  0
   -0.7690   -2.1440   32.9670 O   0  0  0  0  0  0  0  0  0  0  0  0
   -1.2560   -1.6060   30.5740 N   0  0  0  0  0  0  0  0  0  0  0  0
   -0.7620   -0.2170   30.7000 C   0  0  0  0  0  0  0  0  0  0  0  0
   -0.1560    0.0250   29.3360 C   0  0  0  0  0  0  0  0  0  0  0  0
   -1.1060   -0.6830   28.4020 C   0  0  0  0  0  0  0  0  0  0  0  0
   -1.5140   -1.9460   29.1550 C   0  0  0  0  0  0  0  0  0  0  0  0
    0.5560   -3.1420   31.1130 N   0  0  0  0  0  0  0  0  0  0  0  0
    1.4560   -4.0960   31.7680 C   0  0  0  0  0  0  0  0  0  0  0  0
    1.3950   -5.4620   31.0850 C   0  0  0  0  0  0  0  0  0  0  0  0
    0.5220   -6.3500   31.9200 C   0  0  0  0  0  0  0  0  0  0  0  0
   -0.3010   -7.1750   31.2650 N   0  0  0  0  0  0  0  0  0  0  0  0
   -1.1630   -7.8420   32.0380 C   0  0  0  0  0  0  0  0  0  0  0  0
   -2.0450   -8.5730   31.4320 O   0  0  0  0  0  0  0  0  0  0  0  0
   -1.2020   -7.7250   33.4440 C   0  0  0  0  0  0  0  0  0  0  0  0
    0.5860   -6.1690   33.2430 N   0  0  0  0  0  0  0  0  0  0  0  0
   -0.2800   -6.8570   34.0040 C   0  0  0  0  0  0  0  0  0  0  0  0
   -0.2100   -6.6240   35.4830 C   0  0  0  0  0  0  0  0  0  0  0  0
 19 18  1  0
 18 16  2  0
 16 14  1  0
 15 14  1  0
 14 13  2  0
 13 12  1  0
 12 11  1  0
 11 10  1  0
 10  9  1  0
  9  2  1  0
  3  2  2  0
  2  1  2  0
  4  2  1  0
  4  8  1  0
  8  7  1  0
  7  6  1  0
  6  5  1  0
  5  4  1  0
 17 12  2  0
 18 17  1  0
M  END
>  <smiles>  (130) 
Cc1cc(O)nc(CCNS(=O)(=O)N2CCCC2)n1

>  <inchikey>  (130) 
MHXZCOWLEYXUSF-UHFFFAOYSA-N

>  <alias>  (130) 
B1368a

$$$$
B1456a
     RDKit          3D

 20 21  0  0  0  0  0  0  0  0999 V2000
   -2.2940   -3.3510   31.4480 O   0  0  0  0  0  0  0  0  0  0  0  0
   -1.2190   -2.4440   31.7000 S   0  0  0  0  0  0  0  0  0  0  0  0
   -1.1950   -1.6890   32.9150 O   0  0  0  0  0  0  0  0  0  0  0  0
   -1.1250   -1.2920   30.4940 C   0  0  0  0  0  0  0  0  0  0  0  0
   -1.6800   -1.4580   29.2250 N   0  0  0  0  0  0  0  0  0  0  0  0
   -1.4220   -0.2630   28.6340 N   0  0  0  0  0  0  0  0  0  0  0  0
   -1.9130   -0.0070   27.2880 C   0  0  0  0  0  0  0  0  0  0  0  0
   -0.7300    0.6140   29.4530 C   0  0  0  0  0  0  0  0  0  0  0  0
   -0.5330   -0.0250   30.6400 C   0  0  0  0  0  0  0  0  0  0  0  0
    0.1510   -3.3030   31.6510 N   0  0  0  0  0  0  0  0  0  0  0  0
    0.4920   -4.1110   30.4690 C   0  0  0  0  0  0  0  0  0  0  0  0
    1.2330   -5.3760   30.8630 C   0  0  0  0  0  0  0  0  0  0  0  0
    0.3610   -6.1970   31.7630 C   0  0  0  0  0  0  0  0  0  0  0  0
   -0.4260   -7.0920   31.1510 N   0  0  0  0  0  0  0  0  0  0  0  0
   -1.2360   -7.7980   31.9590 C   0  0  0  0  0  0  0  0  0  0  0  0
   -2.0040   -8.7050   31.4070 O   0  0  0  0  0  0  0  0  0  0  0  0
   -1.2650   -7.6100   33.3570 C   0  0  0  0  0  0  0  0  0  0  0  0
    0.4240   -5.9540   33.0790 N   0  0  0  0  0  0  0  0  0  0  0  0
   -0.3920   -6.6660   33.8740 C   0  0  0  0  0  0  0  0  0  0  0  0
   -0.3010   -6.3980   35.3460 C   0  0  0  0  0  0  0  0  0  0  0  0
 20 19  1  0
 19 17  2  0
 17 15  1  0
 16 15  1  0
 15 14  2  0
 14 13  1  0
 13 12  1  0
 12 11  1  0
 11 10  1  0
 10  2  1  0
  3  2  2  0
  2  1  2  0
  4  2  1  0
  4  9  1  0
  9  8  2  0
  8  6  1  0
  7  6  1  0
  6  5  1  0
  5  4  2  0
 18 13  2  0
 19 18  1  0
M  END
>  <smiles>  (131) 
Cc1cc(O)nc(CCNS(=O)(=O)c2ccn(C)n2)n1

>  <inchikey>  (131) 
VSFGQSDQUSDVDR-UHFFFAOYSA-N

>  <alias>  (131) 
B1456a

$$$$
B1456b
     RDKit          3D

 20 21  0  0  0  0  0  0  0  0999 V2000
   -2.4510   -2.9470   31.1640 O   0  0  0  0  0  0  0  0  0  0  0  0
   -1.3690   -2.0300   31.3380 S   0  0  0  0  0  0  0  0  0  0  0  0
   -1.2360   -1.3300   32.5770 O   0  0  0  0  0  0  0  0  0  0  0  0
   -1.3470   -0.8700   30.1320 C   0  0  0  0  0  0  0  0  0  0  0  0
   -1.9490   -1.0440   28.8920 N   0  0  0  0  0  0  0  0  0  0  0  0
   -1.6920    0.1320   28.2650 N   0  0  0  0  0  0  0  0  0  0  0  0
   -2.1950    0.3480   26.9150 C   0  0  0  0  0  0  0  0  0  0  0  0
   -0.9660    1.0090   29.0360 C   0  0  0  0  0  0  0  0  0  0  0  0
   -0.7370    0.3910   30.2280 C   0  0  0  0  0  0  0  0  0  0  0  0
   -0.0010   -2.8600   31.1110 N   0  0  0  0  0  0  0  0  0  0  0  0
    0.1490   -3.7700   29.9690 C   0  0  0  0  0  0  0  0  0  0  0  0
    0.9760   -4.9900   30.3470 C   0  0  0  0  0  0  0  0  0  0  0  0
    0.2500   -5.8320   31.3520 C   0  0  0  0  0  0  0  0  0  0  0  0
   -0.5620   -6.7840   30.8720 N   0  0  0  0  0  0  0  0  0  0  0  0
   -1.1640   -7.5500   31.7990 C   0  0  0  0  0  0  0  0  0  0  0  0
   -1.9220   -8.5360   31.3830 O   0  0  0  0  0  0  0  0  0  0  0  0
   -0.9750   -7.3650   33.1780 C   0  0  0  0  0  0  0  0  0  0  0  0
    0.5060   -5.5770   32.6410 N   0  0  0  0  0  0  0  0  0  0  0  0
   -0.1070   -6.3510   33.5520 C   0  0  0  0  0  0  0  0  0  0  0  0
    0.2240   -6.0880   34.9850 C   0  0  0  0  0  0  0  0  0  0  0  0
 20 19  1  0
 19 17  2  0
 17 15  1  0
 16 15  1  0
 15 14  2  0
 14 13  1  0
 13 12  1  0
 12 11  1  0
 11 10  1  0
 10  2  1  0
  3  2  2  0
  2  1  2  0
  4  2  1  0
  4  9  1  0
  9  8  2  0
  8  6  1  0
  7  6  1  0
  6  5  1  0
  5  4  2  0
 18 13  2  0
 19 18  1  0
M  END
>  <smiles>  (132) 
Cc1cc(O)nc(CCNS(=O)(=O)c2ccn(C)n2)n1

>  <inchikey>  (132) 
VSFGQSDQUSDVDR-UHFFFAOYSA-N

>  <alias>  (132) 
B1456b

$$$$
B1457b
     RDKit          3D

 19 20  0  0  0  0  0  0  0  0999 V2000
   -2.3060   -3.4240   31.5310 O   0  0  0  0  0  0  0  0  0  0  0  0
   -1.2240   -2.5150   31.7420 S   0  0  0  0  0  0  0  0  0  0  0  0
   -1.2350   -1.6570   32.8860 O   0  0  0  0  0  0  0  0  0  0  0  0
   -1.0970   -1.5310   30.3730 C   0  0  0  0  0  0  0  0  0  0  0  0
   -0.5720   -0.2340   30.5270 N   0  0  0  0  0  0  0  0  0  0  0  0
   -0.5620    0.3940   29.3910 C   0  0  0  0  0  0  0  0  0  0  0  0
   -1.1640   -0.4830   28.0530 S   0  0  0  0  0  0  0  0  0  0  0  0
   -1.4600   -1.8110   29.0830 C   0  0  0  0  0  0  0  0  0  0  0  0
    0.1310   -3.3970   31.8270 N   0  0  0  0  0  0  0  0  0  0  0  0
    0.5660   -4.2200   30.6870 C   0  0  0  0  0  0  0  0  0  0  0  0
    1.3340   -5.4440   31.1450 C   0  0  0  0  0  0  0  0  0  0  0  0
    0.4240   -6.3040   31.9680 C   0  0  0  0  0  0  0  0  0  0  0  0
   -0.3780   -7.1400   31.2930 N   0  0  0  0  0  0  0  0  0  0  0  0
   -1.2340   -7.8500   32.0600 C   0  0  0  0  0  0  0  0  0  0  0  0
   -2.0580   -8.6770   31.4550 O   0  0  0  0  0  0  0  0  0  0  0  0
   -1.2810   -7.7370   33.4640 C   0  0  0  0  0  0  0  0  0  0  0  0
    0.4690   -6.1350   33.2950 N   0  0  0  0  0  0  0  0  0  0  0  0
   -0.3800   -6.8600   34.0410 C   0  0  0  0  0  0  0  0  0  0  0  0
   -0.2810   -6.6920   35.5280 C   0  0  0  0  0  0  0  0  0  0  0  0
 19 18  1  0
 18 16  2  0
 16 14  1  0
 15 14  1  0
 14 13  2  0
 13 12  1  0
 12 11  1  0
 11 10  1  0
 10  9  1  0
  9  2  1  0
  3  2  2  0
  2  1  2  0
  4  2  1  0
  4  8  2  0
  8  7  1  0
  7  6  1  0
  6  5  2  0
  5  4  1  0
 17 12  2  0
 18 17  1  0
M  END
>  <smiles>  (133) 
Cc1cc(O)nc(CCNS(=O)(=O)c2cscn2)n1

>  <inchikey>  (133) 
NFFNEEJNFLWXMI-UHFFFAOYSA-N

>  <alias>  (133) 
B1457b

$$$$
B1460a
     RDKit          3D

 20 21  0  0  0  0  0  0  0  0999 V2000
   -2.0860   -3.3680   31.2560 O   0  0  0  0  0  0  0  0  0  0  0  0
   -1.0510   -2.3820   31.2780 S   0  0  0  0  0  0  0  0  0  0  0  0
   -0.8550   -1.5970   32.4600 O   0  0  0  0  0  0  0  0  0  0  0  0
   -1.3340   -1.2670   29.9480 C   0  0  0  0  0  0  0  0  0  0  0  0
   -1.1100    0.0910   30.1130 C   0  0  0  0  0  0  0  0  0  0  0  0
   -1.3110    0.9400   29.0420 C   0  0  0  0  0  0  0  0  0  0  0  0
   -1.7670   -1.7320   28.7200 C   0  0  0  0  0  0  0  0  0  0  0  0
   -1.9830   -0.9290   27.6670 N   0  0  0  0  0  0  0  0  0  0  0  0
   -1.7540    0.3980   27.8120 C   0  0  0  0  0  0  0  0  0  0  0  0
   -1.9700    1.1900   26.7420 N   0  0  0  0  0  0  0  0  0  0  0  0
    0.3440   -3.1500   30.9860 N   0  0  0  0  0  0  0  0  0  0  0  0
    0.5020   -4.0720   29.8470 C   0  0  0  0  0  0  0  0  0  0  0  0
    1.2360   -5.3480   30.2670 C   0  0  0  0  0  0  0  0  0  0  0  0
    0.4950   -6.1270   31.3100 C   0  0  0  0  0  0  0  0  0  0  0  0
   -0.4070   -7.0220   30.8820 N   0  0  0  0  0  0  0  0  0  0  0  0
   -1.1190   -7.6660   31.8390 C   0  0  0  0  0  0  0  0  0  0  0  0
   -2.0040   -8.5410   31.4510 O   0  0  0  0  0  0  0  0  0  0  0  0
   -0.9370   -7.4280   33.2030 C   0  0  0  0  0  0  0  0  0  0  0  0
    0.0300   -6.4940   33.5210 C   0  0  0  0  0  0  0  0  0  0  0  0
    0.7610   -5.8360   32.6130 N   0  0  0  0  0  0  0  0  0  0  0  0
 10  9  1  0
  9  6  1  0
  6  5  2  0
  5  4  1  0
  4  2  1  0
  3  2  2  0
  2  1  2  0
 11  2  1  0
 12 11  1  0
 13 12  1  0
 14 13  1  0
 14 20  2  0
 20 19  1  0
 19 18  2  0
 18 16  1  0
 17 16  1  0
 16 15  2  0
 15 14  1  0
  7  4  2  0
  8  7  1  0
  9  8  2  0
M  END
>  <smiles>  (134) 
Nc1ccc(S(=O)(=O)NCCc2nccc(O)n2)cn1

>  <inchikey>  (134) 
OCZUQLYBPXFJIF-UHFFFAOYSA-N

>  <alias>  (134) 
B1460a

$$$$
B1460b
     RDKit          3D

 20 21  0  0  0  0  0  0  0  0999 V2000
   -0.8400   -1.4730   32.4610 O   0  0  0  0  0  0  0  0  0  0  0  0
   -1.0890   -2.2470   31.2800 S   0  0  0  0  0  0  0  0  0  0  0  0
   -2.1680   -3.1910   31.2890 O   0  0  0  0  0  0  0  0  0  0  0  0
   -1.3540   -1.1270   29.9440 C   0  0  0  0  0  0  0  0  0  0  0  0
   -0.9680    0.1990   30.0520 C   0  0  0  0  0  0  0  0  0  0  0  0
   -1.2050    1.0580   28.9940 C   0  0  0  0  0  0  0  0  0  0  0  0
   -1.9600   -1.5550   28.7770 C   0  0  0  0  0  0  0  0  0  0  0  0
   -2.2120   -0.7400   27.7410 N   0  0  0  0  0  0  0  0  0  0  0  0
   -1.8470    0.5610   27.8400 C   0  0  0  0  0  0  0  0  0  0  0  0
   -2.1430    1.3770   26.8040 N   0  0  0  0  0  0  0  0  0  0  0  0
    0.2700   -3.0530   30.9630 N   0  0  0  0  0  0  0  0  0  0  0  0
    0.3820   -3.9590   29.8140 C   0  0  0  0  0  0  0  0  0  0  0  0
    1.1850   -5.1950   30.1950 C   0  0  0  0  0  0  0  0  0  0  0  0
    0.5080   -5.9950   31.2660 C   0  0  0  0  0  0  0  0  0  0  0  0
   -0.3970   -6.8960   30.8660 N   0  0  0  0  0  0  0  0  0  0  0  0
   -1.0170   -7.6040   31.8340 C   0  0  0  0  0  0  0  0  0  0  0  0
   -1.8430   -8.5330   31.4650 O   0  0  0  0  0  0  0  0  0  0  0  0
   -0.7630   -7.4080   33.1930 C   0  0  0  0  0  0  0  0  0  0  0  0
    0.1980   -6.4590   33.4820 C   0  0  0  0  0  0  0  0  0  0  0  0
    0.8520   -5.7460   32.5530 N   0  0  0  0  0  0  0  0  0  0  0  0
 10  9  1  0
  9  6  1  0
  6  5  2  0
  5  4  1  0
  4  2  1  0
  3  2  2  0
  2  1  2  0
 11  2  1  0
 12 11  1  0
 13 12  1  0
 14 13  1  0
 14 20  2  0
 20 19  1  0
 19 18  2  0
 18 16  1  0
 17 16  1  0
 16 15  2  0
 15 14  1  0
  7  4  2  0
  8  7  1  0
  9  8  2  0
M  END
>  <smiles>  (135) 
Nc1ccc(S(=O)(=O)NCCc2nccc(O)n2)cn1

>  <inchikey>  (135) 
OCZUQLYBPXFJIF-UHFFFAOYSA-N

>  <alias>  (135) 
B1460b

$$$$
B1463a
     RDKit          3D

 20 21  0  0  0  0  0  0  0  0999 V2000
   -2.0160   -3.8560   31.6970 O   0  0  0  0  0  0  0  0  0  0  0  0
   -0.9890   -2.8990   31.9520 S   0  0  0  0  0  0  0  0  0  0  0  0
   -0.9420   -2.2360   33.2160 O   0  0  0  0  0  0  0  0  0  0  0  0
   -1.0390   -1.7430   30.8030 N   0  0  0  0  0  0  0  0  0  0  0  0
   -1.3090   -2.1020   29.3970 C   0  0  0  0  0  0  0  0  0  0  0  0
   -0.1770   -1.5770   28.5490 C   0  0  0  0  0  0  0  0  0  0  0  0
   -0.1250   -0.1510   28.5470 O   0  0  0  0  0  0  0  0  0  0  0  0
   -0.3860    0.3740   29.8490 C   0  0  0  0  0  0  0  0  0  0  0  0
   -0.0810   -0.6280   30.9280 C   0  0  0  0  0  0  0  0  0  0  0  0
    0.4530   -3.6230   31.7380 N   0  0  0  0  0  0  0  0  0  0  0  0
    0.6900   -4.5500   30.6250 C   0  0  0  0  0  0  0  0  0  0  0  0
    1.4620   -5.7650   31.0830 C   0  0  0  0  0  0  0  0  0  0  0  0
    0.5150   -6.5340   31.9520 C   0  0  0  0  0  0  0  0  0  0  0  0
   -0.3120   -7.3570   31.3010 N   0  0  0  0  0  0  0  0  0  0  0  0
   -1.2440   -7.9490   32.0550 C   0  0  0  0  0  0  0  0  0  0  0  0
   -2.0940   -8.7200   31.4470 O   0  0  0  0  0  0  0  0  0  0  0  0
   -1.3430   -7.7430   33.4530 C   0  0  0  0  0  0  0  0  0  0  0  0
    0.5220   -6.2760   33.2660 N   0  0  0  0  0  0  0  0  0  0  0  0
   -0.4080   -6.8910   34.0150 C   0  0  0  0  0  0  0  0  0  0  0  0
   -0.3680   -6.6230   35.4880 C   0  0  0  0  0  0  0  0  0  0  0  0
 20 19  1  0
 19 17  2  0
 17 15  1  0
 16 15  1  0
 15 14  2  0
 14 13  1  0
 13 12  1  0
 12 11  1  0
 11 10  1  0
 10  2  1  0
  3  2  2  0
  2  1  2  0
  4  2  1  0
  4  9  1  0
  9  8  1  0
  8  7  1  0
  7  6  1  0
  6  5  1  0
  5  4  1  0
 18 13  2  0
 19 18  1  0
M  END
>  <smiles>  (136) 
Cc1cc(O)nc(CCNS(=O)(=O)N2CCOCC2)n1

>  <inchikey>  (136) 
BDTWKIPTSXXQQL-UHFFFAOYSA-N

>  <alias>  (136) 
B1463a

$$$$
