XX01ZVNS2B-x3559_B_203_1_XX01ZVNS2B-x4590+B+203+1__LIG
     RDKit          3D

 25 29  0  0  0  0  0  0  0  0999 V2000
   -4.8480    5.4580  -19.1380 C   0  0  0  0  0  0  0  0  0  0  0  0
   -5.2130    5.4330  -17.7310 N   0  0  0  0  0  0  0  0  0  0  0  0
   -4.3320    5.8450  -16.7730 N   0  0  0  0  0  0  0  0  0  0  0  0
   -4.9130    5.6620  -15.6050 C   0  0  0  0  0  0  0  0  0  0  0  0
   -6.2250    5.1560  -15.7790 C   0  0  0  0  0  0  0  0  0  0  0  0
   -7.3170    4.7560  -14.9500 C   0  0  0  0  0  0  0  0  0  0  0  0
   -7.3130    4.9410  -13.4660 C   0  0  0  0  0  0  0  0  0  0  0  0
   -6.5110    5.7150  -12.9490 O   0  0  0  0  0  0  0  0  0  0  0  0
   -8.1840    4.1820  -12.7600 N   0  0  0  0  0  0  0  0  0  0  0  0
   -8.3470    4.1420  -11.3540 C   0  0  0  0  0  0  0  0  0  0  0  0
   -8.0400    5.2560  -10.5750 C   0  0  0  0  0  0  0  0  0  0  0  0
   -8.1830    5.2100   -9.1970 C   0  0  0  0  0  0  0  0  0  0  0  0
   -8.5500    4.0110   -8.6010 C   0  0  0  0  0  0  0  0  0  0  0  0
   -8.8400    2.8920   -9.3720 C   0  0  0  0  0  0  0  0  0  0  0  0
   -8.7120    2.9290  -10.7540 C   0  0  0  0  0  0  0  0  0  0  0  0
   -9.2500    1.7620   -8.4740 C   0  0  0  0  0  0  0  0  0  0  0  0
   -8.7490    2.2250   -7.1730 N   0  0  0  0  0  0  0  0  0  0  0  0
   -8.7940    3.6940   -7.1520 C   0  0  0  0  0  0  0  0  0  0  0  0
   -8.4560    4.2990  -15.5960 C   0  0  0  0  0  0  0  0  0  0  0  0
   -8.4860    4.1850  -17.0050 C   0  0  0  0  0  0  0  0  0  0  0  0
   -9.6810    3.6510  -17.7020 C   0  0  0  0  0  0  0  0  0  0  0  0
   -9.9290    3.9710  -19.1400 C   0  0  0  0  0  0  0  0  0  0  0  0
   -9.5130    2.6140  -18.7610 C   0  0  0  0  0  0  0  0  0  0  0  0
   -7.4530    4.5220  -17.7720 N   0  0  0  0  0  0  0  0  0  0  0  0
   -6.3650    5.0160  -17.1690 C   0  0  0  0  0  0  0  0  0  0  0  0
  1  2  1  0
  2  3  1  0
  3  4  2  0
  4  5  1  0
  5  6  2  0
  6  7  1  0
  7  8  2  0
  7  9  1  0
  9 10  1  0
 10 11  2  0
 11 12  1  0
 12 13  2  0
 13 14  1  0
 14 15  2  0
 14 16  1  0
 16 17  1  0
 17 18  1  0
  6 19  1  0
 19 20  2  0
 20 21  1  0
 21 22  1  0
 22 23  1  0
 20 24  1  0
 24 25  2  0
  2 25  1  0
  5 25  1  0
 10 15  1  0
 21 23  1  0
 13 18  1  0
M  END
$$$$
