A71EV2A-x4654_A_201_1_A71EV2A-x0911+A+147+1__LIG
     RDKit          3D

 24 26  0  0  0  0  0  0  0  0999 V2000
    6.0130   14.1250   25.3090 O   0  0  0  0  0  0  0  0  0  0  0  0
    6.8650   13.5650   26.3270 S   0  0  0  0  0  0  0  0  0  0  0  0
    7.9670   14.3720   26.7930 O   0  0  0  0  0  0  0  0  0  0  0  0
    5.8840   13.0590   27.6930 C   0  0  0  0  0  0  0  0  0  0  0  0
    5.0140   11.8590   27.3390 C   0  0  0  0  0  0  0  0  0  0  0  0
    5.8490   10.6090   27.1250 C   0  0  0  0  0  0  0  0  0  0  0  0
    6.9190   10.7680   26.0760 C   0  0  0  0  0  0  0  0  0  0  0  0
    7.4140    9.6290   25.4460 C   0  0  0  0  0  0  0  0  0  0  0  0
    8.4860    9.6930   24.5770 C   0  0  0  0  0  0  0  0  0  0  0  0
    9.0720   10.9070   24.2850 C   0  0  0  0  0  0  0  0  0  0  0  0
    7.4890   12.0120   25.7450 C   0  0  0  0  0  0  0  0  0  0  0  0
    8.5630   12.0800   24.8420 C   0  0  0  0  0  0  0  0  0  0  0  0
    9.0470   13.3100   24.3690 N   0  0  0  0  0  0  0  0  0  0  0  0
    8.6560   13.8280   23.1820 C   0  0  0  0  0  0  0  0  0  0  0  0
    7.7970   13.2970   22.4850 O   0  0  0  0  0  0  0  0  0  0  0  0
    9.2420   15.0060   22.8240 N   0  0  0  0  0  0  0  0  0  0  0  0
   10.2700   15.6990   23.6210 C   0  0  0  0  0  0  0  0  0  0  0  0
   11.6510   15.4960   23.0210 C   0  0  0  0  0  0  0  0  0  0  0  0
   11.6590   15.8950   21.5470 C   0  0  0  0  0  0  0  0  0  0  0  0
    9.1900   15.4250   21.4220 C   0  0  0  0  0  0  0  0  0  0  0  0
   10.5490   15.1750   20.7640 C   0  0  1  0  0  0  0  0  0  0  0  0
   10.4930   15.6710   19.3290 C   0  0  0  0  0  0  0  0  0  0  0  0
   10.1810   16.8410   19.0760 O   0  0  0  0  0  0  0  0  0  0  0  0
   10.7940   14.7730   18.3940 N   0  0  0  0  0  0  0  0  0  0  0  0
 24 22  1  0
 23 22  2  0
 21 22  1  6
 21 19  1  0
 19 18  1  0
 18 17  1  0
 17 16  1  0
 16 14  1  0
 15 14  2  0
 14 13  1  0
 13 12  1  0
 12 10  1  0
 10  9  2  0
  9  8  1  0
  8  7  2  0
  7 11  1  0
 12 11  2  0
 11  2  1  0
  3  2  2  0
  2  1  2  0
  4  2  1  0
  5  4  1  0
  6  5  1  0
  7  6  1  0
 20 16  1  0
 21 20  1  0
M  END
$$$$
