XX01ZVNS2B-x4240_B_203_1_XX01ZVNS2B-x4590+B+203+1__LIG
     RDKit          3D

 29 32  0  0  0  0  0  0  0  0999 V2000
  -10.5100    3.9380  -18.0840 Cl  0  0  0  0  0  0  0  0  0  0  0  0
   -8.9810    4.2580  -17.3120 C   0  0  0  0  0  0  0  0  0  0  0  0
   -8.8850    4.1720  -15.9300 C   0  0  0  0  0  0  0  0  0  0  0  0
   -7.9240    4.6240  -18.0840 C   0  0  0  0  0  0  0  0  0  0  0  0
   -6.6940    4.9320  -17.4700 C   0  0  0  0  0  0  0  0  0  0  0  0
   -6.5670    4.8760  -16.0610 C   0  0  0  0  0  0  0  0  0  0  0  0
   -5.3770    5.1090  -15.4290 N   0  0  0  0  0  0  0  0  0  0  0  0
   -4.3180    5.3480  -16.1860 C   0  0  0  0  0  0  0  0  0  0  0  0
   -4.3390    5.3970  -17.5740 C   0  0  0  0  0  0  0  0  0  0  0  0
   -5.5260    5.2130  -18.2170 C   0  0  0  0  0  0  0  0  0  0  0  0
   -7.7000    4.4670  -15.2930 C   0  0  0  0  0  0  0  0  0  0  0  0
   -7.5340    4.2850  -13.7780 C   0  0  2  0  0  0  0  0  0  0  0  0
   -6.6920    3.0400  -13.4790 C   0  0  0  0  0  0  0  0  0  0  0  0
   -5.5140    3.2950  -12.9080 N   0  0  0  0  0  0  0  0  0  0  0  0
   -4.6300    2.2410  -12.4380 C   0  0  0  0  0  0  0  0  0  0  0  0
   -3.4210    2.0870  -13.4390 C   0  0  0  0  0  0  0  0  0  0  0  0
   -2.7800    3.2850  -13.5240 F   0  0  0  0  0  0  0  0  0  0  0  0
   -3.8950    1.8360  -14.6890 F   0  0  0  0  0  0  0  0  0  0  0  0
   -7.0970    1.9020  -13.7130 O   0  0  0  0  0  0  0  0  0  0  0  0
   -8.7250    4.1910  -12.9590 N   0  0  0  0  0  0  0  0  0  0  0  0
   -8.6230    4.2000  -11.5620 C   0  0  0  0  0  0  0  0  0  0  0  0
   -8.9160    3.0410  -10.8420 C   0  0  0  0  0  0  0  0  0  0  0  0
   -8.8530    3.0410   -9.4520 C   0  0  0  0  0  0  0  0  0  0  0  0
   -9.1760    1.9380   -8.4890 C   0  0  0  0  0  0  0  0  0  0  0  0
   -8.8250    2.5290   -7.1920 N   0  0  0  0  0  0  0  0  0  0  0  0
   -8.5080    3.9610   -7.2890 C   0  0  0  0  0  0  0  0  0  0  0  0
   -8.4930    4.1970   -8.7700 C   0  0  0  0  0  0  0  0  0  0  0  0
   -8.2010    5.3570   -9.4880 C   0  0  0  0  0  0  0  0  0  0  0  0
   -8.2620    5.3600  -10.8730 C   0  0  0  0  0  0  0  0  0  0  0  0
 19 13  2  0
 14 13  1  0
 15 14  1  0
 16 15  1  0
 18 16  1  0
 17 16  1  0
 13 12  1  0
 12 20  1  1
 21 20  1  0
 21 29  2  0
 29 28  1  0
 28 27  2  0
 27 23  1  0
 23 22  2  0
 22 21  1  0
 24 23  1  0
 25 24  1  0
 26 25  1  0
 27 26  1  0
 12 11  1  0
 11  3  1  0
  3  2  2  0
  2  1  1  0
  4  2  1  0
  5  4  2  0
  5 10  1  0
 10  9  2  0
  9  8  1  0
  8  7  2  0
  7  6  1  0
 11  6  2  0
  6  5  1  0
M  END
$$$$
