XX01ZVNS2B-x1265_B_301_1_XX01ZVNS2B-x4590+B+203+1__LIG
     RDKit          3D

 23 25  0  0  0  0  0  0  0  0999 V2000
   -1.6440    6.3170  -14.4640 C   0  0  0  0  0  0  0  0  0  0  0  0
   -2.8340    5.5650  -14.7560 O   0  0  0  0  0  0  0  0  0  0  0  0
   -3.7040    6.0580  -15.6710 C   0  0  0  0  0  0  0  0  0  0  0  0
   -4.8900    5.3590  -15.8640 C   0  0  0  0  0  0  0  0  0  0  0  0
   -5.8220    5.8410  -16.7820 C   0  0  0  0  0  0  0  0  0  0  0  0
   -7.1120    5.1330  -17.0430 C   0  0  0  0  0  0  0  0  0  0  0  0
   -7.4170    4.8310  -18.3720 C   0  0  0  0  0  0  0  0  0  0  0  0
   -8.5860    4.1840  -18.7210 C   0  0  0  0  0  0  0  0  0  0  0  0
   -9.4900    3.8280  -17.7500 C   0  0  0  0  0  0  0  0  0  0  0  0
   -9.2260    4.1180  -16.4280 C   0  0  0  0  0  0  0  0  0  0  0  0
   -8.0470    4.7700  -16.0500 C   0  0  0  0  0  0  0  0  0  0  0  0
   -7.8880    5.0200  -14.5740 C   0  0  0  0  0  0  0  0  0  0  0  0
   -7.4590    6.0790  -14.1470 O   0  0  0  0  0  0  0  0  0  0  0  0
   -8.2490    4.0100  -13.7410 N   0  0  0  0  0  0  0  0  0  0  0  0
   -8.2990    4.1190  -12.3420 C   0  0  0  0  0  0  0  0  0  0  0  0
   -8.6670    3.1220  -11.4380 C   0  0  0  0  0  0  0  0  0  0  0  0
   -8.5960    3.5410  -10.1840 N   0  0  0  0  0  0  0  0  0  0  0  0
   -8.1690    4.8390  -10.2700 N   0  0  0  0  0  0  0  0  0  0  0  0
   -7.9860    5.6240   -9.0530 C   0  0  0  0  0  0  0  0  0  0  0  0
   -7.9910    5.2270  -11.5520 C   0  0  0  0  0  0  0  0  0  0  0  0
   -5.4980    6.9880  -17.4790 C   0  0  0  0  0  0  0  0  0  0  0  0
   -4.2960    7.6230  -17.2280 C   0  0  0  0  0  0  0  0  0  0  0  0
   -3.3990    7.1590  -16.3320 N   0  0  0  0  0  0  0  0  0  0  0  0
  1  2  1  0
  2  3  1  0
  3  4  2  0
  4  5  1  0
  5  6  1  0
  6  7  2  0
  7  8  1  0
  8  9  2  0
  9 10  1  0
 10 11  2  0
 11 12  1  0
 12 13  2  0
 12 14  1  0
 14 15  1  0
 15 16  1  0
 16 17  2  0
 17 18  1  0
 18 19  1  0
 18 20  1  0
  5 21  2  0
 21 22  1  0
 22 23  2  0
  3 23  1  0
  6 11  1  0
 15 20  2  0
M  END
$$$$
