A71EV2A-x3419_A_201_1_A71EV2A-x0911+A+147+1__LIG
     RDKit          3D

 22 24  0  0  0  0  0  0  0  0999 V2000
    7.9360    8.5420   24.6620 O   0  0  0  0  0  0  0  0  0  0  0  0
    8.4830    9.6130   24.4990 C   0  0  0  0  0  0  0  0  0  0  0  0
    9.5360    9.7350   23.6160 N   0  0  0  0  0  0  0  0  0  0  0  0
   10.0590    8.5720   22.9160 C   0  0  0  0  0  0  0  0  0  0  0  0
    8.0390   10.8690   25.1070 C   0  0  0  0  0  0  0  0  0  0  0  0
    6.9670   10.8720   26.0030 C   0  0  0  0  0  0  0  0  0  0  0  0
    6.5000   12.0690   26.5170 C   0  0  0  0  0  0  0  0  0  0  0  0
    7.1020   13.2610   26.1680 C   0  0  0  0  0  0  0  0  0  0  0  0
    8.1840   13.2700   25.3050 C   0  0  0  0  0  0  0  0  0  0  0  0
    8.6770   12.0730   24.7850 C   0  0  0  0  0  0  0  0  0  0  0  0
    9.8370   12.0030   23.8710 C   0  0  0  0  0  0  0  0  0  0  0  0
   10.2250   10.8890   23.3240 N   0  0  0  0  0  0  0  0  0  0  0  0
   10.7540   13.1790   23.6330 C   0  0  0  0  0  0  0  0  0  0  0  0
   10.9290   14.0140   24.5060 O   0  0  0  0  0  0  0  0  0  0  0  0
   11.3720   13.2280   22.4440 N   0  0  0  0  0  0  0  0  0  0  0  0
   12.4320   14.1940   22.1910 C   0  0  0  0  0  0  0  0  0  0  0  0
   12.5860   14.4720   20.7070 C   0  0  0  0  0  0  0  0  0  0  0  0
   11.3990   15.1960   20.1610 C   0  0  0  0  0  0  0  0  0  0  0  0
   10.7130   16.1380   20.9090 N   0  0  0  0  0  0  0  0  0  0  0  0
    9.7480   16.5030   20.1420 C   0  0  0  0  0  0  0  0  0  0  0  0
    9.7260   15.9250   18.9230 O   0  0  0  0  0  0  0  0  0  0  0  0
   10.8000   15.0780   18.9660 C   0  0  0  0  0  0  0  0  0  0  0  0
  4  3  1  0
  3 12  1  0
 12 11  2  0
 13 11  1  0
 14 13  2  0
 15 13  1  0
 16 15  1  0
 17 16  1  0
 18 17  1  0
 18 22  2  0
 22 21  1  0
 21 20  1  0
 20 19  2  0
 19 18  1  0
 11 10  1  0
 10  9  2  0
  9  8  1  0
  8  7  2  0
  7  6  1  0
  6  5  2  0
 10  5  1  0
  5  2  1  0
  3  2  1  0
  2  1  2  0
M  END
$$$$
