A71EV2A-x5065_A_201_3_A71EV2A-x0911+A+147+1__LIG
     RDKit          3D

 19 20  0  0  0  0  0  0  0  0999 V2000
   11.8150   15.7140   24.1780 O   0  0  0  0  0  0  0  0  0  0  0  0
   11.3820   15.3260   23.1010 C   0  0  0  0  0  0  0  0  0  0  0  0
   11.8660   15.7140   21.7320 C   0  0  0  0  0  0  0  0  0  0  0  0
   11.2430   14.6570   20.8100 C   0  0  2  0  0  0  0  0  0  0  0  0
   10.9270   15.2060   19.4280 C   0  0  0  0  0  0  0  0  0  0  0  0
   10.3110   16.2720   19.2860 O   0  0  0  0  0  0  0  0  0  0  0  0
   11.3050   14.4570   18.4050 N   0  0  0  0  0  0  0  0  0  0  0  0
    9.9800   14.2430   21.5570 C   0  0  0  0  0  0  0  0  0  0  0  0
   10.3390   14.4970   22.9580 N   0  0  0  0  0  0  0  0  0  0  0  0
    9.5810   13.9470   24.0870 C   0  0  0  0  0  0  0  0  0  0  0  0
    8.1830   13.4710   23.7070 C   0  0  0  0  0  0  0  0  0  0  0  0
    7.6430   12.4230   24.6560 C   0  0  0  0  0  0  0  0  0  0  0  0
    7.8630   11.0550   24.4560 C   0  0  0  0  0  0  0  0  0  0  0  0
    9.0370   10.5910   23.2180 S   0  0  0  0  0  0  0  0  0  0  0  0
    9.1570    8.8130   23.3960 C   0  0  0  0  0  0  0  0  0  0  0  0
    6.7760   12.8160   25.6720 C   0  0  0  0  0  0  0  0  0  0  0  0
    6.1060   11.8780   26.4390 C   0  0  0  0  0  0  0  0  0  0  0  0
    6.2950   10.5350   26.2090 C   0  0  0  0  0  0  0  0  0  0  0  0
    7.1740   10.1130   25.2230 C   0  0  0  0  0  0  0  0  0  0  0  0
 15 14  1  0
 14 13  1  0
 13 19  2  0
 19 18  1  0
 18 17  2  0
 17 16  1  0
 16 12  2  0
 13 12  1  0
 12 11  1  0
 11 10  1  0
 10  9  1  0
  9  8  1  0
  8  4  1  0
  4  5  1  6
  7  5  1  0
  6  5  2  0
  4  3  1  0
  3  2  1  0
  9  2  1  0
  2  1  2  0
M  END
$$$$
