XX01ZVNS2B-x3837_B_203_1_XX01ZVNS2B-x4590+B+203+1__LIG
     RDKit          3D

 23 26  0  0  0  0  0  0  0  0999 V2000
   -6.4670    5.4060  -13.3120 O   0  0  0  0  0  0  0  0  0  0  0  0
   -7.3860    4.7230  -13.7570 C   0  0  0  0  0  0  0  0  0  0  0  0
   -7.5900    4.5660  -15.2360 C   0  0  0  0  0  0  0  0  0  0  0  0
   -6.5480    4.7340  -16.1580 C   0  0  0  0  0  0  0  0  0  0  0  0
   -5.0880    5.0220  -15.9850 C   0  0  0  0  0  0  0  0  0  0  0  0
   -8.8660    4.2720  -15.7140 C   0  0  0  0  0  0  0  0  0  0  0  0
   -9.1040    4.1650  -17.0780 C   0  0  0  0  0  0  0  0  0  0  0  0
   -8.0810    4.3420  -17.9960 C   0  0  0  0  0  0  0  0  0  0  0  0
   -6.8010    4.6120  -17.5200 C   0  0  0  0  0  0  0  0  0  0  0  0
   -5.6060    4.7330  -18.2290 N   0  0  0  0  0  0  0  0  0  0  0  0
   -4.5510    4.9500  -17.3990 C   0  0  0  0  0  0  0  0  0  0  0  0
   -3.3760    5.0320  -17.7480 O   0  0  0  0  0  0  0  0  0  0  0  0
   -8.3040    4.1070  -12.9680 N   0  0  0  0  0  0  0  0  0  0  0  0
   -8.3980    4.1590  -11.5530 C   0  0  0  0  0  0  0  0  0  0  0  0
   -8.6630    3.0110  -10.8120 C   0  0  0  0  0  0  0  0  0  0  0  0
   -8.6950    3.0480   -9.4170 C   0  0  0  0  0  0  0  0  0  0  0  0
   -9.0350    1.8090   -8.6260 C   0  0  0  0  0  0  0  0  0  0  0  0
   -8.5970    1.9000   -7.2340 N   0  0  0  0  0  0  0  0  0  0  0  0
   -9.0800    3.1420   -6.6210 C   0  0  0  0  0  0  0  0  0  0  0  0
   -8.4090    4.3410   -7.2480 C   0  0  0  0  0  0  0  0  0  0  0  0
   -8.4390    4.2630   -8.7570 C   0  0  0  0  0  0  0  0  0  0  0  0
   -8.1920    5.4050   -9.5140 C   0  0  0  0  0  0  0  0  0  0  0  0
   -8.1820    5.3610  -10.8950 C   0  0  0  0  0  0  0  0  0  0  0  0
 12 11  2  0
 11  5  1  0
  5  4  1  0
  4  9  2  0
  9  8  1  0
  8  7  2  0
  7  6  1  0
  6  3  2  0
  4  3  1  0
  3  2  1  0
  2  1  2  0
 13  2  1  0
 14 13  1  0
 14 23  2  0
 23 22  1  0
 22 21  2  0
 21 16  1  0
 16 15  2  0
 15 14  1  0
 17 16  1  0
 18 17  1  0
 19 18  1  0
 20 19  1  0
 21 20  1  0
 10  9  1  0
 11 10  1  0
M  END
$$$$
