A71EV2A-x3694_A_201_1_A71EV2A-x0911+A+147+1__LIG
     RDKit          3D

 20 21  0  0  0  0  0  0  0  0999 V2000
   10.4860   16.6760   19.0220 O   0  0  0  0  0  0  0  0  0  0  0  0
   11.0440   15.5940   19.2180 C   0  0  0  0  0  0  0  0  0  0  0  0
   11.0440   14.6200   18.3240 N   0  0  0  0  0  0  0  0  0  0  0  0
   11.7990   15.3310   20.4990 C   0  0  0  0  0  0  0  0  0  0  0  0
   11.0050   15.6810   21.7170 C   0  0  2  0  0  0  0  0  0  0  0  0
   11.8080   15.3430   22.9900 C   0  0  0  0  0  0  0  0  0  0  0  0
   11.0870   14.2150   23.7010 C   0  0  0  0  0  0  0  0  0  0  0  0
    9.6870   14.9130   21.8150 C   0  0  0  0  0  0  0  0  0  0  0  0
    9.7440   14.2020   23.0930 N   0  0  0  0  0  0  0  0  0  0  0  0
    8.6800   13.5150   23.5390 C   0  0  0  0  0  0  0  0  0  0  0  0
    7.6470   13.4130   22.8880 O   0  0  0  0  0  0  0  0  0  0  0  0
    8.8360   12.9110   24.9220 C   0  0  0  0  0  0  0  0  0  0  0  0
    7.7630   11.8910   25.2260 C   0  0  0  0  0  0  0  0  0  0  0  0
    7.8570   10.6070   24.6940 C   0  0  0  0  0  0  0  0  0  0  0  0
    8.8800   10.4240   23.8020 O   0  0  0  0  0  0  0  0  0  0  0  0
    9.2290    9.1000   23.4300 C   0  0  0  0  0  0  0  0  0  0  0  0
    6.7300   12.1660   26.1150 C   0  0  0  0  0  0  0  0  0  0  0  0
    5.8260   11.1850   26.4780 C   0  0  0  0  0  0  0  0  0  0  0  0
    5.9420    9.9200   25.9600 C   0  0  0  0  0  0  0  0  0  0  0  0
    6.9570    9.6230   25.0620 C   0  0  0  0  0  0  0  0  0  0  0  0
 16 15  1  0
 15 14  1  0
 14 20  2  0
 20 19  1  0
 19 18  2  0
 18 17  1  0
 17 13  2  0
 14 13  1  0
 13 12  1  0
 12 10  1  0
 11 10  2  0
 10  9  1  0
  9  7  1  0
  7  6  1  0
  6  5  1  0
  5  4  1  6
  4  2  1  0
  3  2  1  0
  2  1  2  0
  8  5  1  0
  9  8  1  0
M  END
$$$$
