A71EV2A-x5258_A_201_3_A71EV2A-x0911+A+147+1__LIG
     RDKit          3D

 22 24  0  0  0  0  0  0  0  0999 V2000
   10.6040   15.8320   24.3100 O   0  0  0  0  0  0  0  0  0  0  0  0
   10.4160   15.4610   23.1580 C   0  0  0  0  0  0  0  0  0  0  0  0
   11.1680   15.8950   21.9300 C   0  0  0  0  0  0  0  0  0  0  0  0
   10.7550   14.8690   20.8700 C   0  0  2  0  0  0  0  0  0  0  0  0
   10.7030   15.4680   19.4750 C   0  0  0  0  0  0  0  0  0  0  0  0
   10.5150   16.6730   19.3030 O   0  0  0  0  0  0  0  0  0  0  0  0
   10.8350   14.6160   18.4720 N   0  0  0  0  0  0  0  0  0  0  0  0
    9.3810   14.4090   21.3160 C   0  0  0  0  0  0  0  0  0  0  0  0
    9.4100   14.6520   22.7630 N   0  0  0  0  0  0  0  0  0  0  0  0
    8.3520   14.1700   23.6610 C   0  0  1  0  0  0  0  0  0  0  0  0
    7.0290   14.3780   22.9620 C   0  0  0  0  0  0  0  0  0  0  0  0
    6.3530   13.4230   22.3560 N   0  0  0  0  0  0  0  0  0  0  0  0
    5.2890   14.0580   21.7610 C   0  0  0  0  0  0  0  0  0  0  0  0
    5.3240   15.3820   22.0200 C   0  0  0  0  0  0  0  0  0  0  0  0
    6.4360   15.5890   22.7930 N   0  0  0  0  0  0  0  0  0  0  0  0
    6.8540   16.8780   23.3410 C   0  0  0  0  0  0  0  0  0  0  0  0
    8.4970   12.6900   23.9820 C   0  0  0  0  0  0  0  0  0  0  0  0
    7.7190   12.1120   24.9810 C   0  0  0  0  0  0  0  0  0  0  0  0
    7.8180   10.7590   25.2540 C   0  0  0  0  0  0  0  0  0  0  0  0
    8.6950    9.9670   24.5400 C   0  0  0  0  0  0  0  0  0  0  0  0
    9.4760   10.5280   23.5540 C   0  0  0  0  0  0  0  0  0  0  0  0
    9.3820   11.8820   23.2770 C   0  0  0  0  0  0  0  0  0  0  0  0
 16 15  1  0
 15 14  1  0
 14 13  2  0
 13 12  1  0
 12 11  2  0
 15 11  1  0
 11 10  1  0
 17 10  1  0
 17 22  2  0
 22 21  1  0
 21 20  2  0
 20 19  1  0
 19 18  2  0
 18 17  1  0
 10  9  1  6
  9  8  1  0
  8  4  1  0
  4  5  1  6
  7  5  1  0
  6  5  2  0
  4  3  1  0
  3  2  1  0
  9  2  1  0
  2  1  2  0
M  END
$$$$
