A71EV2A-x0501_A_151_1_A71EV2A-x0911+A+147+1__LIG
     RDKit          3D

 13 14  0  0  0  0  0  0  0  0999 V2000
    9.2820    8.5910   23.1640 C   0  0  0  0  0  0  0  0  0  0  0  0
    9.4290    9.9880   23.4310 O   0  0  0  0  0  0  0  0  0  0  0  0
    8.5840   10.5660   24.3400 C   0  0  0  0  0  0  0  0  0  0  0  0
    8.8080   11.9240   24.5780 C   0  0  0  0  0  0  0  0  0  0  0  0
    7.9720   12.5990   25.4750 C   0  0  0  0  0  0  0  0  0  0  0  0
    6.9520   11.9260   26.1170 C   0  0  0  0  0  0  0  0  0  0  0  0
    6.7460   10.5880   25.8730 C   0  0  0  0  0  0  0  0  0  0  0  0
    7.5620    9.8980   24.9930 C   0  0  0  0  0  0  0  0  0  0  0  0
    9.8840   12.6600   23.9220 C   0  0  0  0  0  0  0  0  0  0  0  0
   10.6340   13.5830   24.5840 O   0  0  0  0  0  0  0  0  0  0  0  0
   11.5830   13.9420   23.6830 C   0  0  0  0  0  0  0  0  0  0  0  0
   11.4020   13.2850   22.5430 N   0  0  0  0  0  0  0  0  0  0  0  0
   10.2890   12.4780   22.7110 N   0  0  0  0  0  0  0  0  0  0  0  0
  2  1  1  0
  3  2  1  0
  3  8  2  0
  8  7  1  0
  7  6  2  0
  6  5  1  0
  5  4  2  0
  4  3  1  0
  9  4  1  0
  9 13  2  0
 13 12  1  0
 12 11  2  0
 11 10  1  0
 10  9  1  0
M  END
$$$$
