XX01ZVNS2B-x3473_B_203_1_XX01ZVNS2B-x4590+B+203+1__LIG
     RDKit          3D

 21 23  0  0  0  0  0  0  0  0999 V2000
   -6.8680    3.7710  -20.4910 N   0  0  0  0  0  0  0  0  0  0  0  0
   -6.9930    3.9770  -19.3630 C   0  0  0  0  0  0  0  0  0  0  0  0
   -7.1370    4.1830  -17.9390 C   0  0  0  0  0  0  0  0  0  0  0  0
   -6.0330    4.5840  -17.1940 C   0  0  0  0  0  0  0  0  0  0  0  0
   -6.1490    4.7470  -15.8260 C   0  0  0  0  0  0  0  0  0  0  0  0
   -7.3630    4.5330  -15.1850 C   0  0  0  0  0  0  0  0  0  0  0  0
   -7.4420    4.8000  -13.7120 C   0  0  0  0  0  0  0  0  0  0  0  0
   -6.6280    5.5500  -13.1830 O   0  0  0  0  0  0  0  0  0  0  0  0
   -8.3500    4.0820  -13.0060 N   0  0  0  0  0  0  0  0  0  0  0  0
   -8.4940    4.0390  -11.5880 C   0  0  0  0  0  0  0  0  0  0  0  0
   -8.2480    5.1860  -10.8330 C   0  0  0  0  0  0  0  0  0  0  0  0
   -8.3720    5.1630   -9.4540 C   0  0  0  0  0  0  0  0  0  0  0  0
   -8.6670    3.9600   -8.8250 C   0  0  0  0  0  0  0  0  0  0  0  0
   -8.9070    2.8120   -9.5690 C   0  0  0  0  0  0  0  0  0  0  0  0
   -8.7650    2.8200  -10.9510 C   0  0  0  0  0  0  0  0  0  0  0  0
   -9.2290    1.6760   -8.6380 C   0  0  0  0  0  0  0  0  0  0  0  0
   -8.7330    2.1900   -7.3570 N   0  0  0  0  0  0  0  0  0  0  0  0
   -8.8520    3.6590   -7.3650 C   0  0  0  0  0  0  0  0  0  0  0  0
   -8.4810    4.1910  -15.9370 C   0  0  0  0  0  0  0  0  0  0  0  0
   -8.3650    3.9780  -17.3030 C   0  0  0  0  0  0  0  0  0  0  0  0
   -9.7920    3.5730  -18.2140 Cl  0  0  0  0  0  0  0  0  0  0  0  0
  1  2  3  0
  2  3  1  0
  3  4  2  0
  4  5  1  0
  5  6  2  0
  6  7  1  0
  7  8  2  0
  7  9  1  0
  9 10  1  0
 10 11  2  0
 11 12  1  0
 12 13  2  0
 13 14  1  0
 14 15  2  0
 14 16  1  0
 16 17  1  0
 17 18  1  0
  6 19  1  0
 19 20  2  0
 20 21  1  0
  3 20  1  0
 10 15  1  0
 13 18  1  0
M  END
$$$$
