XX01ZVNS2B-x4478_B_203_1_XX01ZVNS2B-x4590+B+203+1__LIG
     RDKit          3D

 26 30  0  0  0  0  0  0  0  0999 V2000
   -6.7500    5.6300  -12.9660 O   0  0  0  0  0  0  0  0  0  0  0  0
   -7.5260    4.7990  -13.4310 C   0  0  0  0  0  0  0  0  0  0  0  0
   -7.6700    4.6430  -14.9100 C   0  0  0  0  0  0  0  0  0  0  0  0
   -8.8650    4.3080  -15.5520 C   0  0  0  0  0  0  0  0  0  0  0  0
   -8.9640    4.3160  -16.9350 C   0  0  0  0  0  0  0  0  0  0  0  0
   -6.5410    4.9530  -15.6630 C   0  0  0  0  0  0  0  0  0  0  0  0
   -6.6090    4.9500  -17.0540 C   0  0  0  0  0  0  0  0  0  0  0  0
   -7.8340    4.6440  -17.6740 C   0  0  0  0  0  0  0  0  0  0  0  0
   -7.6370    4.7070  -19.0310 N   0  0  0  0  0  0  0  0  0  0  0  0
   -6.3270    5.0230  -19.2760 C   0  0  0  0  0  0  0  0  0  0  0  0
   -5.6480    5.1640  -18.1010 C   0  0  0  0  0  0  0  0  0  0  0  0
   -4.1670    5.3480  -17.9140 C   0  0  0  0  0  0  0  0  0  0  0  0
   -3.4550    6.1510  -19.0280 C   0  0  0  0  0  0  0  0  0  0  0  0
   -3.7240    6.4570  -16.9280 C   0  0  0  0  0  0  0  0  0  0  0  0
   -2.7650    6.9300  -17.9630 N   0  0  0  0  0  0  0  0  0  0  0  0
   -1.3480    6.6140  -17.7340 C   0  0  0  0  0  0  0  0  0  0  0  0
   -8.2950    3.9820  -12.6670 N   0  0  0  0  0  0  0  0  0  0  0  0
   -8.3710    3.9770  -11.2500 C   0  0  0  0  0  0  0  0  0  0  0  0
   -8.6660    2.8140  -10.5360 C   0  0  0  0  0  0  0  0  0  0  0  0
   -8.7410    2.8460   -9.1430 C   0  0  0  0  0  0  0  0  0  0  0  0
   -9.0660    1.7510   -8.1690 C   0  0  0  0  0  0  0  0  0  0  0  0
   -8.8420    2.3960   -6.8810 N   0  0  0  0  0  0  0  0  0  0  0  0
   -8.6440    3.8350   -6.9850 C   0  0  0  0  0  0  0  0  0  0  0  0
   -8.5150    4.0400   -8.4660 C   0  0  0  0  0  0  0  0  0  0  0  0
   -8.2250    5.1980   -9.1800 C   0  0  0  0  0  0  0  0  0  0  0  0
   -8.1530    5.1680  -10.5610 C   0  0  0  0  0  0  0  0  0  0  0  0
 16 15  1  0
 15 13  1  0
 13 12  1  0
 12 11  1  0
 11 10  2  0
 10  9  1  0
  9  8  1  0
  8  5  1  0
  5  4  2  0
  4  3  1  0
  3  2  1  0
  2  1  2  0
 17  2  1  0
 18 17  1  0
 18 26  2  0
 26 25  1  0
 25 24  2  0
 24 20  1  0
 20 19  2  0
 19 18  1  0
 21 20  1  0
 22 21  1  0
 23 22  1  0
 24 23  1  0
  6  3  2  0
  7  6  1  0
 11  7  1  0
  8  7  2  0
 14 12  1  0
 15 14  1  0
M  END
$$$$
