A71EV2A-x3616_C_201_1_A71EV2A-x0911+A+147+1__LIG
     RDKit          3D

 20 21  0  0  0  0  0  0  0  0999 V2000
   10.4140   16.8250   19.0750 O   0  0  0  0  0  0  0  0  0  0  0  0
   10.7140   15.6510   19.3620 C   0  0  0  0  0  0  0  0  0  0  0  0
   10.9300   14.7160   18.4540 N   0  0  0  0  0  0  0  0  0  0  0  0
   10.8130   15.1950   20.8080 C   0  0  1  0  0  0  0  0  0  0  0  0
   12.1630   15.5630   21.4330 C   0  0  0  0  0  0  0  0  0  0  0  0
   12.2140   15.1870   22.9190 C   0  0  0  0  0  0  0  0  0  0  0  0
   11.0240   15.7380   23.6810 C   0  0  0  0  0  0  0  0  0  0  0  0
    9.6860   15.8240   21.6160 C   0  0  0  0  0  0  0  0  0  0  0  0
    9.7640   15.3820   23.0120 N   0  0  0  0  0  0  0  0  0  0  0  0
    8.7660   14.5610   23.4570 C   0  0  0  0  0  0  0  0  0  0  0  0
    7.8700   14.1520   22.7140 O   0  0  0  0  0  0  0  0  0  0  0  0
    8.8240   14.2010   24.7580 N   0  0  0  0  0  0  0  0  0  0  0  0
    7.9100   13.1880   25.2730 C   0  0  0  0  0  0  0  0  0  0  0  0
    8.2010   11.7710   24.8180 C   0  0  0  0  0  0  0  0  0  0  0  0
    7.3800   10.7290   25.2690 C   0  0  0  0  0  0  0  0  0  0  0  0
    6.2900   10.9620   26.2840 C   0  0  0  0  0  0  0  0  0  0  0  0
    9.2700   11.4800   23.9700 C   0  0  0  0  0  0  0  0  0  0  0  0
    9.5080   10.1820   23.5460 C   0  0  0  0  0  0  0  0  0  0  0  0
    8.6950    9.1670   23.9650 C   0  0  0  0  0  0  0  0  0  0  0  0
    7.6480    9.4360   24.8270 C   0  0  0  0  0  0  0  0  0  0  0  0
 16 15  1  0
 15 20  2  0
 20 19  1  0
 19 18  2  0
 18 17  1  0
 17 14  2  0
 15 14  1  0
 14 13  1  0
 13 12  1  0
 12 10  1  0
 11 10  2  0
 10  9  1  0
  9  7  1  0
  7  6  1  0
  6  5  1  0
  5  4  1  0
  4  2  1  6
  3  2  1  0
  2  1  2  0
  8  4  1  0
  9  8  1  0
M  END
$$$$
