A71EV2A-x4342_A_201_1_A71EV2A-x0911+A+147+1__LIG
     RDKit          3D

 22 23  0  0  0  0  0  0  0  0999 V2000
   10.3040   10.0260   24.3270 F   0  0  0  0  0  0  0  0  0  0  0  0
    9.1530   10.0650   23.6630 C   0  0  0  0  0  0  0  0  0  0  0  0
    8.9280    8.8330   23.2950 F   0  0  0  0  0  0  0  0  0  0  0  0
    9.3340   10.6830   22.5050 F   0  0  0  0  0  0  0  0  0  0  0  0
    8.0240   10.6580   24.4850 C   0  0  0  0  0  0  0  0  0  0  0  0
    7.3360    9.7540   25.1890 N   0  0  0  0  0  0  0  0  0  0  0  0
    6.4560   10.1970   26.1060 C   0  0  0  0  0  0  0  0  0  0  0  0
    6.2310   11.5370   26.3750 C   0  0  0  0  0  0  0  0  0  0  0  0
    6.9100   12.4870   25.6290 C   0  0  0  0  0  0  0  0  0  0  0  0
    7.7910   12.0840   24.6290 C   0  0  0  0  0  0  0  0  0  0  0  0
    8.3180   13.0960   23.6370 C   0  0  0  0  0  0  0  0  0  0  0  0
    9.6950   13.5810   24.0410 C   0  0  0  0  0  0  0  0  0  0  0  0
   10.0660   13.4970   25.2050 O   0  0  0  0  0  0  0  0  0  0  0  0
   10.4890   14.0700   23.0670 N   0  0  0  0  0  0  0  0  0  0  0  0
   11.9300   14.1520   23.3320 C   0  0  0  0  0  0  0  0  0  0  0  0
   12.4460   15.5370   23.0310 C   0  0  0  0  0  0  0  0  0  0  0  0
   12.0040   16.0280   21.6510 C   0  0  0  0  0  0  0  0  0  0  0  0
   10.0330   14.5410   21.7520 C   0  0  0  0  0  0  0  0  0  0  0  0
   11.2170   14.9680   20.8700 C   0  0  1  0  0  0  0  0  0  0  0  0
   10.8630   15.4850   19.4850 C   0  0  0  0  0  0  0  0  0  0  0  0
   10.3770   16.6060   19.3300 O   0  0  0  0  0  0  0  0  0  0  0  0
   11.1890   14.7010   18.4690 N   0  0  0  0  0  0  0  0  0  0  0  0
 22 20  1  0
 21 20  2  0
 19 20  1  6
 19 17  1  0
 17 16  1  0
 16 15  1  0
 15 14  1  0
 14 12  1  0
 13 12  2  0
 12 11  1  0
 11 10  1  0
 10  9  2  0
  9  8  1  0
  8  7  2  0
  7  6  1  0
  6  5  2  0
 10  5  1  0
  5  2  1  0
  3  2  1  0
  4  2  1  0
  2  1  1  0
 18 14  1  0
 19 18  1  0
M  END
$$$$
