A71EV2A-x5424_C_201_5_A71EV2A-x0911+A+147+1__LIG
     RDKit          3D

 18 19  0  0  0  0  0  0  0  0999 V2000
   10.1620   16.7290   19.1790 O   0  0  0  0  0  0  0  0  0  0  0  0
   10.6280   15.6130   19.4420 C   0  0  0  0  0  0  0  0  0  0  0  0
   11.1590   14.8200   18.5240 N   0  0  0  0  0  0  0  0  0  0  0  0
   10.5790   15.0520   20.8530 C   0  0  1  0  0  0  0  0  0  0  0  0
   11.8060   15.4860   21.6750 C   0  0  0  0  0  0  0  0  0  0  0  0
   11.7640   14.8940   23.0930 C   0  0  0  0  0  0  0  0  0  0  0  0
   10.4360   15.2230   23.7850 C   0  0  0  0  0  0  0  0  0  0  0  0
    9.3030   15.4490   21.6040 C   0  0  0  0  0  0  0  0  0  0  0  0
    9.2910   14.8440   22.9400 N   0  0  0  0  0  0  0  0  0  0  0  0
    8.2680   14.0370   23.3160 C   0  0  0  0  0  0  0  0  0  0  0  0
    7.3520   13.7530   22.5560 O   0  0  0  0  0  0  0  0  0  0  0  0
    8.3080   13.4710   24.7240 C   0  0  0  0  0  0  0  0  0  0  0  0
    8.4420   11.9780   24.6790 C   0  0  0  0  0  0  0  0  0  0  0  0
    7.6430   11.0440   25.2850 C   0  0  0  0  0  0  0  0  0  0  0  0
    7.9950    9.7160   24.9560 C   0  0  0  0  0  0  0  0  0  0  0  0
    9.6500   11.2040   23.7120 S   0  0  0  0  0  0  0  0  0  0  0  0
    9.0550    9.6290   24.0990 C   0  0  0  0  0  0  0  0  0  0  0  0
    9.6540    8.4090   23.4640 C   0  0  0  0  0  0  0  0  0  0  0  0
 18 17  1  0
 17 15  2  0
 15 14  1  0
 14 13  2  0
 13 12  1  0
 12 10  1  0
 11 10  2  0
 10  9  1  0
  9  7  1  0
  7  6  1  0
  6  5  1  0
  5  4  1  0
  4  2  1  6
  3  2  1  0
  2  1  2  0
  8  4  1  0
  9  8  1  0
 16 13  1  0
 17 16  1  0
M  END
$$$$
