XX01ZVNS2B-x5020_B_203_4_XX01ZVNS2B-x4590+B+203+1__LIG
     RDKit          3D

 27 31  0  0  0  0  0  0  0  0999 V2000
  -10.7190    4.0550  -18.1550 Cl  0  0  0  0  0  0  0  0  0  0  0  0
   -9.2150    4.4790  -17.3680 C   0  0  0  0  0  0  0  0  0  0  0  0
   -9.1670    4.5510  -15.9790 C   0  0  0  0  0  0  0  0  0  0  0  0
   -8.1180    4.7660  -18.1540 C   0  0  0  0  0  0  0  0  0  0  0  0
   -6.9460    5.1330  -17.5120 C   0  0  0  0  0  0  0  0  0  0  0  0
   -5.7020    5.3890  -18.0120 N   0  0  0  0  0  0  0  0  0  0  0  0
   -5.2580    5.3630  -19.4100 C   0  0  0  0  0  0  0  0  0  0  0  0
   -4.9930    6.7150  -20.1010 C   0  0  0  0  0  0  0  0  0  0  0  0
   -3.7500    6.1260  -20.6610 N   0  0  0  0  0  0  0  0  0  0  0  0
   -3.7770    5.0180  -19.6820 C   0  0  0  0  0  0  0  0  0  0  0  0
   -4.8120    5.6730  -17.0130 N   0  0  0  0  0  0  0  0  0  0  0  0
   -5.4890    5.5940  -15.8830 C   0  0  0  0  0  0  0  0  0  0  0  0
   -6.8450    5.2440  -16.1160 C   0  0  0  0  0  0  0  0  0  0  0  0
   -7.9820    4.9490  -15.3410 C   0  0  0  0  0  0  0  0  0  0  0  0
   -7.9060    5.1190  -13.8510 C   0  0  0  0  0  0  0  0  0  0  0  0
   -7.1280    5.9320  -13.3560 O   0  0  0  0  0  0  0  0  0  0  0  0
   -8.6820    4.2920  -13.1110 N   0  0  0  0  0  0  0  0  0  0  0  0
   -8.7120    4.2030  -11.6890 C   0  0  0  0  0  0  0  0  0  0  0  0
   -8.8580    2.9520  -11.0970 C   0  0  0  0  0  0  0  0  0  0  0  0
   -8.8850    2.8310   -9.7170 C   0  0  0  0  0  0  0  0  0  0  0  0
   -8.7720    3.9460   -8.8950 C   0  0  0  0  0  0  0  0  0  0  0  0
   -8.6060    5.1890   -9.4920 C   0  0  0  0  0  0  0  0  0  0  0  0
   -8.5810    5.3230  -10.8730 C   0  0  0  0  0  0  0  0  0  0  0  0
   -8.8700    3.8120   -7.3860 C   0  0  0  0  0  0  0  0  0  0  0  0
   -7.6510    4.2780   -6.5520 C   0  0  0  0  0  0  0  0  0  0  0  0
   -7.7690    3.0340   -5.7500 N   0  0  0  0  0  0  0  0  0  0  0  0
   -8.6190    2.4050   -6.7910 C   0  0  0  0  0  0  0  0  0  0  0  0
 16 15  2  0
 17 15  1  0
 18 17  1  0
 18 23  2  0
 23 22  1  0
 22 21  2  0
 24 21  1  0
 24 27  1  0
 27 26  1  0
 26 25  1  0
 25 24  1  0
 21 20  1  0
 20 19  2  0
 19 18  1  0
 15 14  1  0
 14  3  1  0
  3  2  2  0
  2  1  1  0
  4  2  1  0
  5  4  2  0
  5 13  1  0
 14 13  2  0
 13 12  1  0
 12 11  2  0
 11  6  1  0
  6  5  1  0
  7  6  1  0
  7 10  1  0
 10  9  1  0
  9  8  1  0
  8  7  1  0
M  END
$$$$
