XX01ZVNS2B-x1451_B_301_1_XX01ZVNS2B-x4590+B+203+1__LIG
     RDKit          3D

 23 25  0  0  0  0  0  0  0  0999 V2000
   -1.4830    8.3730  -16.4980 C   0  0  0  0  0  0  0  0  0  0  0  0
   -1.9130    7.1130  -15.9160 N   0  0  0  0  0  0  0  0  0  0  0  0
   -3.1300    6.5540  -16.1400 C   0  0  0  0  0  0  0  0  0  0  0  0
   -3.6390    5.5770  -15.2790 C   0  0  0  0  0  0  0  0  0  0  0  0
   -4.8780    5.0430  -15.5520 C   0  0  0  0  0  0  0  0  0  0  0  0
   -5.6200    5.4730  -16.6480 C   0  0  0  0  0  0  0  0  0  0  0  0
   -6.9640    4.8900  -16.9590 C   0  0  0  0  0  0  0  0  0  0  0  0
   -7.2240    4.4540  -18.2590 C   0  0  0  0  0  0  0  0  0  0  0  0
   -8.4410    3.9060  -18.6140 C   0  0  0  0  0  0  0  0  0  0  0  0
   -9.4370    3.7700  -17.6740 C   0  0  0  0  0  0  0  0  0  0  0  0
   -9.2150    4.1840  -16.3800 C   0  0  0  0  0  0  0  0  0  0  0  0
   -7.9890    4.7400  -16.0050 C   0  0  0  0  0  0  0  0  0  0  0  0
   -7.8840    5.1600  -14.5720 C   0  0  0  0  0  0  0  0  0  0  0  0
   -7.4250    6.2510  -14.2770 O   0  0  0  0  0  0  0  0  0  0  0  0
   -8.3440    4.2560  -13.6560 N   0  0  0  0  0  0  0  0  0  0  0  0
   -8.2820    4.3900  -12.2620 C   0  0  0  0  0  0  0  0  0  0  0  0
   -8.5810    3.4000  -11.3050 C   0  0  0  0  0  0  0  0  0  0  0  0
   -8.4290    3.8500  -10.0770 N   0  0  0  0  0  0  0  0  0  0  0  0
   -8.0290    5.1510  -10.2250 N   0  0  0  0  0  0  0  0  0  0  0  0
   -7.7650    5.9490   -9.0300 C   0  0  0  0  0  0  0  0  0  0  0  0
   -7.9250    5.5080  -11.5240 C   0  0  0  0  0  0  0  0  0  0  0  0
   -5.0140    6.4360  -17.4500 C   0  0  0  0  0  0  0  0  0  0  0  0
   -3.8080    6.9800  -17.2230 N   0  0  0  0  0  0  0  0  0  0  0  0
  1  2  1  0
  2  3  1  0
  3  4  2  0
  4  5  1  0
  5  6  2  0
  6  7  1  0
  7  8  2  0
  8  9  1  0
  9 10  2  0
 10 11  1  0
 11 12  2  0
 12 13  1  0
 13 14  2  0
 13 15  1  0
 15 16  1  0
 16 17  1  0
 17 18  2  0
 18 19  1  0
 19 20  1  0
 19 21  1  0
  6 22  1  0
 22 23  2  0
  3 23  1  0
  7 12  1  0
 16 21  2  0
M  END
$$$$
