XX01ZVNS2B-x3515_B_203_1_XX01ZVNS2B-x4590+B+203+1__LIG
     RDKit          3D

 21 24  0  0  0  0  0  0  0  0999 V2000
   -6.3760    5.4350  -12.5860 O   0  0  0  0  0  0  0  0  0  0  0  0
   -7.2350    4.7540  -13.1300 C   0  0  0  0  0  0  0  0  0  0  0  0
   -8.1530    4.0010  -12.4690 N   0  0  0  0  0  0  0  0  0  0  0  0
   -8.3770    3.9630  -11.0750 C   0  0  0  0  0  0  0  0  0  0  0  0
   -8.2030    5.1160  -10.3110 C   0  0  0  0  0  0  0  0  0  0  0  0
   -8.3770    5.0750   -8.9400 C   0  0  0  0  0  0  0  0  0  0  0  0
   -8.6530    3.8550   -8.3350 C   0  0  0  0  0  0  0  0  0  0  0  0
   -8.8180    2.7040   -9.0920 C   0  0  0  0  0  0  0  0  0  0  0  0
   -8.6620    2.7350  -10.4700 C   0  0  0  0  0  0  0  0  0  0  0  0
   -9.1690    1.5580   -8.1900 C   0  0  0  0  0  0  0  0  0  0  0  0
   -8.7460    2.0810   -6.8830 N   0  0  0  0  0  0  0  0  0  0  0  0
   -8.9170    3.5420   -6.8910 C   0  0  0  0  0  0  0  0  0  0  0  0
   -7.2630    4.6670  -14.6030 C   0  0  0  0  0  0  0  0  0  0  0  0
   -8.2710    4.2340  -15.4170 C   0  0  0  0  0  0  0  0  0  0  0  0
   -7.8610    4.2300  -16.8190 C   0  0  0  0  0  0  0  0  0  0  0  0
   -8.6090    3.7950  -17.8790 N   0  0  0  0  0  0  0  0  0  0  0  0
   -8.0240    3.8570  -19.1030 C   0  0  0  0  0  0  0  0  0  0  0  0
   -6.7480    4.3340  -19.3190 C   0  0  0  0  0  0  0  0  0  0  0  0
   -6.0040    4.7880  -18.2560 C   0  0  0  0  0  0  0  0  0  0  0  0
   -6.5790    4.7340  -16.9910 C   0  0  0  0  0  0  0  0  0  0  0  0
   -5.8360    5.1590  -15.4840 S   0  0  0  0  0  0  0  0  0  0  0  0
  1  2  2  0
  2  3  1  0
  3  4  1  0
  4  5  2  0
  5  6  1  0
  6  7  2  0
  7  8  1  0
  8  9  2  0
  8 10  1  0
 10 11  1  0
 11 12  1  0
  2 13  1  0
 13 14  2  0
 14 15  1  0
 15 16  2  0
 16 17  1  0
 17 18  2  0
 18 19  1  0
 19 20  2  0
 20 21  1  0
  4  9  1  0
 13 21  1  0
  7 12  1  0
 15 20  1  0
M  END
$$$$
