A71EV2A-x3178_A_201_1_A71EV2A-x0911+A+147+1__LIG
     RDKit          3D

 18 20  0  0  0  0  0  0  0  0999 V2000
    9.1660   14.8090   23.8050 O   0  0  0  0  0  0  0  0  0  0  0  0
    9.5120   13.7970   23.1620 C   0  0  0  0  0  0  0  0  0  0  0  0
   10.2650   13.8700   22.0630 N   0  0  0  0  0  0  0  0  0  0  0  0
   10.7510   15.1610   21.5720 C   0  0  2  0  0  0  0  0  0  0  0  0
   10.3040   15.5170   20.1510 C   0  0  0  0  0  0  0  0  0  0  0  0
   11.4120   15.1090   19.3000 O   0  0  0  0  0  0  0  0  0  0  0  0
   12.5720   15.0260   20.1220 C   0  0  0  0  0  0  0  0  0  0  0  0
   12.2390   15.2260   21.5550 C   0  0  0  0  0  0  0  0  0  0  0  0
    9.0180   12.4440   23.5530 C   0  0  0  0  0  0  0  0  0  0  0  0
    9.5300   11.3520   22.9740 N   0  0  0  0  0  0  0  0  0  0  0  0
    7.9730   12.0920   24.4770 C   0  0  0  0  0  0  0  0  0  0  0  0
    7.8930   10.6910   24.4060 C   0  0  0  0  0  0  0  0  0  0  0  0
    8.8230   10.2870   23.4950 N   0  0  0  0  0  0  0  0  0  0  0  0
    9.1880    8.9250   23.1260 C   0  0  0  0  0  0  0  0  0  0  0  0
    6.9920    9.9710   25.1820 C   0  0  0  0  0  0  0  0  0  0  0  0
    6.1420   10.6730   26.0330 C   0  0  0  0  0  0  0  0  0  0  0  0
    6.1940   12.0680   26.0950 C   0  0  0  0  0  0  0  0  0  0  0  0
    7.1090   12.7810   25.3320 C   0  0  0  0  0  0  0  0  0  0  0  0
 14 13  1  0
 13 10  1  0
 10  9  2  0
  9  2  1  0
  2  1  2  0
  3  2  1  0
  4  3  1  6
  4  8  1  0
  8  7  1  0
  7  6  1  0
  6  5  1  0
  5  4  1  0
 11  9  1  0
 11 18  2  0
 18 17  1  0
 17 16  2  0
 16 15  1  0
 15 12  2  0
 12 11  1  0
 13 12  1  0
M  END
$$$$
