XX01ZVNS2B-x0553_B_301_1_XX01ZVNS2B-x4590+B+203+1__LIG
     RDKit          3D

  9  9  0  0  0  0  0  0  0  0999 V2000
  -11.4050    4.1710  -18.4560 N   0  0  0  0  0  0  0  0  0  0  0  0
  -10.3300    4.2920  -18.0930 C   0  0  0  0  0  0  0  0  0  0  0  0
   -8.9860    4.4380  -17.5950 C   0  0  0  0  0  0  0  0  0  0  0  0
   -7.9440    4.7390  -18.4670 C   0  0  0  0  0  0  0  0  0  0  0  0
   -6.6870    4.9410  -17.9600 C   0  0  0  0  0  0  0  0  0  0  0  0
   -8.7230    4.3230  -16.2330 C   0  0  0  0  0  0  0  0  0  0  0  0
   -7.4430    4.5230  -15.7810 C   0  0  0  0  0  0  0  0  0  0  0  0
   -6.4470    4.8360  -16.6360 N   0  0  0  0  0  0  0  0  0  0  0  0
   -5.0820    5.0670  -16.1180 C   0  0  0  0  0  0  0  0  0  0  0  0
  9  8  1  0
  8  5  2  0
  5  4  1  0
  4  3  2  0
  3  2  1  0
  2  1  3  0
  6  3  1  0
  7  6  2  0
  8  7  1  0
M  CHG  1   8   1
M  END
$$$$
