A71EV2A-x3944_A_201_1_A71EV2A-x0911+A+147+1__LIG
     RDKit          3D

 27 29  0  0  0  0  0  0  0  0999 V2000
   10.2740   16.5990   19.1020 O   0  0  0  0  0  0  0  0  0  0  0  0
   10.6300   15.4420   19.3590 C   0  0  0  0  0  0  0  0  0  0  0  0
   10.9550   14.5590   18.4300 N   0  0  0  0  0  0  0  0  0  0  0  0
   10.6850   14.9350   20.7900 C   0  0  1  0  0  0  0  0  0  0  0  0
   11.8010   15.6040   21.6030 C   0  0  0  0  0  0  0  0  0  0  0  0
   11.9040   14.9740   22.9940 C   0  0  0  0  0  0  0  0  0  0  0  0
   10.5490   14.9890   23.7110 C   0  0  0  0  0  0  0  0  0  0  0  0
    9.3660   15.1110   21.5430 C   0  0  0  0  0  0  0  0  0  0  0  0
    9.4740   14.4610   22.8520 N   0  0  0  0  0  0  0  0  0  0  0  0
    8.6370   13.4500   23.1800 C   0  0  0  0  0  0  0  0  0  0  0  0
    7.6620   13.1730   22.5020 O   0  0  0  0  0  0  0  0  0  0  0  0
    8.9660   12.6660   24.4370 C   0  0  0  0  0  0  0  0  0  0  0  0
    7.7610   12.4270   25.3180 C   0  0  0  0  0  0  0  0  0  0  0  0
    7.3950   11.1380   25.6870 C   0  0  0  0  0  0  0  0  0  0  0  0
    6.3090   10.9220   26.5180 C   0  0  0  0  0  0  0  0  0  0  0  0
    5.5620   11.9920   26.9770 C   0  0  0  0  0  0  0  0  0  0  0  0
    7.0130   13.4990   25.7960 C   0  0  0  0  0  0  0  0  0  0  0  0
    5.9090   13.2920   26.6230 C   0  0  0  0  0  0  0  0  0  0  0  0
    5.0980   14.4850   27.0320 C   0  0  0  0  0  0  0  0  0  0  0  0
    5.0950   15.4630   26.3010 O   0  0  0  0  0  0  0  0  0  0  0  0
    4.4450   14.4760   28.2240 N   0  0  0  0  0  0  0  0  0  0  0  0
    3.6130   15.6340   28.5920 C   0  0  0  0  0  0  0  0  0  0  0  0
    2.2350   15.5620   27.9890 C   0  0  0  0  0  0  0  0  0  0  0  0
    4.5310   13.4360   29.2540 C   0  0  0  0  0  0  0  0  0  0  0  0
    5.6200   13.7660   30.2740 C   0  0  0  0  0  0  0  0  0  0  0  0
    5.5390   13.2360   31.6740 C   0  0  0  0  0  0  0  0  0  0  0  0
    6.5660   12.6940   30.7270 C   0  0  0  0  0  0  0  0  0  0  0  0
 23 22  1  0
 22 21  1  0
 24 21  1  0
 25 24  1  0
 25 27  1  0
 27 26  1  0
 26 25  1  0
 21 19  1  0
 20 19  2  0
 19 18  1  0
 18 16  2  0
 16 15  1  0
 15 14  2  0
 14 13  1  0
 13 12  1  0
 12 10  1  0
 11 10  2  0
 10  9  1  0
  9  7  1  0
  7  6  1  0
  6  5  1  0
  5  4  1  0
  4  2  1  6
  3  2  1  0
  2  1  2  0
  8  4  1  0
  9  8  1  0
 17 13  2  0
 18 17  1  0
M  END
$$$$
