A71EV2A-x5247_C_201_2_A71EV2A-x0911+A+147+1__LIG
     RDKit          3D

 22 23  0  0  0  0  0  0  0  0999 V2000
   10.3000   16.8450   18.9450 O   0  0  0  0  0  0  0  0  0  0  0  0
   10.7390   15.7860   19.4130 C   0  0  0  0  0  0  0  0  0  0  0  0
   10.9710   14.7120   18.6630 N   0  0  0  0  0  0  0  0  0  0  0  0
   10.8780   15.6000   20.9140 C   0  0  1  0  0  0  0  0  0  0  0  0
    9.7110   14.7430   21.4120 C   0  0  0  0  0  0  0  0  0  0  0  0
   12.2520   15.0340   21.2980 C   0  0  0  0  0  0  0  0  0  0  0  0
   12.2670   14.4040   22.7020 C   0  0  0  0  0  0  0  0  0  0  0  0
   11.0290   14.6890   23.5590 C   0  0  1  0  0  0  0  0  0  0  0  0
   10.9490   16.0850   24.1600 C   0  0  0  0  0  0  0  0  0  0  0  0
    9.7900   14.3360   22.8330 N   0  0  0  0  0  0  0  0  0  0  0  0
    8.7470   13.6640   23.3660 C   0  0  0  0  0  0  0  0  0  0  0  0
    7.7630   13.3630   22.6950 O   0  0  0  0  0  0  0  0  0  0  0  0
    8.8200   13.3040   24.8410 C   0  0  0  0  0  0  0  0  0  0  0  0
    7.9240   12.1280   25.1670 C   0  0  0  0  0  0  0  0  0  0  0  0
    8.1880   10.8270   24.7240 C   0  0  0  0  0  0  0  0  0  0  0  0
    9.5880   10.5860   23.6670 S   0  0  0  0  0  0  0  0  0  0  0  0
    9.5670    8.8280   23.3600 C   0  0  0  0  0  0  0  0  0  0  0  0
    6.8530   12.3400   26.0340 C   0  0  0  0  0  0  0  0  0  0  0  0
    6.0910   11.2750   26.4600 C   0  0  0  0  0  0  0  0  0  0  0  0
    4.6070   11.6040   27.6060 Br  0  0  0  0  0  0  0  0  0  0  0  0
    6.3590    9.9880   26.0540 C   0  0  0  0  0  0  0  0  0  0  0  0
    7.4030    9.7630   25.1650 C   0  0  0  0  0  0  0  0  0  0  0  0
 17 16  1  0
 16 15  1  0
 15 22  2  0
 22 21  1  0
 21 19  2  0
 20 19  1  0
 19 18  1  0
 18 14  2  0
 15 14  1  0
 14 13  1  0
 13 11  1  0
 12 11  2  0
 11 10  1  0
 10  5  1  0
  5  4  1  0
  4  2  1  6
  3  2  1  0
  2  1  2  0
  6  4  1  0
  7  6  1  0
  8  7  1  0
 10  8  1  0
  8  9  1  6
M  END
$$$$
