A71EV2A-x4903_C_201_1_A71EV2A-x0911+A+147+1__LIG
     RDKit          3D

 21 22  0  0  0  0  0  0  0  0999 V2000
   10.5050   16.6550   19.2350 O   0  0  0  0  0  0  0  0  0  0  0  0
   10.8840   15.4900   19.4640 C   0  0  0  0  0  0  0  0  0  0  0  0
   11.1880   14.6330   18.4820 N   0  0  0  0  0  0  0  0  0  0  0  0
   10.9480   14.9570   20.8850 C   0  0  1  0  0  0  0  0  0  0  0  0
   12.0190   15.6530   21.7420 C   0  0  0  0  0  0  0  0  0  0  0  0
   12.0570   15.0290   23.1400 C   0  0  0  0  0  0  0  0  0  0  0  0
   10.6800   15.0800   23.8000 C   0  0  0  0  0  0  0  0  0  0  0  0
    9.5830   15.0830   21.5690 C   0  0  0  0  0  0  0  0  0  0  0  0
    9.6440   14.5110   22.9190 N   0  0  0  0  0  0  0  0  0  0  0  0
    8.7400   13.5790   23.2690 C   0  0  0  0  0  0  0  0  0  0  0  0
    7.8450   13.1820   22.5670 O   0  0  0  0  0  0  0  0  0  0  0  0
    8.9680   13.1280   24.5340 O   0  0  0  0  0  0  0  0  0  0  0  0
    8.0880   12.1230   24.9850 C   0  0  0  0  0  0  0  0  0  0  0  0
    8.2850   10.7880   24.5930 C   0  0  0  0  0  0  0  0  0  0  0  0
    9.2980   10.5750   23.6950 O   0  0  0  0  0  0  0  0  0  0  0  0
    9.5500    9.2140   23.2710 C   0  0  0  0  0  0  0  0  0  0  0  0
    7.0990   12.4540   25.8900 C   0  0  0  0  0  0  0  0  0  0  0  0
    6.3050   11.4430   26.4020 C   0  0  0  0  0  0  0  0  0  0  0  0
    4.9800   11.8590   27.4800 Cl  0  0  0  0  0  0  0  0  0  0  0  0
    6.4820   10.1270   26.0340 C   0  0  0  0  0  0  0  0  0  0  0  0
    7.4630    9.7940   25.1110 C   0  0  0  0  0  0  0  0  0  0  0  0
 16 15  1  0
 15 14  1  0
 14 21  2  0
 21 20  1  0
 20 18  2  0
 19 18  1  0
 18 17  1  0
 17 13  2  0
 14 13  1  0
 13 12  1  0
 12 10  1  0
 11 10  2  0
 10  9  1  0
  9  7  1  0
  7  6  1  0
  6  5  1  0
  5  4  1  0
  4  2  1  6
  3  2  1  0
  2  1  2  0
  8  4  1  0
  9  8  1  0
M  END
$$$$
