XX01ZVNS2B-x0051_B_301_1_XX01ZVNS2B-x4590+B+203+1__LIG
     RDKit          3D

 12 13  0  0  0  0  0  0  0  0999 V2000
   -9.9790    4.0660  -18.5660 N   0  0  0  0  0  0  0  0  0  0  0  0
   -8.7500    4.4580  -18.2220 C   0  0  0  0  0  0  0  0  0  0  0  0
   -8.4660    5.1540  -16.6340 S   0  0  0  0  0  0  0  0  0  0  0  0
   -7.6950    4.3450  -18.9890 N   0  0  0  0  0  0  0  0  0  0  0  0
   -6.5550    4.8240  -18.3370 C   0  0  0  0  0  0  0  0  0  0  0  0
   -6.7750    5.2880  -17.0350 C   0  0  0  0  0  0  0  0  0  0  0  0
   -5.7250    5.7460  -16.2490 C   0  0  0  0  0  0  0  0  0  0  0  0
   -4.4430    5.7500  -16.7710 C   0  0  0  0  0  0  0  0  0  0  0  0
   -5.2650    4.8640  -18.8690 C   0  0  0  0  0  0  0  0  0  0  0  0
   -4.2200    5.3210  -18.0710 C   0  0  0  0  0  0  0  0  0  0  0  0
   -2.8940    5.4040  -18.4180 O   0  0  0  0  0  0  0  0  0  0  0  0
   -2.5100    4.9890  -19.7310 C   0  0  0  0  0  0  0  0  0  0  0  0
 12 11  1  0
 11 10  1  0
 10  8  2  0
  8  7  1  0
  7  6  2  0
  6  3  1  0
  3  2  1  0
  2  1  1  0
  4  2  2  0
  5  4  1  0
  6  5  1  0
  9  5  2  0
 10  9  1  0
M  END
$$$$
