A71EV2A-x4239_A_201_1_A71EV2A-x0911+A+147+1__LIG
     RDKit          3D

 23 25  0  0  0  0  0  0  0  0999 V2000
   10.3420   17.0530   18.8580 O   0  0  0  0  0  0  0  0  0  0  0  0
   10.5720   15.9470   19.3580 C   0  0  0  0  0  0  0  0  0  0  0  0
   10.9860   14.9030   18.6440 N   0  0  0  0  0  0  0  0  0  0  0  0
   10.3700   15.7190   20.8430 C   0  0  1  0  0  0  0  0  0  0  0  0
    9.1900   14.8020   21.1260 C   0  0  0  0  0  0  0  0  0  0  0  0
   11.5550   15.1170   21.6200 C   0  0  2  0  0  0  0  0  0  0  0  0
   10.9060   14.4380   22.8400 C   0  0  1  0  0  0  0  0  0  0  0  0
   11.1040   15.4140   24.0080 C   0  0  0  0  0  0  0  0  0  0  0  0
   12.4140   16.0790   23.7170 C   0  0  0  0  0  0  0  0  0  0  0  0
   12.5060   16.1900   22.1930 C   0  0  0  0  0  0  0  0  0  0  0  0
    9.5060   14.2170   22.4410 N   0  0  0  0  0  0  0  0  0  0  0  0
    8.5470   13.5320   23.1130 C   0  0  0  0  0  0  0  0  0  0  0  0
    7.4470   13.3490   22.6140 O   0  0  0  0  0  0  0  0  0  0  0  0
    8.8400   13.0550   24.5210 C   0  0  0  0  0  0  0  0  0  0  0  0
    7.8420   12.0210   24.9870 C   0  0  0  0  0  0  0  0  0  0  0  0
    8.0000   10.6810   24.6110 C   0  0  0  0  0  0  0  0  0  0  0  0
    9.0250   10.4490   23.7340 O   0  0  0  0  0  0  0  0  0  0  0  0
    9.2860    9.0980   23.3440 C   0  0  0  0  0  0  0  0  0  0  0  0
    6.7760   12.3380   25.8430 C   0  0  0  0  0  0  0  0  0  0  0  0
    6.3820   14.0020   26.1870 Cl  0  0  0  0  0  0  0  0  0  0  0  0
    5.9490   11.3650   26.3640 C   0  0  0  0  0  0  0  0  0  0  0  0
    6.1400   10.0460   25.9980 C   0  0  0  0  0  0  0  0  0  0  0  0
    7.1480    9.7020   25.1090 C   0  0  0  0  0  0  0  0  0  0  0  0
 18 17  1  0
 17 16  1  0
 16 23  2  0
 23 22  1  0
 22 21  2  0
 21 19  1  0
 20 19  1  0
 19 15  2  0
 16 15  1  0
 15 14  1  0
 14 12  1  0
 13 12  2  0
 12 11  1  0
 11  5  1  0
  5  4  1  0
  4  2  1  6
  3  2  1  0
  2  1  2  0
  6  4  1  0
  6 10  1  1
 10  9  1  0
  9  8  1  0
  7  8  1  1
  7  6  1  0
 11  7  1  0
M  END
$$$$
