A71EV2A-x3937_A_201_1_A71EV2A-x0911+A+147+1__LIG
     RDKit          3D

 20 21  0  0  0  0  0  0  0  0999 V2000
    9.9780   16.3860   19.3220 O   0  0  0  0  0  0  0  0  0  0  0  0
   10.4130   15.2490   19.5310 C   0  0  0  0  0  0  0  0  0  0  0  0
   10.9390   14.4890   18.5680 N   0  0  0  0  0  0  0  0  0  0  0  0
   10.3960   14.6560   20.9290 C   0  0  1  0  0  0  0  0  0  0  0  0
   11.5180   15.2360   21.8250 C   0  0  0  0  0  0  0  0  0  0  0  0
   11.5170   14.5530   23.1990 C   0  0  0  0  0  0  0  0  0  0  0  0
   10.1510   14.6870   23.8630 C   0  0  0  0  0  0  0  0  0  0  0  0
    9.0590   14.8420   21.6530 C   0  0  0  0  0  0  0  0  0  0  0  0
    9.0960   14.1900   22.9670 N   0  0  0  0  0  0  0  0  0  0  0  0
    8.2230   13.2170   23.2860 C   0  0  0  0  0  0  0  0  0  0  0  0
    7.2550   13.0080   22.5900 O   0  0  0  0  0  0  0  0  0  0  0  0
    8.4190   12.3880   24.5740 C   0  0  2  0  0  0  0  0  0  0  0  0
    8.2530   10.9850   24.4150 O   0  0  0  0  0  0  0  0  0  0  0  0
    9.4600   10.2950   24.0230 C   0  0  0  0  0  0  0  0  0  0  0  0
    7.3290   12.7660   25.5550 C   0  0  0  0  0  0  0  0  0  0  0  0
    6.5630   11.8020   26.2020 C   0  0  0  0  0  0  0  0  0  0  0  0
    5.5350   12.0750   27.0210 N   0  0  0  0  0  0  0  0  0  0  0  0
    5.2400   13.3620   27.2180 C   0  0  0  0  0  0  0  0  0  0  0  0
    5.9480   14.3990   26.6400 C   0  0  0  0  0  0  0  0  0  0  0  0
    7.0040   14.0900   25.8030 C   0  0  0  0  0  0  0  0  0  0  0  0
 14 13  1  0
 12 13  1  6
 12 10  1  0
 11 10  2  0
 10  9  1  0
  9  7  1  0
  7  6  1  0
  6  5  1  0
  5  4  1  0
  4  2  1  6
  3  2  1  0
  2  1  2  0
  8  4  1  0
  9  8  1  0
 15 12  1  0
 15 20  2  0
 20 19  1  0
 19 18  2  0
 18 17  1  0
 17 16  2  0
 16 15  1  0
M  END
$$$$
