XX01ZVNS2B-x3856_B_203_1_XX01ZVNS2B-x4590+B+203+1__LIG
     RDKit          3D

 23 26  0  0  0  0  0  0  0  0999 V2000
   -6.6090    5.2920  -13.5130 O   0  0  0  0  0  0  0  0  0  0  0  0
   -7.5480    4.5960  -13.8900 C   0  0  0  0  0  0  0  0  0  0  0  0
   -7.8260    4.4200  -15.3520 C   0  0  0  0  0  0  0  0  0  0  0  0
   -9.0930    4.0400  -15.7930 C   0  0  0  0  0  0  0  0  0  0  0  0
   -9.3800    3.9390  -17.1490 C   0  0  0  0  0  0  0  0  0  0  0  0
   -8.4110    4.2040  -18.1060 C   0  0  0  0  0  0  0  0  0  0  0  0
   -7.1320    4.5780  -17.7060 C   0  0  0  0  0  0  0  0  0  0  0  0
   -6.8500    4.6800  -16.3290 C   0  0  0  0  0  0  0  0  0  0  0  0
   -5.5280    5.0410  -16.1880 N   0  0  0  0  0  0  0  0  0  0  0  0
   -4.9740    5.1810  -17.4310 C   0  0  0  0  0  0  0  0  0  0  0  0
   -5.9140    4.8980  -18.3940 C   0  0  0  0  0  0  0  0  0  0  0  0
   -5.7080    4.8810  -19.8160 C   0  0  0  0  0  0  0  0  0  0  0  0
   -5.5040    4.8970  -20.9480 N   0  0  0  0  0  0  0  0  0  0  0  0
   -8.4000    3.9600  -13.0440 N   0  0  0  0  0  0  0  0  0  0  0  0
   -8.4020    3.9870  -11.6240 C   0  0  0  0  0  0  0  0  0  0  0  0
   -8.6650    2.8200  -10.9090 C   0  0  0  0  0  0  0  0  0  0  0  0
   -8.7370    2.8530   -9.5190 C   0  0  0  0  0  0  0  0  0  0  0  0
   -9.0910    1.7550   -8.5600 C   0  0  0  0  0  0  0  0  0  0  0  0
   -8.9430    2.4080   -7.2680 N   0  0  0  0  0  0  0  0  0  0  0  0
   -8.6580    3.8380   -7.3590 C   0  0  0  0  0  0  0  0  0  0  0  0
   -8.5170    4.0430   -8.8380 C   0  0  0  0  0  0  0  0  0  0  0  0
   -8.2330    5.2010   -9.5520 C   0  0  0  0  0  0  0  0  0  0  0  0
   -8.1830    5.1780  -10.9350 C   0  0  0  0  0  0  0  0  0  0  0  0
 13 12  3  0
 12 11  1  0
 11 10  2  0
 10  9  1  0
  9  8  1  0
  8  3  1  0
  3  2  1  0
  2  1  2  0
 14  2  1  0
 15 14  1  0
 15 23  2  0
 23 22  1  0
 22 21  2  0
 21 17  1  0
 17 16  2  0
 16 15  1  0
 18 17  1  0
 19 18  1  0
 20 19  1  0
 21 20  1  0
  4  3  2  0
  5  4  1  0
  6  5  2  0
  7  6  1  0
 11  7  1  0
  8  7  2  0
M  END
$$$$
