XX01ZVNS2B-x4926_B_203_6_XX01ZVNS2B-x4590+B+203+1__LIG
     RDKit          3D

 29 33  0  0  0  0  0  0  0  0999 V2000
   -9.9410    3.9950  -17.9560 Cl  0  0  0  0  0  0  0  0  0  0  0  0
   -8.5200    4.2920  -16.9970 C   0  0  0  0  0  0  0  0  0  0  0  0
   -8.5970    4.2260  -15.6150 C   0  0  0  0  0  0  0  0  0  0  0  0
   -7.3170    4.5980  -17.6320 C   0  0  0  0  0  0  0  0  0  0  0  0
   -6.1640    4.8300  -16.8600 C   0  0  0  0  0  0  0  0  0  0  0  0
   -5.1320    5.0890  -17.8310 C   0  0  0  0  0  0  0  0  0  0  0  0
   -3.6700    5.3370  -17.5530 C   0  0  0  0  0  0  0  0  0  0  0  0
   -3.2600    6.8120  -17.6840 C   0  0  0  0  0  0  0  0  0  0  0  0
   -1.7820    7.0170  -17.3520 C   0  0  0  0  0  0  0  0  0  0  0  0
   -1.4490    8.4770  -17.6300 C   0  0  0  0  0  0  0  0  0  0  0  0
   -2.2740    9.4020  -16.8070 N   0  0  0  0  0  0  0  0  0  0  0  0
   -3.7200    9.1790  -17.0170 C   0  0  0  0  0  0  0  0  0  0  0  0
   -4.1120    7.7230  -16.7960 C   0  0  0  0  0  0  0  0  0  0  0  0
   -5.6210    5.0450  -19.0530 N   0  0  0  0  0  0  0  0  0  0  0  0
   -6.9540    4.7390  -18.9300 N   0  0  0  0  0  0  0  0  0  0  0  0
   -6.2500    4.7750  -15.4660 C   0  0  0  0  0  0  0  0  0  0  0  0
   -7.4640    4.4850  -14.8410 C   0  0  0  0  0  0  0  0  0  0  0  0
   -7.4360    4.5880  -13.3450 C   0  0  0  0  0  0  0  0  0  0  0  0
   -6.5560    5.2340  -12.7780 O   0  0  0  0  0  0  0  0  0  0  0  0
   -8.3930    3.9090  -12.6610 N   0  0  0  0  0  0  0  0  0  0  0  0
   -8.5010    3.8770  -11.2390 C   0  0  0  0  0  0  0  0  0  0  0  0
   -8.6930    2.6810  -10.5500 C   0  0  0  0  0  0  0  0  0  0  0  0
   -8.8000    2.6750   -9.1600 C   0  0  0  0  0  0  0  0  0  0  0  0
   -9.1080    1.5460   -8.2190 C   0  0  0  0  0  0  0  0  0  0  0  0
   -8.8360    2.1430   -6.9000 N   0  0  0  0  0  0  0  0  0  0  0  0
   -8.8120    3.6100   -6.9780 C   0  0  0  0  0  0  0  0  0  0  0  0
   -8.6730    3.8640   -8.4510 C   0  0  0  0  0  0  0  0  0  0  0  0
   -8.4690    5.0590   -9.1350 C   0  0  0  0  0  0  0  0  0  0  0  0
   -8.3950    5.0690  -10.5200 C   0  0  0  0  0  0  0  0  0  0  0  0
 19 18  2  0
 20 18  1  0
 21 20  1  0
 21 29  2  0
 29 28  1  0
 28 27  2  0
 27 23  1  0
 23 22  2  0
 22 21  1  0
 24 23  1  0
 25 24  1  0
 26 25  1  0
 27 26  1  0
 18 17  1  0
 17  3  1  0
  3  2  2  0
  2  1  1  0
  4  2  1  0
  4 15  1  0
 15 14  1  0
 14  6  2  0
  7  6  1  0
  8  7  1  0
  8 13  1  0
 13 12  1  0
 12 11  1  0
 11 10  1  0
 10  9  1  0
  9  8  1  0
  6  5  1  0
  5  4  2  0
 16  5  1  0
 17 16  2  0
M  END
$$$$
