XX01ZVNS2B-x4104_B_203_3_XX01ZVNS2B-x4590+B+203+1__LIG
     RDKit          3D

 28 31  0  0  0  0  0  0  0  0999 V2000
   -9.9590    4.1510  -18.0700 Cl  0  0  0  0  0  0  0  0  0  0  0  0
   -8.6330    4.6390  -17.0210 C   0  0  0  0  0  0  0  0  0  0  0  0
   -8.6580    4.3090  -15.6640 C   0  0  0  0  0  0  0  0  0  0  0  0
   -7.5770    5.3310  -17.5730 C   0  0  0  0  0  0  0  0  0  0  0  0
   -6.5170    5.7250  -16.7680 C   0  0  0  0  0  0  0  0  0  0  0  0
   -5.2600    6.2980  -17.3790 C   0  0  0  0  0  0  0  0  0  0  0  0
   -4.1300    5.4010  -17.8030 C   0  0  0  0  0  0  0  0  0  0  0  0
   -4.9450    6.0880  -18.8330 C   0  0  0  0  0  0  0  0  0  0  0  0
   -6.5680    5.4350  -15.4110 C   0  0  0  0  0  0  0  0  0  0  0  0
   -7.5990    4.7060  -14.8410 C   0  0  0  0  0  0  0  0  0  0  0  0
   -7.4590    4.2880  -13.3770 C   0  0  2  0  0  0  0  0  0  0  0  0
   -6.9060    2.8290  -13.2560 C   0  0  0  0  0  0  0  0  0  0  0  0
   -5.8140    2.7030  -12.5010 N   0  0  0  0  0  0  0  0  0  0  0  0
   -4.7610    3.7000  -12.4390 C   0  0  0  0  0  0  0  0  0  0  0  0
   -3.4920    3.2260  -13.1280 C   0  0  0  0  0  0  0  0  0  0  0  0
   -3.6660    3.0250  -14.6030 C   0  0  0  0  0  0  0  0  0  0  0  0
   -3.2420    1.7490  -14.9530 F   0  0  0  0  0  0  0  0  0  0  0  0
   -7.4450    1.8720  -13.7920 O   0  0  0  0  0  0  0  0  0  0  0  0
   -8.5230    4.5350  -12.4270 N   0  0  0  0  0  0  0  0  0  0  0  0
   -8.3640    4.4590  -11.0290 C   0  0  0  0  0  0  0  0  0  0  0  0
   -8.5750    3.2350  -10.3980 C   0  0  0  0  0  0  0  0  0  0  0  0
   -8.7340    3.1730   -9.0170 C   0  0  0  0  0  0  0  0  0  0  0  0
   -8.9630    1.9770   -8.1410 C   0  0  0  0  0  0  0  0  0  0  0  0
   -8.8160    2.5450   -6.7930 N   0  0  0  0  0  0  0  0  0  0  0  0
   -8.8860    4.0170   -6.8020 C   0  0  0  0  0  0  0  0  0  0  0  0
   -8.6640    4.3300   -8.2540 C   0  0  0  0  0  0  0  0  0  0  0  0
   -8.4030    5.5480   -8.8770 C   0  0  0  0  0  0  0  0  0  0  0  0
   -8.2380    5.6110  -10.2530 C   0  0  0  0  0  0  0  0  0  0  0  0
 18 12  2  0
 13 12  1  0
 14 13  1  0
 15 14  1  0
 16 15  1  0
 17 16  1  0
 12 11  1  0
 11 19  1  6
 20 19  1  0
 20 28  2  0
 28 27  1  0
 27 26  2  0
 26 22  1  0
 22 21  2  0
 21 20  1  0
 23 22  1  0
 24 23  1  0
 25 24  1  0
 26 25  1  0
 11 10  1  0
 10  3  1  0
  3  2  2  0
  2  1  1  0
  4  2  1  0
  5  4  2  0
  6  5  1  0
  6  8  1  0
  8  7  1  0
  7  6  1  0
  9  5  1  0
 10  9  2  0
M  END
$$$$
