A71EV2A-x4580_C_201_1_A71EV2A-x0911+A+147+1__LIG
     RDKit          3D

 22 24  0  0  0  0  0  0  0  0999 V2000
    9.5050    8.8820   23.3890 Br  0  0  0  0  0  0  0  0  0  0  0  0
    8.4240   10.0160   24.4290 C   0  0  0  0  0  0  0  0  0  0  0  0
    7.2200    9.5200   24.9920 C   0  0  0  0  0  0  0  0  0  0  0  0
    6.4670   10.3240   25.7780 C   0  0  0  0  0  0  0  0  0  0  0  0
    8.8160   11.3060   24.6000 C   0  0  0  0  0  0  0  0  0  0  0  0
    8.0060   12.1400   25.3490 N   0  0  0  0  0  0  0  0  0  0  0  0
    6.8470   11.6790   25.9780 C   0  0  0  0  0  0  0  0  0  0  0  0
    6.3570   12.7850   26.6370 C   0  0  0  0  0  0  0  0  0  0  0  0
    7.1560   13.9000   26.4200 N   0  0  0  0  0  0  0  0  0  0  0  0
    8.1190   13.4750   25.6180 C   0  0  0  0  0  0  0  0  0  0  0  0
    9.2160   14.3200   25.0630 C   0  0  0  0  0  0  0  0  0  0  0  0
    9.0010   14.5370   23.5740 C   0  0  0  0  0  0  0  0  0  0  0  0
    8.1060   13.9730   22.9390 O   0  0  0  0  0  0  0  0  0  0  0  0
    9.8680   15.3890   22.9920 N   0  0  0  0  0  0  0  0  0  0  0  0
   11.0610   15.9630   23.6380 C   0  0  0  0  0  0  0  0  0  0  0  0
   12.3200   15.5850   22.8820 C   0  0  0  0  0  0  0  0  0  0  0  0
   12.2070   15.9560   21.3930 C   0  0  0  0  0  0  0  0  0  0  0  0
    9.6950   15.7360   21.5770 C   0  0  0  0  0  0  0  0  0  0  0  0
   10.9410   15.3160   20.7810 C   0  0  1  0  0  0  0  0  0  0  0  0
   10.7690   15.7220   19.3280 C   0  0  0  0  0  0  0  0  0  0  0  0
   10.4530   16.8860   19.0270 O   0  0  0  0  0  0  0  0  0  0  0  0
   10.9010   14.7550   18.4270 N   0  0  0  0  0  0  0  0  0  0  0  0
 22 20  1  0
 21 20  2  0
 19 20  1  6
 19 17  1  0
 17 16  1  0
 16 15  1  0
 15 14  1  0
 14 12  1  0
 13 12  2  0
 12 11  1  0
 11 10  1  0
 10  9  2  0
  9  8  1  0
  8  7  2  0
  7  4  1  0
  4  3  2  0
  3  2  1  0
  2  1  1  0
  5  2  2  0
  6  5  1  0
 10  6  1  0
  7  6  1  0
 18 14  1  0
 19 18  1  0
M  END
$$$$
