A71EV2A-x3379_A_201_1_A71EV2A-x0911+A+147+1__LIG
     RDKit          3D

 21 23  0  0  0  0  0  0  0  0999 V2000
    9.3410   14.3990   24.6050 O   0  0  0  0  0  0  0  0  0  0  0  0
    9.6020   13.4920   23.8040 C   0  0  0  0  0  0  0  0  0  0  0  0
    8.9970   12.1500   23.9760 C   0  0  0  0  0  0  0  0  0  0  0  0
    7.9530   11.7440   24.8740 C   0  0  0  0  0  0  0  0  0  0  0  0
    7.1340   12.3710   25.8170 C   0  0  0  0  0  0  0  0  0  0  0  0
    6.2140   11.6150   26.5290 C   0  0  0  0  0  0  0  0  0  0  0  0
    6.0980   10.2440   26.3130 C   0  0  0  0  0  0  0  0  0  0  0  0
    6.8930    9.6100   25.3650 C   0  0  0  0  0  0  0  0  0  0  0  0
    7.8100   10.3690   24.6550 C   0  0  0  0  0  0  0  0  0  0  0  0
    8.7090   10.0280   23.6900 N   0  0  0  0  0  0  0  0  0  0  0  0
    9.0810    8.6960   23.2410 C   0  0  0  0  0  0  0  0  0  0  0  0
    9.4180   11.1190   23.2390 N   0  0  0  0  0  0  0  0  0  0  0  0
   10.4640   13.6360   22.7890 N   0  0  0  0  0  0  0  0  0  0  0  0
   11.5640   14.5900   22.9410 C   0  0  1  0  0  0  0  0  0  0  0  0
   12.6330   14.0420   23.8690 C   0  0  0  0  0  0  0  0  0  0  0  0
   12.1040   14.8050   21.5350 C   0  0  0  0  0  0  0  0  0  0  0  0
   11.1480   15.5140   20.6360 C   0  0  0  0  0  0  0  0  0  0  0  0
   10.4980   16.6740   21.0560 N   0  0  0  0  0  0  0  0  0  0  0  0
    9.7610   16.9970   20.0570 C   0  0  0  0  0  0  0  0  0  0  0  0
    9.8590   16.1820   18.9820 O   0  0  0  0  0  0  0  0  0  0  0  0
   10.7360   15.2190   19.3930 C   0  0  0  0  0  0  0  0  0  0  0  0
 14 15  1  1
 16 14  1  0
 17 16  1  0
 17 21  2  0
 21 20  1  0
 20 19  1  0
 19 18  2  0
 18 17  1  0
 14 13  1  0
 13  2  1  0
  2  1  2  0
  3  2  1  0
  3 12  2  0
 12 10  1  0
 11 10  1  0
 10  9  1  0
  9  8  1  0
  8  7  2  0
  7  6  1  0
  6  5  2  0
  5  4  1  0
  4  3  1  0
  9  4  2  0
M  END
$$$$
