XX01ZVNS2B-x1342_B_301_1_XX01ZVNS2B-x4590+B+203+1__LIG
     RDKit          3D

 19 21  0  0  0  0  0  0  0  0999 V2000
   -8.0800    5.4480   -8.5940 C   0  0  0  0  0  0  0  0  0  0  0  0
   -8.2530    4.6920   -9.8260 N   0  0  0  0  0  0  0  0  0  0  0  0
   -8.2050    5.1350  -11.0940 C   0  0  0  0  0  0  0  0  0  0  0  0
   -8.4170    4.0320  -11.9070 C   0  0  0  0  0  0  0  0  0  0  0  0
   -8.4750    3.9650  -13.3080 N   0  0  0  0  0  0  0  0  0  0  0  0
   -7.8460    4.8330  -14.1520 C   0  0  0  0  0  0  0  0  0  0  0  0
   -7.2310    5.8130  -13.7390 O   0  0  0  0  0  0  0  0  0  0  0  0
   -7.9450    4.5670  -15.6300 C   0  0  0  0  0  0  0  0  0  0  0  0
   -9.1390    4.1110  -16.1270 C   0  0  0  0  0  0  0  0  0  0  0  0
   -9.3150    3.8460  -17.4970 C   0  0  0  0  0  0  0  0  0  0  0  0
   -8.2920    4.0370  -18.3730 C   0  0  0  0  0  0  0  0  0  0  0  0
   -7.0390    4.5020  -17.9190 C   0  0  0  0  0  0  0  0  0  0  0  0
   -6.0490    4.6740  -18.8550 N   0  0  0  0  0  0  0  0  0  0  0  0
   -4.8810    5.1080  -18.4190 C   0  0  0  0  0  0  0  0  0  0  0  0
   -4.5890    5.4050  -17.0750 C   0  0  0  0  0  0  0  0  0  0  0  0
   -5.5660    5.2370  -16.1350 C   0  0  0  0  0  0  0  0  0  0  0  0
   -6.8500    4.7760  -16.5310 C   0  0  0  0  0  0  0  0  0  0  0  0
   -8.5750    2.9610  -11.0420 C   0  0  0  0  0  0  0  0  0  0  0  0
   -8.4690    3.3590   -9.7840 N   0  0  0  0  0  0  0  0  0  0  0  0
  1  2  1  0
  2  3  1  0
  3  4  2  0
  4  5  1  0
  5  6  1  0
  6  7  2  0
  6  8  1  0
  8  9  2  0
  9 10  1  0
 10 11  2  0
 11 12  1  0
 12 13  2  0
 13 14  1  0
 14 15  2  0
 15 16  1  0
 16 17  2  0
  4 18  1  0
 18 19  2  0
  2 19  1  0
  8 17  1  0
 12 17  1  0
M  END
$$$$
