A71EV2A-x4895_A_201_1_A71EV2A-x0911+A+147+1__LIG
     RDKit          3D

 21 22  0  0  0  0  0  0  0  0999 V2000
    9.5600   11.2340   23.3610 Cl  0  0  0  0  0  0  0  0  0  0  0  0
    8.1240   11.0940   24.3300 C   0  0  0  0  0  0  0  0  0  0  0  0
    7.5880    9.8410   24.5810 C   0  0  0  0  0  0  0  0  0  0  0  0
    6.4690    9.7260   25.3840 C   0  0  0  0  0  0  0  0  0  0  0  0
    5.9590   10.8980   25.8750 C   0  0  0  0  0  0  0  0  0  0  0  0
    4.8740   10.8600   26.6820 F   0  0  0  0  0  0  0  0  0  0  0  0
    6.4250   12.1060   25.6410 N   0  0  0  0  0  0  0  0  0  0  0  0
    7.5240   12.2130   24.8780 C   0  0  0  0  0  0  0  0  0  0  0  0
    8.1330   13.5930   24.6680 C   0  0  2  0  0  0  0  0  0  0  0  0
    7.3800   14.6840   25.4310 C   0  0  0  0  0  0  0  0  0  0  0  0
    8.1900   13.9580   23.1920 C   0  0  0  0  0  0  0  0  0  0  0  0
    7.3770   13.5110   22.4100 O   0  0  0  0  0  0  0  0  0  0  0  0
    9.1510   14.8340   22.7900 N   0  0  0  0  0  0  0  0  0  0  0  0
    9.2130   15.3020   21.3990 C   0  0  0  0  0  0  0  0  0  0  0  0
   10.6180   15.0830   20.8300 C   0  0  1  0  0  0  0  0  0  0  0  0
   10.6670   15.5730   19.3950 C   0  0  0  0  0  0  0  0  0  0  0  0
   10.3610   16.7380   19.1050 O   0  0  0  0  0  0  0  0  0  0  0  0
   10.9850   14.6650   18.4800 N   0  0  0  0  0  0  0  0  0  0  0  0
   11.6870   15.7600   21.6980 C   0  0  0  0  0  0  0  0  0  0  0  0
   11.5800   15.2500   23.1340 C   0  0  0  0  0  0  0  0  0  0  0  0
   10.1710   15.4330   23.6710 C   0  0  0  0  0  0  0  0  0  0  0  0
  9 10  1  1
 11  9  1  0
 12 11  2  0
 13 11  1  0
 13 21  1  0
 21 20  1  0
 20 19  1  0
 19 15  1  0
 15 16  1  6
 18 16  1  0
 17 16  2  0
 15 14  1  0
 14 13  1  0
  9  8  1  0
  8  7  2  0
  7  5  1  0
  6  5  1  0
  5  4  2  0
  4  3  1  0
  3  2  2  0
  8  2  1  0
  2  1  1  0
M  END
$$$$
