A71EV2A-x0395_A_147_1_A71EV2A-x3977+A+202+1__LIG
     RDKit          3D

 16 16  0  0  0  0  0  0  0  0999 V2000
   10.3390   -9.3160   10.5310 O   0  0  0  0  0  0  0  0  0  0  0  0
    9.9570   -8.4670   11.3340 C   0  0  0  0  0  0  0  0  0  0  0  0
    8.7380   -7.8660   11.2650 N   0  0  0  0  0  0  0  0  0  0  0  0
    7.7040   -8.0860   10.2360 C   0  0  0  0  0  0  0  0  0  0  0  0
    8.1500   -9.0330    9.1250 C   0  0  0  0  0  0  0  0  0  0  0  0
    9.0050   -8.3210    8.2410 O   0  0  0  0  0  0  0  0  0  0  0  0
    7.3850   -6.7350    9.6090 C   0  0  0  0  0  0  0  0  0  0  0  0
    7.3190   -6.7580    8.1890 O   0  0  0  0  0  0  0  0  0  0  0  0
    6.4510   -8.6190   10.9170 C   0  0  0  0  0  0  0  0  0  0  0  0
   10.7080   -8.0740   12.4090 N   0  0  0  0  0  0  0  0  0  0  0  0
   12.0190   -8.5010   12.7380 C   0  0  0  0  0  0  0  0  0  0  0  0
   12.6950   -7.8140   13.7400 C   0  0  0  0  0  0  0  0  0  0  0  0
   14.0130   -8.1240   14.0240 C   0  0  0  0  0  0  0  0  0  0  0  0
   14.6630   -9.1190   13.3250 C   0  0  0  0  0  0  0  0  0  0  0  0
   13.9920   -9.8210   12.3480 C   0  0  0  0  0  0  0  0  0  0  0  0
   12.6730   -9.5210   12.0510 C   0  0  0  0  0  0  0  0  0  0  0  0
  9  4  1  0
  5  4  1  0
  6  5  1  0
  7  4  1  0
  8  7  1  0
  4  3  1  0
  3  2  1  0
  2  1  2  0
 10  2  1  0
 11 10  1  0
 11 16  2  0
 16 15  1  0
 15 14  2  0
 14 13  1  0
 13 12  2  0
 12 11  1  0
M  END
$$$$
