A71EV2A-x4559_C_201_1_A71EV2A-x0911+A+147+1__LIG
     RDKit          3D

 22 24  0  0  0  0  0  0  0  0999 V2000
   10.3530   16.7250   19.1580 O   0  0  0  0  0  0  0  0  0  0  0  0
   10.7150   15.5670   19.3960 C   0  0  0  0  0  0  0  0  0  0  0  0
   10.9520   14.6670   18.4500 N   0  0  0  0  0  0  0  0  0  0  0  0
   10.8690   15.0800   20.8250 C   0  0  1  0  0  0  0  0  0  0  0  0
   12.0100   15.8220   21.5460 C   0  0  0  0  0  0  0  0  0  0  0  0
   12.1140   15.3850   23.0130 C   0  0  0  0  0  0  0  0  0  0  0  0
   10.7640   15.5260   23.7180 C   0  0  0  0  0  0  0  0  0  0  0  0
    9.5630   15.3050   21.5890 C   0  0  0  0  0  0  0  0  0  0  0  0
    9.7240   14.8170   22.9600 N   0  0  0  0  0  0  0  0  0  0  0  0
    9.0190   13.7430   23.3830 C   0  0  0  0  0  0  0  0  0  0  0  0
    8.0910   13.2660   22.7290 O   0  0  0  0  0  0  0  0  0  0  0  0
    9.4210   13.1480   24.7350 C   0  0  0  0  0  0  0  0  0  0  0  0
    8.5600   11.9960   25.0010 N   0  0  0  0  0  0  0  0  0  0  0  0
    7.4060   11.9960   25.7660 C   0  0  0  0  0  0  0  0  0  0  0  0
    6.7050   13.0390   26.3520 C   0  0  0  0  0  0  0  0  0  0  0  0
    5.5780   12.7410   27.1030 C   0  0  0  0  0  0  0  0  0  0  0  0
    8.8380   10.6970   24.6400 C   0  0  0  0  0  0  0  0  0  0  0  0
    7.9220    9.8560   25.1730 C   0  0  0  0  0  0  0  0  0  0  0  0
    6.9850   10.6630   25.9050 C   0  0  0  0  0  0  0  0  0  0  0  0
    5.8470   10.4040   26.6650 C   0  0  0  0  0  0  0  0  0  0  0  0
    5.1420   11.4300   27.2840 C   0  0  0  0  0  0  0  0  0  0  0  0
    3.9790   11.1260   28.1940 C   0  0  0  0  0  0  0  0  0  0  0  0
 22 21  1  0
 21 16  1  0
 16 15  2  0
 15 14  1  0
 14 19  2  0
 19 18  1  0
 18 17  2  0
 17 13  1  0
 14 13  1  0
 13 12  1  0
 12 10  1  0
 11 10  2  0
 10  9  1  0
  9  7  1  0
  7  6  1  0
  6  5  1  0
  5  4  1  0
  4  2  1  6
  3  2  1  0
  2  1  2  0
  8  4  1  0
  9  8  1  0
 20 19  1  0
 21 20  2  0
M  END
$$$$
