A71EV2A-x4596_C_201_1_A71EV2A-x0911+A+147+1__LIG
     RDKit          3D

 20 22  0  0  0  0  0  0  0  0999 V2000
   11.4710   15.1700   24.9780 O   0  0  0  0  0  0  0  0  0  0  0  0
   11.3280   15.2830   23.7660 C   0  0  0  0  0  0  0  0  0  0  0  0
   12.5420   15.4210   22.8790 C   0  0  0  0  0  0  0  0  0  0  0  0
   12.2380   15.9020   21.4650 C   0  0  0  0  0  0  0  0  0  0  0  0
   10.1100   15.2690   23.1770 N   0  0  0  0  0  0  0  0  0  0  0  0
    9.8110   15.4530   21.7490 C   0  0  0  0  0  0  0  0  0  0  0  0
   11.0370   15.1420   20.8840 C   0  0  1  0  0  0  0  0  0  0  0  0
   10.7920   15.5450   19.4410 C   0  0  0  0  0  0  0  0  0  0  0  0
   10.4210   16.6950   19.1540 O   0  0  0  0  0  0  0  0  0  0  0  0
   11.0030   14.6030   18.5390 N   0  0  0  0  0  0  0  0  0  0  0  0
    8.9200   15.0950   24.0210 C   0  0  0  0  0  0  0  0  0  0  0  0
    8.5740   13.6420   24.2710 C   0  0  0  0  0  0  0  0  0  0  0  0
    7.5420   13.3140   25.1450 C   0  0  0  0  0  0  0  0  0  0  0  0
    7.2140   11.9810   25.3460 C   0  0  0  0  0  0  0  0  0  0  0  0
    6.2420   11.4130   26.1360 N   0  0  0  0  0  0  0  0  0  0  0  0
    6.2820   10.0520   25.9820 C   0  0  0  0  0  0  0  0  0  0  0  0
    7.2700    9.7130   25.1140 C   0  0  0  0  0  0  0  0  0  0  0  0
    7.8880   10.9360   24.6860 C   0  0  0  0  0  0  0  0  0  0  0  0
    8.9300   11.2840   23.8280 C   0  0  0  0  0  0  0  0  0  0  0  0
    9.2670   12.6120   23.6310 C   0  0  0  0  0  0  0  0  0  0  0  0
 10  8  1  0
  9  8  2  0
  7  8  1  6
  7  4  1  0
  4  3  1  0
  3  2  1  0
  2  1  2  0
  5  2  1  0
 11  5  1  0
 12 11  1  0
 12 20  2  0
 20 19  1  0
 19 18  2  0
 18 17  1  0
 17 16  2  0
 16 15  1  0
 15 14  1  0
 18 14  1  0
 14 13  2  0
 13 12  1  0
  6  5  1  0
  7  6  1  0
M  END
$$$$
