A71EV2A-x3548_A_201_1_A71EV2A-x0911+A+147+1__LIG
     RDKit          3D

 20 21  0  0  0  0  0  0  0  0999 V2000
   10.6250   16.7900   19.1500 O   0  0  0  0  0  0  0  0  0  0  0  0
   10.9080   15.6070   19.3450 C   0  0  0  0  0  0  0  0  0  0  0  0
   11.1410   14.7590   18.3620 N   0  0  0  0  0  0  0  0  0  0  0  0
   11.0090   15.0470   20.7540 C   0  0  1  0  0  0  0  0  0  0  0  0
   11.9860   15.8750   21.6020 C   0  0  0  0  0  0  0  0  0  0  0  0
   12.0270   15.3900   23.0520 C   0  0  0  0  0  0  0  0  0  0  0  0
   10.6320   15.3810   23.6560 C   0  0  0  0  0  0  0  0  0  0  0  0
    9.6320   15.1150   21.4260 C   0  0  0  0  0  0  0  0  0  0  0  0
    9.6910   14.6290   22.8090 N   0  0  0  0  0  0  0  0  0  0  0  0
    8.8890   13.6320   23.2580 C   0  0  0  0  0  0  0  0  0  0  0  0
    8.0090   13.1370   22.5640 O   0  0  0  0  0  0  0  0  0  0  0  0
    9.1110   13.1690   24.6860 C   0  0  0  0  0  0  0  0  0  0  0  0
    8.1930   12.0320   25.0840 C   0  0  0  0  0  0  0  0  0  0  0  0
    8.3730   10.7370   24.5800 C   0  0  0  0  0  0  0  0  0  0  0  0
    9.4480   10.5730   23.7470 O   0  0  0  0  0  0  0  0  0  0  0  0
    9.7000    9.2710   23.2290 C   0  0  0  0  0  0  0  0  0  0  0  0
    7.1870   12.1900   26.0200 C   0  0  0  0  0  0  0  0  0  0  0  0
    6.3930   11.2110   26.4620 N   0  0  0  0  0  0  0  0  0  0  0  0
    6.5790    9.9970   25.9420 C   0  0  0  0  0  0  0  0  0  0  0  0
    7.5460    9.7080   24.9960 C   0  0  0  0  0  0  0  0  0  0  0  0
 16 15  1  0
 15 14  1  0
 14 20  2  0
 20 19  1  0
 19 18  2  0
 18 17  1  0
 17 13  2  0
 14 13  1  0
 13 12  1  0
 12 10  1  0
 11 10  2  0
 10  9  1  0
  9  7  1  0
  7  6  1  0
  6  5  1  0
  5  4  1  0
  4  2  1  6
  3  2  1  0
  2  1  2  0
  8  4  1  0
  9  8  1  0
M  END
$$$$
