A71EV2A-x5203_A_202_2_A71EV2A-x0911+A+147+1__LIG
     RDKit          3D

 22 23  0  0  0  0  0  0  0  0999 V2000
   10.2940   16.7470   19.1190 O   0  0  0  0  0  0  0  0  0  0  0  0
   10.5740   15.5810   19.4340 C   0  0  0  0  0  0  0  0  0  0  0  0
   10.8900   14.6440   18.5390 N   0  0  0  0  0  0  0  0  0  0  0  0
   10.5200   15.1200   20.8830 C   0  0  1  0  0  0  0  0  0  0  0  0
   11.6170   15.8030   21.7170 C   0  0  0  0  0  0  0  0  0  0  0  0
   11.9180   15.0690   23.0260 C   0  0  0  0  0  0  0  0  0  0  0  0
   10.9500   15.3600   24.1600 C   0  0  0  0  0  0  0  0  0  0  0  0
    9.0900   15.2880   21.4190 C   0  0  0  0  0  0  0  0  0  0  0  0
    8.8730   15.7790   22.8470 C   0  0  0  0  0  0  0  0  0  0  0  0
    9.5590   14.9950   23.8800 N   0  0  0  0  0  0  0  0  0  0  0  0
    8.9670   14.0340   24.6290 C   0  0  0  0  0  0  0  0  0  0  0  0
    9.5120   13.5400   25.6110 O   0  0  0  0  0  0  0  0  0  0  0  0
    7.6280   13.5090   24.1520 C   0  0  0  0  0  0  0  0  0  0  0  0
    7.2480   12.2870   24.9560 C   0  0  0  0  0  0  0  0  0  0  0  0
    7.6840   10.9800   24.6920 C   0  0  0  0  0  0  0  0  0  0  0  0
    9.0350   10.7870   23.5680 S   0  0  0  0  0  0  0  0  0  0  0  0
    9.2680    9.0050   23.4640 C   0  0  0  0  0  0  0  0  0  0  0  0
    6.2940   12.4820   25.9490 C   0  0  0  0  0  0  0  0  0  0  0  0
    5.7370   11.4000   26.5870 C   0  0  0  0  0  0  0  0  0  0  0  0
    4.4200   11.7130   27.9130 Br  0  0  0  0  0  0  0  0  0  0  0  0
    6.0940   10.1080   26.2740 C   0  0  0  0  0  0  0  0  0  0  0  0
    7.0820    9.8980   25.3260 C   0  0  0  0  0  0  0  0  0  0  0  0
 17 16  1  0
 16 15  1  0
 15 22  2  0
 22 21  1  0
 21 19  2  0
 20 19  1  0
 19 18  1  0
 18 14  2  0
 15 14  1  0
 14 13  1  0
 13 11  1  0
 12 11  2  0
 11 10  1  0
 10  7  1  0
  7  6  1  0
  6  5  1  0
  5  4  1  0
  4  2  1  6
  3  2  1  0
  2  1  2  0
  8  4  1  0
  9  8  1  0
 10  9  1  0
M  END
$$$$
