A71EV2A-x3210_A_201_1_A71EV2A-x0911+A+147+1__LIG
     RDKit          3D

 21 23  0  0  0  0  0  0  0  0999 V2000
    7.8570   13.6280   22.5470 O   0  0  0  0  0  0  0  0  0  0  0  0
    8.6280   14.1490   23.3440 C   0  0  0  0  0  0  0  0  0  0  0  0
    9.4840   15.1260   22.9700 N   0  0  0  0  0  0  0  0  0  0  0  0
   10.5680   15.6980   23.7820 C   0  0  0  0  0  0  0  0  0  0  0  0
   11.9150   15.4770   23.1110 C   0  0  0  0  0  0  0  0  0  0  0  0
   11.8910   15.9070   21.6370 C   0  0  0  0  0  0  0  0  0  0  0  0
    9.4240   15.6950   21.6210 C   0  0  0  0  0  0  0  0  0  0  0  0
   10.6990   15.3140   20.8660 C   0  0  1  0  0  0  0  0  0  0  0  0
   10.6870   15.7710   19.4170 C   0  0  0  0  0  0  0  0  0  0  0  0
   10.4130   16.9390   19.1160 O   0  0  0  0  0  0  0  0  0  0  0  0
   10.9810   14.8460   18.5170 N   0  0  0  0  0  0  0  0  0  0  0  0
    8.6320   13.7410   24.8070 C   0  0  0  0  0  0  0  0  0  0  0  0
    8.0430   12.3620   25.0180 C   0  0  0  0  0  0  0  0  0  0  0  0
    8.5590   11.2340   24.3720 C   0  0  0  0  0  0  0  0  0  0  0  0
    9.6220   11.0870   23.5440 N   0  0  0  0  0  0  0  0  0  0  0  0
    9.8060    9.7810   23.1920 N   0  0  0  0  0  0  0  0  0  0  0  0
    8.8510    9.0990   23.7940 C   0  0  0  0  0  0  0  0  0  0  0  0
    8.0180    9.9470   24.5670 C   0  0  0  0  0  0  0  0  0  0  0  0
    6.9250    9.7980   25.4260 C   0  0  0  0  0  0  0  0  0  0  0  0
    6.4080   10.9070   26.0830 C   0  0  0  0  0  0  0  0  0  0  0  0
    6.9650   12.1650   25.8860 C   0  0  0  0  0  0  0  0  0  0  0  0
 11  9  1  0
 10  9  2  0
  8  9  1  6
  8  6  1  0
  6  5  1  0
  5  4  1  0
  4  3  1  0
  3  2  1  0
  2  1  2  0
 12  2  1  0
 13 12  1  0
 13 21  1  0
 21 20  2  0
 20 19  1  0
 19 18  2  0
 18 17  1  0
 17 16  2  0
 16 15  1  0
 15 14  1  0
 14 13  2  0
 18 14  1  0
  7  3  1  0
  8  7  1  0
M  END
$$$$
