XX01ZVNS2B-x0227_B_301_1_XX01ZVNS2B-x4590+B+203+1__LIG
     RDKit          3D

 13 14  0  0  0  0  0  0  0  0999 V2000
   -5.2800    5.0950  -20.1020 N   0  0  0  0  0  0  0  0  0  0  0  0
   -5.3670    6.1950  -19.1420 C   0  0  0  0  0  0  0  0  0  0  0  0
   -5.6780    5.7030  -17.7100 C   0  0  0  0  0  0  0  0  0  0  0  0
   -4.5730    4.7250  -17.2440 C   0  0  0  0  0  0  0  0  0  0  0  0
   -3.7040    5.5000  -16.2640 C   0  0  0  0  0  0  0  0  0  0  0  0
   -4.5890    6.4700  -15.6510 C   0  0  0  0  0  0  0  0  0  0  0  0
   -5.5150    6.9270  -16.7740 C   0  0  0  0  0  0  0  0  0  0  0  0
   -7.0750    5.1060  -17.5700 C   0  0  0  0  0  0  0  0  0  0  0  0
   -7.6170    4.8700  -16.3110 C   0  0  0  0  0  0  0  0  0  0  0  0
   -8.8850    4.3240  -16.2280 C   0  0  0  0  0  0  0  0  0  0  0  0
   -9.5820    4.0340  -17.3780 C   0  0  0  0  0  0  0  0  0  0  0  0
   -8.9760    4.2970  -18.5860 C   0  0  0  0  0  0  0  0  0  0  0  0
   -7.7410    4.8170  -18.6990 N   0  0  0  0  0  0  0  0  0  0  0  0
  2  1  1  0
  3  2  1  0
  8  3  1  0
  8 13  2  0
 13 12  1  0
 12 11  2  0
 11 10  1  0
 10  9  2  0
  9  8  1  0
  3  7  1  0
  7  6  1  0
  6  5  1  0
  5  4  1  0
  4  3  1  0
M  END
$$$$
