A71EV2A-x4311_A_201_1_A71EV2A-x0911+A+147+1__LIG
     RDKit          3D

 22 23  0  0  0  0  0  0  0  0999 V2000
   10.0180   16.5670   18.8870 O   0  0  0  0  0  0  0  0  0  0  0  0
   10.3430   15.4250   19.2240 C   0  0  0  0  0  0  0  0  0  0  0  0
   10.8120   14.5250   18.3820 N   0  0  0  0  0  0  0  0  0  0  0  0
   10.3040   15.0040   20.6820 C   0  0  1  0  0  0  0  0  0  0  0  0
   11.4680   15.6500   21.4510 C   0  0  0  0  0  0  0  0  0  0  0  0
   11.4180   15.2670   22.9220 C   0  0  0  0  0  0  0  0  0  0  0  0
   10.0360   15.5900   23.5020 C   0  0  0  0  0  0  0  0  0  0  0  0
    8.9710   15.3710   21.3230 C   0  0  0  0  0  0  0  0  0  0  0  0
    8.9710   14.9360   22.7220 N   0  0  0  0  0  0  0  0  0  0  0  0
    8.3260   13.7880   23.0810 C   0  0  0  0  0  0  0  0  0  0  0  0
    7.4560   13.2950   22.3930 O   0  0  0  0  0  0  0  0  0  0  0  0
    8.6440   13.2670   24.2910 N   0  0  0  0  0  0  0  0  0  0  0  0
    8.0450   12.0960   24.8110 C   0  0  0  0  0  0  0  0  0  0  0  0
    6.9960   12.1790   25.7410 C   0  0  0  0  0  0  0  0  0  0  0  0
    6.3720   13.5050   26.2460 C   0  0  0  0  0  0  0  0  0  0  0  0
    5.3220   13.2650   27.3490 C   0  0  0  0  0  0  0  0  0  0  0  0
    5.6340   14.2630   25.1250 C   0  0  0  0  0  0  0  0  0  0  0  0
    7.4460   14.4100   26.8550 C   0  0  0  0  0  0  0  0  0  0  0  0
    8.5360   10.8600   24.4130 C   0  0  0  0  0  0  0  0  0  0  0  0
    7.9860    9.7040   24.9300 C   0  0  0  0  0  0  0  0  0  0  0  0
    6.9800    9.7710   25.8510 C   0  0  0  0  0  0  0  0  0  0  0  0
    6.4890   10.9950   26.2650 C   0  0  0  0  0  0  0  0  0  0  0  0
 18 15  1  0
 17 15  1  0
 16 15  1  0
 15 14  1  0
 14 22  2  0
 22 21  1  0
 21 20  2  0
 20 19  1  0
 19 13  2  0
 14 13  1  0
 13 12  1  0
 12 10  1  0
 11 10  2  0
 10  9  1  0
  9  7  1  0
  7  6  1  0
  6  5  1  0
  5  4  1  0
  4  2  1  6
  3  2  1  0
  2  1  2  0
  8  4  1  0
  9  8  1  0
M  END
$$$$
