A71EV2A-x4032_A_201_1_A71EV2A-x0911+A+147+1__LIG
     RDKit          3D

 20 21  0  0  0  0  0  0  0  0999 V2000
   10.4520   16.6880   19.0190 O   0  0  0  0  0  0  0  0  0  0  0  0
   11.0280   15.6120   19.2110 C   0  0  0  0  0  0  0  0  0  0  0  0
   11.0240   14.6250   18.3330 N   0  0  0  0  0  0  0  0  0  0  0  0
   11.7930   15.3630   20.4880 C   0  0  0  0  0  0  0  0  0  0  0  0
   11.0050   15.6640   21.7530 C   0  0  2  0  0  0  0  0  0  0  0  0
   11.8530   15.0800   22.8940 C   0  0  0  0  0  0  0  0  0  0  0  0
   10.8610   14.6170   23.9390 C   0  0  0  0  0  0  0  0  0  0  0  0
    9.6770   14.8890   21.8250 C   0  0  0  0  0  0  0  0  0  0  0  0
    9.6700   14.2780   23.1520 N   0  0  0  0  0  0  0  0  0  0  0  0
    8.6290   13.5350   23.5600 C   0  0  0  0  0  0  0  0  0  0  0  0
    7.6070   13.4220   22.8970 O   0  0  0  0  0  0  0  0  0  0  0  0
    8.7910   12.9060   24.9300 C   0  0  0  0  0  0  0  0  0  0  0  0
    7.7210   11.8770   25.2030 C   0  0  0  0  0  0  0  0  0  0  0  0
    7.8610   10.5750   24.7190 C   0  0  0  0  0  0  0  0  0  0  0  0
    8.8820   10.3990   23.8160 O   0  0  0  0  0  0  0  0  0  0  0  0
    9.2520    9.0680   23.4610 C   0  0  0  0  0  0  0  0  0  0  0  0
    6.6380   12.1690   26.0290 C   0  0  0  0  0  0  0  0  0  0  0  0
    5.7390   11.1840   26.3940 C   0  0  0  0  0  0  0  0  0  0  0  0
    5.9070    9.9020   25.9400 C   0  0  0  0  0  0  0  0  0  0  0  0
    6.9630    9.5890   25.0920 C   0  0  0  0  0  0  0  0  0  0  0  0
 16 15  1  0
 15 14  1  0
 14 20  2  0
 20 19  1  0
 19 18  2  0
 18 17  1  0
 17 13  2  0
 14 13  1  0
 13 12  1  0
 12 10  1  0
 11 10  2  0
 10  9  1  0
  9  7  1  0
  7  6  1  0
  6  5  1  0
  5  4  1  6
  4  2  1  0
  3  2  1  0
  2  1  2  0
  8  5  1  0
  9  8  1  0
M  END
$$$$
