A71EV2A-x4838_A_201_1_A71EV2A-x0911+A+147+1__LIG
     RDKit          3D

 22 23  0  0  0  0  0  0  0  0999 V2000
    9.3690   10.8600   23.2980 Cl  0  0  0  0  0  0  0  0  0  0  0  0
    8.1720   11.3020   24.4790 C   0  0  0  0  0  0  0  0  0  0  0  0
    7.6400   10.3060   25.2760 C   0  0  0  0  0  0  0  0  0  0  0  0
    6.6660   10.6160   26.2040 C   0  0  0  0  0  0  0  0  0  0  0  0
    6.2340   11.9270   26.3510 C   0  0  0  0  0  0  0  0  0  0  0  0
    5.1810   12.2840   27.3500 C   0  0  0  0  0  0  0  0  0  0  0  0
    5.1630   11.4640   28.4080 F   0  0  0  0  0  0  0  0  0  0  0  0
    3.9600   12.2370   26.8280 F   0  0  0  0  0  0  0  0  0  0  0  0
    5.3320   13.5100   27.8350 F   0  0  0  0  0  0  0  0  0  0  0  0
    6.7870   12.9100   25.5400 C   0  0  0  0  0  0  0  0  0  0  0  0
    7.7530   12.6230   24.5790 C   0  0  0  0  0  0  0  0  0  0  0  0
    8.2280   13.7000   23.6320 C   0  0  0  0  0  0  0  0  0  0  0  0
    9.6340   14.1710   23.9530 C   0  0  0  0  0  0  0  0  0  0  0  0
   10.0620   14.1870   25.0990 O   0  0  0  0  0  0  0  0  0  0  0  0
   10.3730   14.5880   22.9070 N   0  0  0  0  0  0  0  0  0  0  0  0
   11.8210   14.8470   22.9730 C   0  0  0  0  0  0  0  0  0  0  0  0
   12.1450   15.3390   21.5680 C   0  0  0  0  0  0  0  0  0  0  0  0
    9.8290   14.8480   21.5740 C   0  0  0  0  0  0  0  0  0  0  0  0
   11.0630   14.6660   20.7050 C   0  0  1  0  0  0  0  0  0  0  0  0
   10.8660   15.2580   19.3220 C   0  0  0  0  0  0  0  0  0  0  0  0
   10.2850   16.3360   19.1670 O   0  0  0  0  0  0  0  0  0  0  0  0
   11.2970   14.5170   18.3170 N   0  0  0  0  0  0  0  0  0  0  0  0
 22 20  1  0
 21 20  2  0
 19 20  1  6
 19 17  1  0
 17 16  1  0
 16 15  1  0
 15 13  1  0
 14 13  2  0
 13 12  1  0
 12 11  1  0
 11 10  2  0
 10  5  1  0
  6  5  1  0
  9  6  1  0
  8  6  1  0
  7  6  1  0
  5  4  2  0
  4  3  1  0
  3  2  2  0
 11  2  1  0
  2  1  1  0
 18 15  1  0
 19 18  1  0
M  END
$$$$
