A71EV2A-x4463_A_201_1_A71EV2A-x0911+A+147+1__LIG
     RDKit          3D

 21 23  0  0  0  0  0  0  0  0999 V2000
    7.9580   13.3260   22.6900 O   0  0  0  0  0  0  0  0  0  0  0  0
    8.7580   13.8810   23.4280 C   0  0  0  0  0  0  0  0  0  0  0  0
    9.5530   14.8890   23.0000 N   0  0  0  0  0  0  0  0  0  0  0  0
   10.6110   15.5300   23.7970 C   0  0  0  0  0  0  0  0  0  0  0  0
   11.9720   15.3030   23.1500 C   0  0  0  0  0  0  0  0  0  0  0  0
   11.9650   15.7180   21.6710 C   0  0  0  0  0  0  0  0  0  0  0  0
    9.4790   15.4070   21.6290 C   0  0  0  0  0  0  0  0  0  0  0  0
   10.7880   15.1000   20.8890 C   0  0  1  0  0  0  0  0  0  0  0  0
   10.7640   15.5670   19.4410 C   0  0  0  0  0  0  0  0  0  0  0  0
   10.4130   16.7140   19.1430 O   0  0  0  0  0  0  0  0  0  0  0  0
   11.1020   14.6670   18.5360 N   0  0  0  0  0  0  0  0  0  0  0  0
    8.9030   13.4610   24.8800 C   0  0  0  0  0  0  0  0  0  0  0  0
    8.2190   12.1400   25.1580 C   0  0  0  0  0  0  0  0  0  0  0  0
    8.6390   10.9580   24.5160 C   0  0  0  0  0  0  0  0  0  0  0  0
    9.6720   10.8090   23.6390 N   0  0  0  0  0  0  0  0  0  0  0  0
    9.7270    9.2000   23.2620 S   0  0  0  0  0  0  0  0  0  0  0  0
    8.4550    8.6770   24.1620 N   0  0  0  0  0  0  0  0  0  0  0  0
    7.9490    9.7410   24.7990 C   0  0  0  0  0  0  0  0  0  0  0  0
    6.8570    9.7280   25.6810 C   0  0  0  0  0  0  0  0  0  0  0  0
    6.4710   10.8990   26.3020 C   0  0  0  0  0  0  0  0  0  0  0  0
    7.1500   12.0810   26.0520 C   0  0  0  0  0  0  0  0  0  0  0  0
 11  9  1  0
 10  9  2  0
  8  9  1  6
  8  6  1  0
  6  5  1  0
  5  4  1  0
  4  3  1  0
  3  2  1  0
  2  1  2  0
 12  2  1  0
 13 12  1  0
 13 21  2  0
 21 20  1  0
 20 19  2  0
 19 18  1  0
 18 17  2  0
 17 16  1  0
 16 15  1  0
 15 14  2  0
 14 13  1  0
 18 14  1  0
  7  3  1  0
  8  7  1  0
M  END
$$$$
