A71EV2A-x4207_A_201_1_A71EV2A-x0911+A+147+1__LIG
     RDKit          3D

 24 25  0  0  0  0  0  0  0  0999 V2000
   10.7690   14.5130   18.6270 O   0  0  0  0  0  0  0  0  0  0  0  0
   10.5740   15.3110   19.5510 C   0  0  0  0  0  0  0  0  0  0  0  0
   10.1690   16.5490   19.3530 N   0  0  0  0  0  0  0  0  0  0  0  0
   10.8380   14.9170   20.9950 C   0  0  1  0  0  0  0  0  0  0  0  0
   12.0370   15.6880   21.5760 C   0  0  0  0  0  0  0  0  0  0  0  0
   12.2900   15.2860   23.0280 C   0  0  0  0  0  0  0  0  0  0  0  0
   11.0400   15.5000   23.8630 C   0  0  0  0  0  0  0  0  0  0  0  0
    9.6000   15.1290   21.8750 C   0  0  0  0  0  0  0  0  0  0  0  0
    9.8940   14.7890   23.2730 N   0  0  0  0  0  0  0  0  0  0  0  0
    9.1520   13.9480   24.0320 C   0  0  0  0  0  0  0  0  0  0  0  0
    9.4680   13.6770   25.1810 O   0  0  0  0  0  0  0  0  0  0  0  0
    7.8290   13.3980   23.4570 C   0  0  2  0  0  0  0  0  0  0  0  0
    6.8750   14.4950   23.3140 N   0  0  0  0  0  0  0  0  0  0  0  0
    6.0080   14.5960   22.2970 C   0  0  0  0  0  0  0  0  0  0  0  0
    5.9220   13.7320   21.4250 O   0  0  0  0  0  0  0  0  0  0  0  0
    5.1680   15.8390   22.2730 C   0  0  0  0  0  0  0  0  0  0  0  0
    7.2850   12.3240   24.3910 C   0  0  0  0  0  0  0  0  0  0  0  0
    7.7230   11.0050   24.2680 C   0  0  0  0  0  0  0  0  0  0  0  0
    8.7090   10.8050   23.3380 O   0  0  0  0  0  0  0  0  0  0  0  0
    9.3830    9.5350   23.3260 C   0  0  0  0  0  0  0  0  0  0  0  0
    6.2900   12.6000   25.3290 C   0  0  0  0  0  0  0  0  0  0  0  0
    5.7300   11.5900   26.0970 C   0  0  0  0  0  0  0  0  0  0  0  0
    6.1510   10.2880   25.9390 C   0  0  0  0  0  0  0  0  0  0  0  0
    7.1550    9.9870   25.0300 C   0  0  0  0  0  0  0  0  0  0  0  0
 20 19  1  0
 19 18  1  0
 18 24  2  0
 24 23  1  0
 23 22  2  0
 22 21  1  0
 21 17  2  0
 18 17  1  0
 17 12  1  0
 12 13  1  1
 14 13  1  0
 16 14  1  0
 15 14  2  0
 12 10  1  0
 11 10  2  0
 10  9  1  0
  9  7  1  0
  7  6  1  0
  6  5  1  0
  5  4  1  0
  4  2  1  6
  3  2  1  0
  2  1  2  0
  8  4  1  0
  9  8  1  0
M  END
$$$$
