A71EV2A-x4967_C_201_1_A71EV2A-x0911+A+147+1__LIG
     RDKit          3D

 24 26  0  0  0  0  0  0  0  0999 V2000
   10.3380   16.6530   19.3420 O   0  0  0  0  0  0  0  0  0  0  0  0
   10.6670   15.4690   19.5380 C   0  0  0  0  0  0  0  0  0  0  0  0
   10.9780   14.6230   18.5660 N   0  0  0  0  0  0  0  0  0  0  0  0
   10.7270   14.8980   20.9430 C   0  0  2  0  0  0  0  0  0  0  0  0
    9.5300   15.3390   21.7810 C   0  0  0  0  0  0  0  0  0  0  0  0
   12.0440   15.2710   21.6490 C   0  0  0  0  0  0  0  0  0  0  0  0
   11.8750   15.9430   23.0160 C   0  0  1  0  0  0  0  0  0  0  0  0
   10.8320   15.2100   23.8730 C   0  0  1  0  0  0  0  0  0  0  0  0
   10.4830   16.1010   25.0630 C   0  0  0  0  0  0  0  0  0  0  0  0
   11.7590   16.2470   25.9310 C   0  0  0  0  0  0  0  0  0  0  0  0
   12.9420   16.8350   25.1280 C   0  0  0  0  0  0  0  0  0  0  0  0
   13.1780   16.0630   23.8130 C   0  0  0  0  0  0  0  0  0  0  0  0
    9.6510   14.7320   23.1100 N   0  0  0  0  0  0  0  0  0  0  0  0
    8.8610   13.6730   23.4350 C   0  0  0  0  0  0  0  0  0  0  0  0
    7.9410   13.3040   22.7050 O   0  0  0  0  0  0  0  0  0  0  0  0
    9.1870   12.9290   24.7190 C   0  0  0  0  0  0  0  0  0  0  0  0
    8.1560   11.8770   25.0560 C   0  0  0  0  0  0  0  0  0  0  0  0
    8.2570   10.5790   24.5570 C   0  0  0  0  0  0  0  0  0  0  0  0
    9.2810   10.3700   23.6800 O   0  0  0  0  0  0  0  0  0  0  0  0
    9.5430    9.0260   23.2600 C   0  0  0  0  0  0  0  0  0  0  0  0
    7.1840   12.0930   26.0060 C   0  0  0  0  0  0  0  0  0  0  0  0
    6.3460   11.1650   26.4690 N   0  0  0  0  0  0  0  0  0  0  0  0
    6.4710    9.9400   25.9740 C   0  0  0  0  0  0  0  0  0  0  0  0
    7.4040    9.5870   25.0170 C   0  0  0  0  0  0  0  0  0  0  0  0
 20 19  1  0
 19 18  1  0
 18 24  2  0
 24 23  1  0
 23 22  2  0
 22 21  1  0
 21 17  2  0
 18 17  1  0
 17 16  1  0
 16 14  1  0
 15 14  2  0
 14 13  1  0
 13  5  1  0
  5  4  1  0
  4  2  1  6
  3  2  1  0
  2  1  2  0
  6  4  1  0
  7  6  1  6
  7 12  1  0
 12 11  1  0
 11 10  1  0
 10  9  1  0
  8  9  1  1
  8  7  1  0
 13  8  1  0
M  END
$$$$
