A71EV2A-x3936_A_201_1_A71EV2A-x0911+A+147+1__LIG
     RDKit          3D

 20 21  0  0  0  0  0  0  0  0999 V2000
    9.8390   16.3460   19.3560 O   0  0  0  0  0  0  0  0  0  0  0  0
   10.3050   15.2200   19.5590 C   0  0  0  0  0  0  0  0  0  0  0  0
   10.8150   14.4570   18.5940 N   0  0  0  0  0  0  0  0  0  0  0  0
   10.3640   14.6430   20.9600 C   0  0  1  0  0  0  0  0  0  0  0  0
   11.5620   15.2080   21.7590 C   0  0  0  0  0  0  0  0  0  0  0  0
   11.6240   14.5670   23.1440 C   0  0  0  0  0  0  0  0  0  0  0  0
   10.3110   14.8020   23.8680 C   0  0  0  0  0  0  0  0  0  0  0  0
    9.0740   14.8740   21.7500 C   0  0  0  0  0  0  0  0  0  0  0  0
    9.1940   14.2580   23.0770 N   0  0  0  0  0  0  0  0  0  0  0  0
    8.3730   13.2630   23.4590 C   0  0  0  0  0  0  0  0  0  0  0  0
    7.4280   12.9480   22.7630 O   0  0  0  0  0  0  0  0  0  0  0  0
    8.5370   12.5230   24.7930 C   0  0  2  0  0  0  0  0  0  0  0  0
    9.6130   11.4580   24.7540 C   0  0  0  0  0  0  0  0  0  0  0  0
    9.3490   10.5540   23.7050 O   0  0  0  0  0  0  0  0  0  0  0  0
    9.8220    9.2740   23.9800 C   0  0  0  0  0  0  0  0  0  0  0  0
    7.3140   11.7910   25.0200 O   0  0  0  0  0  0  0  0  0  0  0  0
    6.3160   12.2800   25.9380 C   0  0  0  0  0  0  0  0  0  0  0  0
    6.2320   13.8010   26.0620 C   0  0  0  0  0  0  0  0  0  0  0  0
    7.6060   14.4820   26.0950 C   0  0  0  0  0  0  0  0  0  0  0  0
    8.7450   13.4760   25.9660 C   0  0  0  0  0  0  0  0  0  0  0  0
 15 14  1  0
 14 13  1  0
 12 13  1  6
 12 10  1  0
 11 10  2  0
 10  9  1  0
  9  7  1  0
  7  6  1  0
  6  5  1  0
  5  4  1  0
  4  2  1  6
  3  2  1  0
  2  1  2  0
  8  4  1  0
  9  8  1  0
 12 20  1  0
 20 19  1  0
 19 18  1  0
 18 17  1  0
 17 16  1  0
 16 12  1  0
M  END
$$$$
