A71EV2A-x4673_C_201_1_A71EV2A-x0911+A+147+1__LIG
     RDKit          3D

 22 24  0  0  0  0  0  0  0  0999 V2000
    9.7340   10.1680   23.9790 Br  0  0  0  0  0  0  0  0  0  0  0  0
    8.3410   10.8380   25.0670 C   0  0  0  0  0  0  0  0  0  0  0  0
    7.4010    9.9300   25.5360 C   0  0  0  0  0  0  0  0  0  0  0  0
    6.3350   10.4290   26.2470 C   0  0  0  0  0  0  0  0  0  0  0  0
    5.2560    9.7480   26.7750 O   0  0  0  0  0  0  0  0  0  0  0  0
    4.5510   10.7160   27.5550 C   0  0  0  0  0  0  0  0  0  0  0  0
    5.0780   12.0110   27.2360 O   0  0  0  0  0  0  0  0  0  0  0  0
    6.2140   11.7670   26.4950 C   0  0  0  0  0  0  0  0  0  0  0  0
    7.1550   12.6690   26.0400 C   0  0  0  0  0  0  0  0  0  0  0  0
    8.2550   12.2100   25.3110 C   0  0  0  0  0  0  0  0  0  0  0  0
    9.2960   13.1950   24.8230 C   0  0  0  0  0  0  0  0  0  0  0  0
    9.0030   13.6950   23.4160 C   0  0  0  0  0  0  0  0  0  0  0  0
    8.0880   13.2280   22.7490 O   0  0  0  0  0  0  0  0  0  0  0  0
    9.7890   14.6970   22.9530 N   0  0  0  0  0  0  0  0  0  0  0  0
   10.8620   15.3790   23.6990 C   0  0  0  0  0  0  0  0  0  0  0  0
   12.1910   15.2510   22.9540 C   0  0  0  0  0  0  0  0  0  0  0  0
   12.0480   15.7840   21.5260 C   0  0  0  0  0  0  0  0  0  0  0  0
    9.6200   15.1780   21.5770 C   0  0  0  0  0  0  0  0  0  0  0  0
   10.9330   15.0170   20.7940 C   0  0  1  0  0  0  0  0  0  0  0  0
   10.7720   15.5130   19.3680 C   0  0  0  0  0  0  0  0  0  0  0  0
   10.3780   16.6660   19.1370 O   0  0  0  0  0  0  0  0  0  0  0  0
   11.0460   14.6250   18.4120 N   0  0  0  0  0  0  0  0  0  0  0  0
 22 20  1  0
 21 20  2  0
 19 20  1  6
 19 17  1  0
 17 16  1  0
 16 15  1  0
 15 14  1  0
 14 12  1  0
 13 12  2  0
 12 11  1  0
 11 10  1  0
 10  9  2  0
  9  8  1  0
  8  4  2  0
  4  3  1  0
  3  2  2  0
 10  2  1  0
  2  1  1  0
  5  4  1  0
  6  5  1  0
  7  6  1  0
  8  7  1  0
 18 14  1  0
 19 18  1  0
M  END
$$$$
