A71EV2A-x5466_A_201_5_A71EV2A-x0911+A+147+1__LIG
     RDKit          3D

 21 22  0  0  0  0  0  0  0  0999 V2000
   10.5150   16.7200   19.1760 O   0  0  0  0  0  0  0  0  0  0  0  0
   10.7340   15.5170   19.3330 C   0  0  0  0  0  0  0  0  0  0  0  0
   10.8970   14.6770   18.3260 N   0  0  0  0  0  0  0  0  0  0  0  0
   10.7640   14.8990   20.7190 C   0  0  1  0  0  0  0  0  0  0  0  0
   11.8480   15.5410   21.6030 C   0  0  0  0  0  0  0  0  0  0  0  0
   11.7800   15.0250   23.0550 C   0  0  0  0  0  0  0  0  0  0  0  0
   10.3770   15.1820   23.6200 C   0  0  0  0  0  0  0  0  0  0  0  0
    9.3950   15.1630   21.3520 C   0  0  0  0  0  0  0  0  0  0  0  0
    9.3770   14.6080   22.7050 N   0  0  0  0  0  0  0  0  0  0  0  0
    8.5320   13.6130   23.0450 C   0  0  0  0  0  0  0  0  0  0  0  0
    7.6530   13.1560   22.3550 O   0  0  0  0  0  0  0  0  0  0  0  0
    8.8650   13.0740   24.2520 O   0  0  0  0  0  0  0  0  0  0  0  0
    8.0050   12.0960   24.7640 C   0  0  0  0  0  0  0  0  0  0  0  0
    8.1630   10.7320   24.3930 C   0  0  0  0  0  0  0  0  0  0  0  0
    9.2530   10.2740   23.4660 C   0  0  0  0  0  0  0  0  0  0  0  0
    7.2630    9.8280   25.0190 C   0  0  0  0  0  0  0  0  0  0  0  0
    6.3550   10.2270   25.9440 C   0  0  0  0  0  0  0  0  0  0  0  0
    7.0820   12.5060   25.6630 C   0  0  0  0  0  0  0  0  0  0  0  0
    6.2490   11.5990   26.3230 C   0  0  0  0  0  0  0  0  0  0  0  0
    5.4980   12.0330   27.3640 C   0  0  0  0  0  0  0  0  0  0  0  0
    4.8770   12.4200   28.2930 C   0  0  0  0  0  0  0  0  0  0  0  0
 21 20  3  0
 20 19  1  0
 19 17  2  0
 17 16  1  0
 16 14  2  0
 15 14  1  0
 14 13  1  0
 13 12  1  0
 12 10  1  0
 11 10  2  0
 10  9  1  0
  9  7  1  0
  7  6  1  0
  6  5  1  0
  5  4  1  0
  4  2  1  6
  3  2  1  0
  2  1  2  0
  8  4  1  0
  9  8  1  0
 18 13  2  0
 19 18  1  0
M  END
$$$$
