XX01ZVNS2B-x2057_B_203_1_XX01ZVNS2B-x4590+B+203+1__LIG
     RDKit          3D

 24 26  0  0  0  0  0  0  0  0999 V2000
   -2.8780    5.3900  -15.3450 C   0  0  0  0  0  0  0  0  0  0  0  0
   -4.1920    5.2620  -16.0560 C   0  0  0  0  0  0  0  0  0  0  0  0
   -4.2830    5.5390  -17.4360 C   0  0  0  0  0  0  0  0  0  0  0  0
   -5.4800    5.4220  -18.0830 C   0  0  0  0  0  0  0  0  0  0  0  0
   -5.6150    5.7400  -19.5510 C   0  0  0  0  0  0  0  0  0  0  0  0
   -4.4140    5.5320  -20.2910 O   0  0  0  0  0  0  0  0  0  0  0  0
   -6.6310    5.0500  -17.3270 C   0  0  0  0  0  0  0  0  0  0  0  0
   -7.9100    4.8860  -17.9110 C   0  0  0  0  0  0  0  0  0  0  0  0
   -8.9710    4.5150  -17.1440 C   0  0  0  0  0  0  0  0  0  0  0  0
   -8.8180    4.2750  -15.7670 C   0  0  0  0  0  0  0  0  0  0  0  0
   -7.5960    4.4110  -15.1520 C   0  0  0  0  0  0  0  0  0  0  0  0
   -7.3500    4.1720  -13.7900 N   0  0  0  0  0  0  0  0  0  0  0  0
   -7.2780    2.9920  -13.1320 C   0  0  0  0  0  0  0  0  0  0  0  0
   -7.2050    1.9040  -13.6870 O   0  0  0  0  0  0  0  0  0  0  0  0
   -7.3300    3.0830  -11.6250 C   0  0  0  0  0  0  0  0  0  0  0  0
   -8.6660    3.6070  -11.0730 C   0  0  0  0  0  0  0  0  0  0  0  0
   -8.8500    3.5520   -9.5580 C   0  0  0  0  0  0  0  0  0  0  0  0
   -7.7540    4.2800   -8.7840 C   0  0  0  0  0  0  0  0  0  0  0  0
   -7.9360    4.2550   -7.2820 C   0  0  0  0  0  0  0  0  0  0  0  0
   -8.9250    3.2510   -6.8510 N   0  0  0  0  0  0  0  0  0  0  0  0
   -8.7840    1.9690   -7.5570 C   0  0  0  0  0  0  0  0  0  0  0  0
   -9.0340    2.1310   -9.0280 C   0  0  0  0  0  0  0  0  0  0  0  0
   -6.4600    4.7920  -15.9380 C   0  0  0  0  0  0  0  0  0  0  0  0
   -5.2420    4.9080  -15.3340 N   0  0  0  0  0  0  0  0  0  0  0  0
  1  2  1  0
  2  3  2  0
  3  4  1  0
  4  5  1  0
  5  6  1  0
  4  7  2  0
  7  8  1  0
  8  9  2  0
  9 10  1  0
 10 11  2  0
 11 12  1  0
 12 13  1  0
 13 14  2  0
 13 15  1  0
 15 16  1  0
 16 17  1  0
 17 18  1  0
 18 19  1  0
 19 20  1  0
 20 21  1  0
 21 22  1  0
 11 23  1  0
 23 24  2  0
  2 24  1  0
  7 23  1  0
 17 22  1  0
M  END
$$$$
