A71EV2A-x5283_C_201_3_A71EV2A-x0911+A+147+1__LIG
     RDKit          3D

 23 25  0  0  0  0  0  0  0  0999 V2000
   10.3450   16.6650   19.2070 O   0  0  0  0  0  0  0  0  0  0  0  0
   10.7210   15.5000   19.4480 C   0  0  0  0  0  0  0  0  0  0  0  0
   11.0090   14.6200   18.4920 N   0  0  0  0  0  0  0  0  0  0  0  0
   10.8080   14.9900   20.8730 C   0  0  1  0  0  0  0  0  0  0  0  0
   11.9780   15.6230   21.6380 C   0  0  0  0  0  0  0  0  0  0  0  0
   12.0220   15.0620   23.0660 C   0  0  0  0  0  0  0  0  0  0  0  0
   10.7060   15.2850   23.7800 C   0  0  0  0  0  0  0  0  0  0  0  0
    9.5030   15.2720   21.6320 C   0  0  0  0  0  0  0  0  0  0  0  0
    9.5750   14.7490   23.0020 N   0  0  0  0  0  0  0  0  0  0  0  0
    8.7370   13.7320   23.3750 C   0  0  0  0  0  0  0  0  0  0  0  0
    7.8460   13.3180   22.6350 O   0  0  0  0  0  0  0  0  0  0  0  0
    8.8820   13.2590   24.6490 N   0  0  0  0  0  0  0  0  0  0  0  0
    8.0240   12.1800   25.1010 C   0  0  0  0  0  0  0  0  0  0  0  0
    8.3170   10.8590   24.7460 C   0  0  0  0  0  0  0  0  0  0  0  0
    9.6920   10.5990   23.6710 S   0  0  0  0  0  0  0  0  0  0  0  0
    9.6850    8.7950   23.4590 C   0  0  0  0  0  0  0  0  0  0  0  0
    6.9660   12.4940   25.9720 C   0  0  0  0  0  0  0  0  0  0  0  0
    6.5650   13.7420   26.4280 N   0  0  0  0  0  0  0  0  0  0  0  0
    5.5170   13.6250   27.1910 C   0  0  0  0  0  0  0  0  0  0  0  0
    4.9130   12.0240   27.4610 S   0  0  0  0  0  0  0  0  0  0  0  0
    6.1970   11.4160   26.4460 C   0  0  0  0  0  0  0  0  0  0  0  0
    6.4780   10.0930   26.0970 C   0  0  0  0  0  0  0  0  0  0  0  0
    7.5370    9.8100   25.2470 C   0  0  0  0  0  0  0  0  0  0  0  0
 16 15  1  0
 15 14  1  0
 14 23  2  0
 23 22  1  0
 22 21  2  0
 21 20  1  0
 20 19  1  0
 19 18  2  0
 18 17  1  0
 21 17  1  0
 17 13  2  0
 14 13  1  0
 13 12  1  0
 12 10  1  0
 11 10  2  0
 10  9  1  0
  9  7  1  0
  7  6  1  0
  6  5  1  0
  5  4  1  0
  4  2  1  6
  3  2  1  0
  2  1  2  0
  8  4  1  0
  9  8  1  0
M  END
$$$$
