A71EV2A-x4028_A_201_1_A71EV2A-x0911+A+147+1__LIG
     RDKit          3D

 24 25  0  0  0  0  0  0  0  0999 V2000
   10.1310   16.7870   19.1040 O   0  0  0  0  0  0  0  0  0  0  0  0
   10.4990   15.6300   19.3470 C   0  0  0  0  0  0  0  0  0  0  0  0
   10.8680   14.7770   18.4040 N   0  0  0  0  0  0  0  0  0  0  0  0
   10.5780   15.1170   20.7760 C   0  0  1  0  0  0  0  0  0  0  0  0
   11.6290   15.8990   21.5850 C   0  0  0  0  0  0  0  0  0  0  0  0
   11.6880   15.4530   23.0510 C   0  0  0  0  0  0  0  0  0  0  0  0
   10.3100   15.4860   23.6850 C   0  0  0  0  0  0  0  0  0  0  0  0
    9.2320   15.2810   21.4860 C   0  0  0  0  0  0  0  0  0  0  0  0
    9.3360   14.7630   22.8540 N   0  0  0  0  0  0  0  0  0  0  0  0
    8.5870   13.7110   23.2430 C   0  0  0  0  0  0  0  0  0  0  0  0
    7.7170   13.2340   22.5310 O   0  0  0  0  0  0  0  0  0  0  0  0
    8.8760   13.1640   24.6290 C   0  0  0  0  0  0  0  0  0  0  0  0
    7.8950   12.0930   25.0440 C   0  0  0  0  0  0  0  0  0  0  0  0
    8.0800   10.7710   24.6390 C   0  0  0  0  0  0  0  0  0  0  0  0
    9.1690   10.5640   23.8350 O   0  0  0  0  0  0  0  0  0  0  0  0
    9.4240    9.2250   23.3780 C   0  0  0  0  0  0  0  0  0  0  0  0
    6.8520   12.3720   25.9270 C   0  0  0  0  0  0  0  0  0  0  0  0
    6.0090   11.3800   26.4160 C   0  0  0  0  0  0  0  0  0  0  0  0
    4.9030   11.7290   27.3650 C   0  0  0  0  0  0  0  0  0  0  0  0
    5.3430   11.9970   28.5690 F   0  0  0  0  0  0  0  0  0  0  0  0
    3.9990   10.7690   27.5270 F   0  0  0  0  0  0  0  0  0  0  0  0
    4.2130   12.7810   27.0000 F   0  0  0  0  0  0  0  0  0  0  0  0
    6.2240   10.0710   26.0040 C   0  0  0  0  0  0  0  0  0  0  0  0
    7.2450    9.7670   25.1160 C   0  0  0  0  0  0  0  0  0  0  0  0
 16 15  1  0
 15 14  1  0
 14 24  2  0
 24 23  1  0
 23 18  2  0
 19 18  1  0
 22 19  1  0
 21 19  1  0
 20 19  1  0
 18 17  1  0
 17 13  2  0
 14 13  1  0
 13 12  1  0
 12 10  1  0
 11 10  2  0
 10  9  1  0
  9  7  1  0
  7  6  1  0
  6  5  1  0
  5  4  1  0
  4  2  1  6
  3  2  1  0
  2  1  2  0
  8  4  1  0
  9  8  1  0
M  END
$$$$
