A71EV2A-x3975_A_201_1_A71EV2A-x0911+A+147+1__LIG
     RDKit          3D

 24 26  0  0  0  0  0  0  0  0999 V2000
    7.3350   13.6670   22.2970 O   0  0  0  0  0  0  0  0  0  0  0  0
    8.1670   14.0150   23.1140 C   0  0  0  0  0  0  0  0  0  0  0  0
    9.2170   14.8010   22.7690 N   0  0  0  0  0  0  0  0  0  0  0  0
   10.3470   15.1410   23.6530 C   0  0  0  0  0  0  0  0  0  0  0  0
   11.6980   14.8370   23.0060 C   0  0  0  0  0  0  0  0  0  0  0  0
   11.7820   15.4350   21.5970 C   0  0  0  0  0  0  0  0  0  0  0  0
    9.2920   15.3770   21.4250 C   0  0  0  0  0  0  0  0  0  0  0  0
   10.5960   14.9610   20.7350 C   0  0  1  0  0  0  0  0  0  0  0  0
   10.6820   15.5100   19.3230 C   0  0  0  0  0  0  0  0  0  0  0  0
   10.3150   16.6600   19.0690 O   0  0  0  0  0  0  0  0  0  0  0  0
   11.1370   14.6750   18.3980 N   0  0  0  0  0  0  0  0  0  0  0  0
    8.0330   13.5610   24.5670 C   0  0  2  0  0  0  0  0  0  0  0  0
    8.2450   12.0550   24.4880 C   0  0  0  0  0  0  0  0  0  0  0  0
    7.3860   11.1690   25.1230 C   0  0  0  0  0  0  0  0  0  0  0  0
    7.5390    9.8040   24.9660 C   0  0  0  0  0  0  0  0  0  0  0  0
    8.5680    9.3010   24.1970 C   0  0  0  0  0  0  0  0  0  0  0  0
    9.4420   10.1650   23.5810 C   0  0  0  0  0  0  0  0  0  0  0  0
    9.2810   11.5340   23.7220 C   0  0  0  0  0  0  0  0  0  0  0  0
    6.6370   13.9580   25.0950 C   0  0  0  0  0  0  0  0  0  0  0  0
    6.4120   15.4120   25.1140 N   0  0  0  0  0  0  0  0  0  0  0  0
    5.0540   15.7760   25.5310 C   0  0  0  0  0  0  0  0  0  0  0  0
    5.1530   17.2580   25.8140 C   0  0  0  0  0  0  0  0  0  0  0  0
    6.5800   17.4570   26.2860 C   0  0  0  0  0  0  0  0  0  0  0  0
    7.2780   16.1180   26.0680 C   0  0  0  0  0  0  0  0  0  0  0  0
 11  9  1  0
 10  9  2  0
  8  9  1  6
  8  6  1  0
  6  5  1  0
  5  4  1  0
  4  3  1  0
  3  2  1  0
  2  1  2  0
 12  2  1  0
 12 19  1  6
 20 19  1  0
 20 24  1  0
 24 23  1  0
 23 22  1  0
 22 21  1  0
 21 20  1  0
 13 12  1  0
 13 18  2  0
 18 17  1  0
 17 16  2  0
 16 15  1  0
 15 14  2  0
 14 13  1  0
  7  3  1  0
  8  7  1  0
M  END
$$$$
