XX01ZVNS2B-x0605_B_301_1_XX01ZVNS2B-x4590+B+203+1__LIG
     RDKit          3D

  9  9  0  0  0  0  0  0  0  0999 V2000
  -10.5930    4.1240  -18.3990 C   0  0  0  0  0  0  0  0  0  0  0  0
   -9.8540    4.4140  -17.3760 C   0  0  0  0  0  0  0  0  0  0  0  0
   -8.3840    4.5270  -17.3590 C   0  0  0  0  0  0  0  0  0  0  0  0
   -7.6770    4.6740  -18.5460 C   0  0  0  0  0  0  0  0  0  0  0  0
   -6.3010    4.8310  -18.5350 C   0  0  0  0  0  0  0  0  0  0  0  0
   -5.6230    4.8390  -17.3380 C   0  0  0  0  0  0  0  0  0  0  0  0
   -7.6320    4.5350  -16.1490 C   0  0  0  0  0  0  0  0  0  0  0  0
   -6.2910    4.6920  -16.1740 N   0  0  0  0  0  0  0  0  0  0  0  0
   -5.5450    4.7070  -14.8990 C   0  0  0  0  0  0  0  0  0  0  0  0
  9  8  1  0
  8  6  1  0
  6  5  2  0
  5  4  1  0
  4  3  2  0
  3  2  1  0
  2  1  2  0
  7  3  1  0
  8  7  2  0
M  CHG  1   8   1
M  END
$$$$
