A71EV2A-x5262_A_201_3_A71EV2A-x0911+A+147+1__LIG
     RDKit          3D

 21 23  0  0  0  0  0  0  0  0999 V2000
   10.0270   16.7830   18.9690 O   0  0  0  0  0  0  0  0  0  0  0  0
   10.0850   15.5900   19.2810 C   0  0  0  0  0  0  0  0  0  0  0  0
   10.5240   14.6470   18.4470 N   0  0  0  0  0  0  0  0  0  0  0  0
    9.6050   15.1210   20.6390 C   0  0  0  0  0  0  0  0  0  0  0  0
   10.7550   15.0860   21.6570 C   0  0  2  0  0  0  0  0  0  0  0  0
   11.5830   16.3430   22.0370 C   0  0  0  0  0  0  0  0  0  0  0  0
   12.1150   14.3880   21.3450 C   0  0  0  0  0  0  0  0  0  0  0  0
   12.5600   15.2530   22.5480 C   0  0  2  0  0  0  0  0  0  0  0  0
   11.7670   14.6120   23.6970 C   0  0  0  0  0  0  0  0  0  0  0  0
   10.4780   14.5660   23.0170 N   0  0  0  0  0  0  0  0  0  0  0  0
    9.3080   14.1800   23.5700 C   0  0  0  0  0  0  0  0  0  0  0  0
    8.2490   14.1930   22.9580 O   0  0  0  0  0  0  0  0  0  0  0  0
    9.3540   13.7400   25.0230 C   0  0  0  0  0  0  0  0  0  0  0  0
    8.3110   12.6920   25.3330 C   0  0  0  0  0  0  0  0  0  0  0  0
    8.3810   11.3770   24.8530 C   0  0  0  0  0  0  0  0  0  0  0  0
    9.7000   10.9160   23.7670 S   0  0  0  0  0  0  0  0  0  0  0  0
    9.5560    9.1450   23.6320 C   0  0  0  0  0  0  0  0  0  0  0  0
    7.2500   13.0370   26.1730 C   0  0  0  0  0  0  0  0  0  0  0  0
    6.3060   12.0950   26.5460 C   0  0  0  0  0  0  0  0  0  0  0  0
    6.3950   10.8030   26.0810 C   0  0  0  0  0  0  0  0  0  0  0  0
    7.4270   10.4360   25.2270 C   0  0  0  0  0  0  0  0  0  0  0  0
 17 16  1  0
 16 15  1  0
 15 21  2  0
 21 20  1  0
 20 19  2  0
 19 18  1  0
 18 14  2  0
 15 14  1  0
 14 13  1  0
 13 11  1  0
 12 11  2  0
 11 10  1  0
 10  9  1  0
  8  9  1  1
  8  6  1  0
  6  5  1  0
 10  5  1  0
  5  4  1  6
  4  2  1  0
  3  2  1  0
  2  1  2  0
  7  5  1  0
  8  7  1  0
M  END
$$$$
