A71EV2A-x3489_A_201_1_A71EV2A-x0911+A+147+1__LIG
     RDKit          3D

 22 24  0  0  0  0  0  0  0  0999 V2000
   10.3810   16.4800   19.3280 O   0  0  0  0  0  0  0  0  0  0  0  0
   10.9250   15.3780   19.4440 C   0  0  0  0  0  0  0  0  0  0  0  0
   11.3190   14.6610   18.4020 N   0  0  0  0  0  0  0  0  0  0  0  0
   11.1230   14.7420   20.8100 C   0  0  1  0  0  0  0  0  0  0  0  0
   12.1950   15.4700   21.6300 C   0  0  0  0  0  0  0  0  0  0  0  0
   12.3340   14.8860   23.0400 C   0  0  0  0  0  0  0  0  0  0  0  0
   10.9870   14.8250   23.7630 C   0  0  0  0  0  0  0  0  0  0  0  0
    9.8110   14.8550   21.5890 C   0  0  0  0  0  0  0  0  0  0  0  0
    9.9490   14.2280   22.9050 N   0  0  0  0  0  0  0  0  0  0  0  0
    9.1520   13.1950   23.2490 C   0  0  0  0  0  0  0  0  0  0  0  0
    8.1590   12.8910   22.5960 O   0  0  0  0  0  0  0  0  0  0  0  0
    9.5820   12.4060   24.4700 C   0  0  0  0  0  0  0  0  0  0  0  0
    8.6670   11.2820   24.8360 C   0  0  0  0  0  0  0  0  0  0  0  0
    8.6630    9.9320   24.5080 C   0  0  0  0  0  0  0  0  0  0  0  0
    9.6010    9.1380   23.6600 C   0  0  0  0  0  0  0  0  0  0  0  0
    7.5880   11.4660   25.6720 N   0  0  0  0  0  0  0  0  0  0  0  0
    7.0640   12.7340   26.2170 C   0  0  0  0  0  0  0  0  0  0  0  0
    6.2850   12.4840   27.4970 C   0  0  0  0  0  0  0  0  0  0  0  0
    5.2410   11.3980   27.2970 C   0  0  0  0  0  0  0  0  0  0  0  0
    5.8480   10.0860   26.8000 C   0  0  0  0  0  0  0  0  0  0  0  0
    6.9890   10.2390   25.8420 C   0  0  0  0  0  0  0  0  0  0  0  0
    7.6100    9.3070   25.1430 N   0  0  0  0  0  0  0  0  0  0  0  0
 15 14  1  0
 14 22  1  0
 22 21  2  0
 21 16  1  0
 16 13  1  0
 14 13  2  0
 13 12  1  0
 12 10  1  0
 11 10  2  0
 10  9  1  0
  9  7  1  0
  7  6  1  0
  6  5  1  0
  5  4  1  0
  4  2  1  6
  3  2  1  0
  2  1  2  0
  8  4  1  0
  9  8  1  0
 17 16  1  0
 18 17  1  0
 19 18  1  0
 20 19  1  0
 21 20  1  0
M  END
$$$$
