A71EV2A-x3435_A_201_1_A71EV2A-x0911+A+147+1__LIG
     RDKit          3D

 16 17  0  0  0  0  0  0  0  0999 V2000
   10.2830   13.7760   24.9000 O   0  0  0  0  0  0  0  0  0  0  0  0
   10.1160   13.0230   23.9410 C   0  0  0  0  0  0  0  0  0  0  0  0
    9.1700   11.8790   24.0550 C   0  0  0  0  0  0  0  0  0  0  0  0
    8.1400   12.0000   24.9860 C   0  0  0  0  0  0  0  0  0  0  0  0
    7.3630   10.9050   25.3220 C   0  0  0  0  0  0  0  0  0  0  0  0
    7.5790    9.6850   24.7100 C   0  0  0  0  0  0  0  0  0  0  0  0
    8.6040    9.5470   23.7800 C   0  0  0  0  0  0  0  0  0  0  0  0
    9.3970   10.6340   23.4540 C   0  0  0  0  0  0  0  0  0  0  0  0
   10.8030   13.1450   22.7950 N   0  0  0  0  0  0  0  0  0  0  0  0
   11.8880   14.1170   22.6830 C   0  0  0  0  0  0  0  0  0  0  0  0
   12.1980   14.4930   21.2490 C   0  0  0  0  0  0  0  0  0  0  0  0
   11.0900   15.2350   20.5690 C   0  0  0  0  0  0  0  0  0  0  0  0
   10.4420   16.3060   21.1800 N   0  0  0  0  0  0  0  0  0  0  0  0
    9.5940   16.6970   20.2990 C   0  0  0  0  0  0  0  0  0  0  0  0
    9.6000   16.0040   19.1420 O   0  0  0  0  0  0  0  0  0  0  0  0
   10.5730   15.0620   19.3460 C   0  0  0  0  0  0  0  0  0  0  0  0
  2  1  2  0
  9  2  1  0
 10  9  1  0
 11 10  1  0
 12 11  1  0
 12 16  2  0
 16 15  1  0
 15 14  1  0
 14 13  2  0
 13 12  1  0
  3  2  1  0
  3  8  2  0
  8  7  1  0
  7  6  2  0
  6  5  1  0
  5  4  2  0
  4  3  1  0
M  END
$$$$
