XX01ZVNS2B-x0673_B_501_1_XX01ZVNS2B-x4590+B+203+1__LIG
     RDKit          3D

 15 16  0  0  0  0  0  0  0  0999 V2000
   -6.7060   -1.7300    4.3600 O   0  0  0  0  0  0  0  0  0  0  0  0
   -6.8070   -0.6590    3.7660 C   0  0  0  0  0  0  0  0  0  0  0  0
   -5.7470   -0.2210    2.7970 C   0  0  0  0  0  0  0  0  0  0  0  0
   -5.7730    1.2680    2.4180 C   0  0  0  0  0  0  0  0  0  0  0  0
   -7.8220    0.1480    3.9950 N   0  0  0  0  0  0  0  0  0  0  0  0
   -7.7710    1.6040    3.9050 C   0  0  0  0  0  0  0  0  0  0  0  0
   -7.0860    2.0360    2.6220 C   0  0  2  0  0  0  0  0  0  0  0  0
   -8.0110    1.8800    1.4980 N   0  0  0  0  0  0  0  0  0  0  0  0
   -8.4750    2.9250    0.7850 C   0  0  0  0  0  0  0  0  0  0  0  0
   -7.8950    3.3760   -0.2020 O   0  0  0  0  0  0  0  0  0  0  0  0
   -9.7490    3.5170    1.2640 C   0  0  0  0  0  0  0  0  0  0  0  0
  -10.5140    4.3100    0.4180 N   0  0  0  0  0  0  0  0  0  0  0  0
  -11.5610    4.7410    1.0590 C   0  0  0  0  0  0  0  0  0  0  0  0
  -11.7000    4.2330    2.6860 S   0  0  0  0  0  0  0  0  0  0  0  0
  -10.2440    3.3690    2.5190 C   0  0  0  0  0  0  0  0  0  0  0  0
 10  9  2  0
  9  8  1  0
  7  8  1  6
  7  4  1  0
  4  3  1  0
  3  2  1  0
  2  1  2  0
  5  2  1  0
  6  5  1  0
  7  6  1  0
 11  9  1  0
 11 15  2  0
 15 14  1  0
 14 13  1  0
 13 12  2  0
 12 11  1  0
M  END
$$$$
