XX01ZVNS2B-x4153_B_203_1_XX01ZVNS2B-x4590+B+203+1__LIG
     RDKit          3D

 26 30  0  0  0  0  0  0  0  0999 V2000
  -10.2390    3.9940  -17.6950 F   0  0  0  0  0  0  0  0  0  0  0  0
   -9.0160    4.1860  -17.1140 C   0  0  0  0  0  0  0  0  0  0  0  0
   -8.9430    4.2390  -15.7370 C   0  0  0  0  0  0  0  0  0  0  0  0
   -7.9410    4.3870  -17.9420 C   0  0  0  0  0  0  0  0  0  0  0  0
   -6.7220    4.6720  -17.3480 C   0  0  0  0  0  0  0  0  0  0  0  0
   -5.4920    4.9270  -17.8840 N   0  0  0  0  0  0  0  0  0  0  0  0
   -5.1160    5.0190  -19.2990 C   0  0  0  0  0  0  0  0  0  0  0  0
   -4.7270    6.4090  -19.8410 C   0  0  0  0  0  0  0  0  0  0  0  0
   -3.6210    5.7460  -20.5700 N   0  0  0  0  0  0  0  0  0  0  0  0
   -3.6610    4.6080  -19.6160 C   0  0  0  0  0  0  0  0  0  0  0  0
   -4.5590    5.1470  -16.9090 N   0  0  0  0  0  0  0  0  0  0  0  0
   -5.1980    5.0470  -15.7590 C   0  0  0  0  0  0  0  0  0  0  0  0
   -6.5710    4.7490  -15.9510 C   0  0  0  0  0  0  0  0  0  0  0  0
   -7.7070    4.5270  -15.1440 C   0  0  0  0  0  0  0  0  0  0  0  0
   -7.6040    4.6730  -13.6500 C   0  0  0  0  0  0  0  0  0  0  0  0
   -6.7450    5.4060  -13.1610 O   0  0  0  0  0  0  0  0  0  0  0  0
   -8.4770    3.9550  -12.8880 N   0  0  0  0  0  0  0  0  0  0  0  0
   -8.5360    3.9660  -11.4570 C   0  0  0  0  0  0  0  0  0  0  0  0
   -8.7370    2.7790  -10.7540 C   0  0  0  0  0  0  0  0  0  0  0  0
   -8.8110    2.7870   -9.3610 C   0  0  0  0  0  0  0  0  0  0  0  0
   -9.1070    1.6610   -8.4150 C   0  0  0  0  0  0  0  0  0  0  0  0
   -8.7940    2.2540   -7.0870 N   0  0  0  0  0  0  0  0  0  0  0  0
   -8.7480    3.7330   -7.1830 C   0  0  0  0  0  0  0  0  0  0  0  0
   -8.6390    3.9740   -8.6590 C   0  0  0  0  0  0  0  0  0  0  0  0
   -8.4140    5.1580   -9.3580 C   0  0  0  0  0  0  0  0  0  0  0  0
   -8.3800    5.1600  -10.7460 C   0  0  0  0  0  0  0  0  0  0  0  0
 16 15  2  0
 17 15  1  0
 18 17  1  0
 18 26  2  0
 26 25  1  0
 25 24  2  0
 24 20  1  0
 20 19  2  0
 19 18  1  0
 21 20  1  0
 22 21  1  0
 23 22  1  0
 24 23  1  0
 15 14  1  0
 14  3  1  0
  3  2  2  0
  2  1  1  0
  4  2  1  0
  5  4  2  0
  5 13  1  0
 14 13  2  0
 13 12  1  0
 12 11  2  0
 11  6  1  0
  6  5  1  0
  7  6  1  0
  7 10  1  0
 10  9  1  0
  9  8  1  0
  8  7  1  0
M  END
$$$$
