XX01ZVNS2B-x3505_B_203_1_XX01ZVNS2B-x4590+B+203+1__LIG
     RDKit          3D

 28 31  0  0  0  0  0  0  0  0999 V2000
   -3.6870    3.3090  -14.6240 C   0  0  0  0  0  0  0  0  0  0  0  0
   -3.6770    2.7270  -13.2230 C   0  0  0  0  0  0  0  0  0  0  0  0
   -2.3570    2.9910  -12.5200 C   0  0  0  0  0  0  0  0  0  0  0  0
   -4.8530    3.2540  -12.4220 C   0  0  0  0  0  0  0  0  0  0  0  0
   -6.0120    2.4180  -12.6890 N   0  0  0  0  0  0  0  0  0  0  0  0
   -7.1000    2.8150  -13.3520 C   0  0  0  0  0  0  0  0  0  0  0  0
   -7.8680    2.0280  -13.8860 O   0  0  0  0  0  0  0  0  0  0  0  0
   -7.3660    4.3370  -13.3610 C   0  0  2  0  0  0  0  0  0  0  0  0
   -8.4080    4.7500  -12.4450 N   0  0  0  0  0  0  0  0  0  0  0  0
   -8.3430    4.5520  -11.0700 C   0  0  0  0  0  0  0  0  0  0  0  0
   -8.0140    5.6370  -10.2460 C   0  0  0  0  0  0  0  0  0  0  0  0
   -7.9850    5.4800   -8.8690 C   0  0  0  0  0  0  0  0  0  0  0  0
   -8.3760    4.2670   -8.3170 C   0  0  0  0  0  0  0  0  0  0  0  0
   -8.7130    3.1910   -9.1300 C   0  0  0  0  0  0  0  0  0  0  0  0
   -8.7190    3.3210  -10.5130 C   0  0  0  0  0  0  0  0  0  0  0  0
   -9.0370    1.9950   -8.2810 C   0  0  0  0  0  0  0  0  0  0  0  0
   -9.1630    2.5840   -6.9390 N   0  0  0  0  0  0  0  0  0  0  0  0
   -8.4030    3.8400   -6.8760 C   0  0  0  0  0  0  0  0  0  0  0  0
   -7.5730    4.8440  -14.7800 C   0  0  0  0  0  0  0  0  0  0  0  0
   -8.5230    4.2970  -15.6440 C   0  0  0  0  0  0  0  0  0  0  0  0
   -8.5850    4.6940  -16.9870 C   0  0  0  0  0  0  0  0  0  0  0  0
   -9.8280    4.0520  -18.0400 Cl  0  0  0  0  0  0  0  0  0  0  0  0
   -7.6910    5.6050  -17.5210 C   0  0  0  0  0  0  0  0  0  0  0  0
   -6.7580    6.1640  -16.6510 C   0  0  0  0  0  0  0  0  0  0  0  0
   -5.7920    7.0880  -16.8640 N   0  0  0  0  0  0  0  0  0  0  0  0
   -5.0540    7.2940  -15.7370 N   0  0  0  0  0  0  0  0  0  0  0  0
   -5.5660    6.5170  -14.7990 C   0  0  0  0  0  0  0  0  0  0  0  0
   -6.6580    5.7750  -15.3070 C   0  0  0  0  0  0  0  0  0  0  0  0
  1  2  1  0
  2  3  1  0
  2  4  1  0
  4  5  1  0
  5  6  1  0
  6  7  2  0
  6  8  1  0
  8  9  1  1
  9 10  1  0
 10 11  2  0
 11 12  1  0
 12 13  2  0
 13 14  1  0
 14 15  2  0
 14 16  1  0
 16 17  1  0
 17 18  1  0
  8 19  1  0
 19 20  2  0
 20 21  1  0
 21 22  1  0
 21 23  2  0
 23 24  1  0
 24 25  1  0
 25 26  1  0
 26 27  2  0
 27 28  1  0
 10 15  1  0
 19 28  1  0
 13 18  1  0
 24 28  2  0
M  END
$$$$
