A71EV2A-x3054_A_201_1_A71EV2A-x0911+A+147+1__LIG
     RDKit          3D

 19 20  0  0  0  0  0  0  0  0999 V2000
   10.3950   16.8700   19.1650 O   0  0  0  0  0  0  0  0  0  0  0  0
   10.6090   15.6850   19.4330 C   0  0  0  0  0  0  0  0  0  0  0  0
   10.9110   14.7820   18.5150 N   0  0  0  0  0  0  0  0  0  0  0  0
   10.5730   15.1880   20.8670 C   0  0  1  0  0  0  0  0  0  0  0  0
   11.8070   15.6690   21.6440 C   0  0  0  0  0  0  0  0  0  0  0  0
   11.7340   15.3130   23.1320 C   0  0  0  0  0  0  0  0  0  0  0  0
   10.4220   15.7840   23.7350 C   0  0  0  0  0  0  0  0  0  0  0  0
    9.3360   15.7640   21.5610 C   0  0  0  0  0  0  0  0  0  0  0  0
    9.2890   15.2800   22.9430 N   0  0  0  0  0  0  0  0  0  0  0  0
    8.7170   14.0580   23.1680 C   0  0  0  0  0  0  0  0  0  0  0  0
    7.9860   13.5210   22.3440 O   0  0  0  0  0  0  0  0  0  0  0  0
    8.8940   13.5300   24.3980 N   0  0  0  0  0  0  0  0  0  0  0  0
    8.4530   12.2300   24.7130 C   0  0  0  0  0  0  0  0  0  0  0  0
    7.4520   11.9400   25.6280 C   0  0  0  0  0  0  0  0  0  0  0  0
    7.0150   10.6360   25.7660 C   0  0  0  0  0  0  0  0  0  0  0  0
    7.5930    9.6250   25.0100 C   0  0  0  0  0  0  0  0  0  0  0  0
    9.0430   11.2070   23.9750 C   0  0  0  0  0  0  0  0  0  0  0  0
    8.6240    9.8930   24.1180 C   0  0  0  0  0  0  0  0  0  0  0  0
    9.2720    8.7870   23.3200 C   0  0  0  0  0  0  0  0  0  0  0  0
 19 18  1  0
 18 16  2  0
 16 15  1  0
 15 14  2  0
 14 13  1  0
 13 12  1  0
 12 10  1  0
 11 10  2  0
 10  9  1  0
  9  7  1  0
  7  6  1  0
  6  5  1  0
  5  4  1  0
  4  2  1  6
  3  2  1  0
  2  1  2  0
  8  4  1  0
  9  8  1  0
 17 13  2  0
 18 17  1  0
M  END
$$$$
