XX01ZVNS2B-x3507_B_203_1_XX01ZVNS2B-x4590+B+203+1__LIG
     RDKit          3D

 23 26  0  0  0  0  0  0  0  0999 V2000
   -9.6970    7.2040  -13.4460 N   0  0  0  0  0  0  0  0  0  0  0  0
   -8.9970    6.2960  -13.4900 C   0  0  0  0  0  0  0  0  0  0  0  0
   -8.0870    5.1150  -13.4920 C   0  0  2  0  0  0  0  0  0  0  0  0
   -7.3860    5.0350  -12.2170 N   0  0  0  0  0  0  0  0  0  0  0  0
   -7.8670    4.2430  -11.1870 C   0  0  0  0  0  0  0  0  0  0  0  0
   -8.3710    2.9770  -11.4960 C   0  0  0  0  0  0  0  0  0  0  0  0
   -8.8820    2.1700  -10.4980 C   0  0  0  0  0  0  0  0  0  0  0  0
   -8.9060    2.6460   -9.1970 C   0  0  0  0  0  0  0  0  0  0  0  0
   -8.4860    3.9350   -8.9010 C   0  0  0  0  0  0  0  0  0  0  0  0
   -7.9580    4.7560   -9.8910 C   0  0  0  0  0  0  0  0  0  0  0  0
   -8.6420    4.1750   -7.4260 C   0  0  0  0  0  0  0  0  0  0  0  0
   -8.7490    2.7940   -6.9240 N   0  0  0  0  0  0  0  0  0  0  0  0
   -9.4220    1.9890   -7.9520 C   0  0  0  0  0  0  0  0  0  0  0  0
   -7.1690    5.1120  -14.7030 C   0  0  0  0  0  0  0  0  0  0  0  0
   -5.8320    5.4640  -14.5990 C   0  0  0  0  0  0  0  0  0  0  0  0
   -4.9970    5.4820  -15.6550 N   0  0  0  0  0  0  0  0  0  0  0  0
   -5.4780    5.2010  -16.8550 C   0  0  0  0  0  0  0  0  0  0  0  0
   -6.8190    4.8130  -17.1070 C   0  0  0  0  0  0  0  0  0  0  0  0
   -7.3120    4.4580  -18.3810 C   0  0  0  0  0  0  0  0  0  0  0  0
   -8.6230    4.1120  -18.5350 C   0  0  0  0  0  0  0  0  0  0  0  0
   -9.4990    4.0930  -17.4380 C   0  0  0  0  0  0  0  0  0  0  0  0
   -9.0440    4.3920  -16.1870 C   0  0  0  0  0  0  0  0  0  0  0  0
   -7.6960    4.7770  -15.9860 C   0  0  0  0  0  0  0  0  0  0  0  0
  1  2  3  0
  3  2  1  1
  3  4  1  0
  4  5  1  0
  5  6  2  0
  6  7  1  0
  7  8  2  0
  8  9  1  0
  9 10  2  0
  9 11  1  0
 11 12  1  0
 12 13  1  0
  3 14  1  0
 14 15  2  0
 15 16  1  0
 16 17  2  0
 17 18  1  0
 18 19  2  0
 19 20  1  0
 20 21  2  0
 21 22  1  0
 22 23  2  0
  5 10  1  0
 14 23  1  0
  8 13  1  0
 18 23  1  0
M  END
$$$$
