XX01ZVNS2B-x4861_B_203_7_XX01ZVNS2B-x4590+B+203+1__LIG
     RDKit          3D

 29 33  0  0  0  0  0  0  0  0999 V2000
  -10.4740    3.8840  -18.2980 Cl  0  0  0  0  0  0  0  0  0  0  0  0
   -8.9330    4.2490  -17.5800 C   0  0  0  0  0  0  0  0  0  0  0  0
   -7.8600    4.4990  -18.4100 C   0  0  0  0  0  0  0  0  0  0  0  0
   -6.6870    4.9320  -17.8150 C   0  0  0  0  0  0  0  0  0  0  0  0
   -6.5550    5.1040  -16.4280 C   0  0  0  0  0  0  0  0  0  0  0  0
   -5.2100    5.5170  -16.2460 C   0  0  0  0  0  0  0  0  0  0  0  0
   -4.5690    5.5910  -17.3940 N   0  0  0  0  0  0  0  0  0  0  0  0
   -5.4730    5.2370  -18.3590 N   0  0  0  0  0  0  0  0  0  0  0  0
   -5.0800    5.2300  -19.7700 C   0  0  0  0  0  0  0  0  0  0  0  0
   -4.9330    6.6080  -20.4480 C   0  0  0  0  0  0  0  0  0  0  0  0
   -3.5870    5.0000  -20.0910 C   0  0  0  0  0  0  0  0  0  0  0  0
   -3.6740    6.1200  -21.0570 N   0  0  0  0  0  0  0  0  0  0  0  0
   -8.8490    4.3720  -16.2020 C   0  0  0  0  0  0  0  0  0  0  0  0
   -7.6590    4.8080  -15.6140 C   0  0  0  0  0  0  0  0  0  0  0  0
   -7.5560    4.9320  -14.1230 C   0  0  0  0  0  0  0  0  0  0  0  0
   -6.6240    5.5400  -13.6030 O   0  0  0  0  0  0  0  0  0  0  0  0
   -8.5010    4.2860  -13.4050 N   0  0  0  0  0  0  0  0  0  0  0  0
   -8.5060    4.1850  -11.9950 C   0  0  0  0  0  0  0  0  0  0  0  0
   -8.5710    5.3270  -11.2090 C   0  0  0  0  0  0  0  0  0  0  0  0
   -8.6360    6.5280  -11.8330 F   0  0  0  0  0  0  0  0  0  0  0  0
   -8.6200    5.2940   -9.8400 C   0  0  0  0  0  0  0  0  0  0  0  0
   -8.6570    4.0660   -9.1950 C   0  0  0  0  0  0  0  0  0  0  0  0
   -8.5400    2.9080   -9.9550 C   0  0  0  0  0  0  0  0  0  0  0  0
   -8.4670    2.9570  -11.3370 C   0  0  0  0  0  0  0  0  0  0  0  0
   -9.0300    4.0000   -7.7270 C   0  0  2  0  0  0  0  0  0  0  0  0
   -7.8420    4.1060   -6.7570 C   0  0  0  0  0  0  0  0  0  0  0  0
   -7.8420    2.9250   -5.9470 O   0  0  0  0  0  0  0  0  0  0  0  0
   -8.6200    1.9490   -6.6090 C   0  0  0  0  0  0  0  0  0  0  0  0
   -9.7300    2.7030   -7.2680 C   0  0  0  0  0  0  0  0  0  0  0  0
 12 10  1  0
 10  9  1  0
  9  8  1  0
  8  7  1  0
  7  6  2  0
  6  5  1  0
  5 14  2  0
 15 14  1  0
 16 15  2  0
 17 15  1  0
 18 17  1  0
 18 24  2  0
 24 23  1  0
 23 22  2  0
 25 22  1  6
 25 29  1  0
 29 28  1  0
 28 27  1  0
 27 26  1  0
 26 25  1  0
 22 21  1  0
 21 19  2  0
 19 18  1  0
 20 19  1  0
 14 13  1  0
 13  2  2  0
  2  1  1  0
  3  2  1  0
  4  3  2  0
  5  4  1  0
  8  4  1  0
 11  9  1  0
 12 11  1  0
M  END
$$$$
