A71EV2A-x2513_D_301_1_A71EV2A-x0911+A+147+1__LIG
     RDKit          3D

 14 15  0  0  0  0  0  0  0  0999 V2000
   13.5330    9.2550   25.4940 O   0  0  0  0  0  0  0  0  0  0  0  0
   12.6460   10.0500   25.1160 C   0  0  0  0  0  0  0  0  0  0  0  0
   11.2590    9.9900   25.2570 N   0  0  0  0  0  0  0  0  0  0  0  0
   10.6150   11.0210   24.5880 C   0  0  0  0  0  0  0  0  0  0  0  0
    9.2650   11.3600   24.5440 C   0  0  0  0  0  0  0  0  0  0  0  0
    8.0950   10.3630   25.3480 Cl  0  0  0  0  0  0  0  0  0  0  0  0
    8.8470   12.5070   23.8910 C   0  0  0  0  0  0  0  0  0  0  0  0
    9.7800   13.3220   23.2690 C   0  0  0  0  0  0  0  0  0  0  0  0
   12.8640   11.2820   24.2790 C   0  0  0  0  0  0  0  0  0  0  0  0
   13.8730   11.8010   24.0410 O   0  0  0  0  0  0  0  0  0  0  0  0
   11.5780   11.8260   23.9600 C   0  0  0  0  0  0  0  0  0  0  0  0
   11.1340   12.9790   23.2760 C   0  0  0  0  0  0  0  0  0  0  0  0
   12.1300   13.6790   22.6370 O   0  0  0  0  0  0  0  0  0  0  0  0
   11.7490   14.6470   21.6540 C   0  0  0  0  0  0  0  0  0  0  0  0
 14 13  1  0
 13 12  1  0
 12  8  2  0
  8  7  1  0
  7  5  2  0
  6  5  1  0
  5  4  1  0
  4 11  2  0
 12 11  1  0
 11  9  1  0
 10  9  2  0
  9  2  1  0
  2  1  2  0
  3  2  1  0
  4  3  1  0
M  END
$$$$
