A71EV2A-x4986_C_201_1_A71EV2A-x0911+A+147+1__LIG
     RDKit          3D

 26 28  0  0  0  0  0  0  0  0999 V2000
   10.3620   16.6460   19.2270 O   0  0  0  0  0  0  0  0  0  0  0  0
   10.7320   15.4850   19.4510 C   0  0  0  0  0  0  0  0  0  0  0  0
   11.0440   14.6180   18.4910 N   0  0  0  0  0  0  0  0  0  0  0  0
   10.8040   14.9480   20.8680 C   0  0  1  0  0  0  0  0  0  0  0  0
   11.9720   15.5810   21.6430 C   0  0  0  0  0  0  0  0  0  0  0  0
   12.0300   15.0490   23.0880 C   0  0  0  0  0  0  0  0  0  0  0  0
   10.6970   15.2620   23.8030 C   0  0  0  0  0  0  0  0  0  0  0  0
    9.5100   15.2420   21.6330 C   0  0  0  0  0  0  0  0  0  0  0  0
    9.5990   14.7080   22.9960 N   0  0  0  0  0  0  0  0  0  0  0  0
    8.7410   13.7040   23.3680 C   0  0  0  0  0  0  0  0  0  0  0  0
    7.9090   13.2390   22.5960 O   0  0  0  0  0  0  0  0  0  0  0  0
    8.8200   13.2890   24.6620 N   0  0  0  0  0  0  0  0  0  0  0  0
    8.0540   12.1960   25.1670 C   0  0  0  0  0  0  0  0  0  0  0  0
    8.3510   10.8980   24.7230 C   0  0  0  0  0  0  0  0  0  0  0  0
    9.6680   10.6780   23.5700 S   0  0  0  0  0  0  0  0  0  0  0  0
    9.7140    8.8950   23.3240 C   0  0  0  0  0  0  0  0  0  0  0  0
    7.0480   12.3790   26.1180 C   0  0  0  0  0  0  0  0  0  0  0  0
    6.3510   11.2850   26.6350 C   0  0  0  0  0  0  0  0  0  0  0  0
    6.6510   10.0080   26.1820 C   0  0  0  0  0  0  0  0  0  0  0  0
    7.6430    9.8110   25.2330 C   0  0  0  0  0  0  0  0  0  0  0  0
    5.3720   11.4690   27.6720 N   0  0  0  0  0  0  0  0  0  0  0  0
    4.4170   12.4470   27.7190 C   0  0  0  0  0  0  0  0  0  0  0  0
    4.1380   13.1960   26.8000 O   0  0  0  0  0  0  0  0  0  0  0  0
    3.7660   12.4010   29.0850 C   0  0  0  0  0  0  0  0  0  0  0  0
    4.4690   11.2660   29.8280 C   0  0  0  0  0  0  0  0  0  0  0  0
    5.2630   10.5050   28.7760 C   0  0  0  0  0  0  0  0  0  0  0  0
 16 15  1  0
 15 14  1  0
 14 20  2  0
 20 19  1  0
 19 18  2  0
 21 18  1  0
 21 26  1  0
 26 25  1  0
 25 24  1  0
 24 22  1  0
 22 21  1  0
 23 22  2  0
 18 17  1  0
 17 13  2  0
 14 13  1  0
 13 12  1  0
 12 10  1  0
 11 10  2  0
 10  9  1  0
  9  7  1  0
  7  6  1  0
  6  5  1  0
  5  4  1  0
  4  2  1  6
  3  2  1  0
  2  1  2  0
  8  4  1  0
  9  8  1  0
M  END
$$$$
