XX01ZVNS2B-x0806_B_401_1_XX01ZVNS2B-x4590+B+203+1__LIG
     RDKit          3D

 14 15  0  0  0  0  0  0  0  0999 V2000
  -16.4620  -12.6690  -12.2880 N   0  0  0  0  0  0  0  0  0  0  0  0
  -15.9120  -12.4840  -10.9420 C   0  0  1  0  0  0  0  0  0  0  0  0
  -14.9390  -13.6120  -10.6170 C   0  0  0  0  0  0  0  0  0  0  0  0
  -15.2340  -11.1440  -10.8980 C   0  0  0  0  0  0  0  0  0  0  0  0
  -15.4210  -10.1850  -11.8540 N   0  0  0  0  0  0  0  0  0  0  0  0
  -14.7920   -9.0920  -11.4930 N   0  0  0  0  0  0  0  0  0  0  0  0
  -14.1850   -9.3530  -10.3100 N   0  0  0  0  0  0  0  0  0  0  0  0
  -14.4350  -10.6240   -9.9220 C   0  0  0  0  0  0  0  0  0  0  0  0
  -13.3990   -8.3520   -9.6740 C   0  0  0  0  0  0  0  0  0  0  0  0
  -12.5210   -7.5880  -10.4240 C   0  0  0  0  0  0  0  0  0  0  0  0
  -11.7010   -6.6780   -9.7870 C   0  0  0  0  0  0  0  0  0  0  0  0
  -11.7780   -6.5020   -8.4170 C   0  0  0  0  0  0  0  0  0  0  0  0
  -12.6660   -7.2490   -7.6780 C   0  0  0  0  0  0  0  0  0  0  0  0
  -13.4760   -8.1830   -8.2970 C   0  0  0  0  0  0  0  0  0  0  0  0
  2  3  1  6
  2  1  1  0
  4  2  1  0
  4  8  2  0
  8  7  1  0
  7  6  1  0
  6  5  2  0
  5  4  1  0
  9  7  1  0
  9 14  2  0
 14 13  1  0
 13 12  2  0
 12 11  1  0
 11 10  2  0
 10  9  1  0
M  END
$$$$
