XX01ZVNS2B-x1596_B_301_1_XX01ZVNS2B-x4590+B+203+1__LIG
     RDKit          3D

 26 29  0  0  0  0  0  0  0  0999 V2000
  -10.1880    4.4400  -18.4650 C   0  0  0  0  0  0  0  0  0  0  0  0
   -9.7470    4.1260  -17.1360 O   0  0  0  0  0  0  0  0  0  0  0  0
   -8.5160    4.5230  -16.7640 C   0  0  0  0  0  0  0  0  0  0  0  0
   -8.2270    4.6130  -15.4170 C   0  0  0  0  0  0  0  0  0  0  0  0
   -6.9610    5.0020  -15.0420 C   0  0  0  0  0  0  0  0  0  0  0  0
   -6.5380    5.1360  -13.6060 C   0  0  0  0  0  0  0  0  0  0  0  0
   -5.3400    5.9290  -13.5390 O   0  0  0  0  0  0  0  0  0  0  0  0
   -4.1230    5.3300  -13.4190 C   0  0  0  0  0  0  0  0  0  0  0  0
   -3.0310    6.1540  -13.4170 C   0  0  0  0  0  0  0  0  0  0  0  0
   -1.7420    5.5990  -13.2850 C   0  0  0  0  0  0  0  0  0  0  0  0
   -0.5210    6.4640  -13.2770 C   0  0  0  0  0  0  0  0  0  0  0  0
   -1.4840    4.2550  -13.1650 N   0  0  0  0  0  0  0  0  0  0  0  0
   -2.6000    3.4900  -13.1670 C   0  0  0  0  0  0  0  0  0  0  0  0
   -2.6450    2.1660  -13.0620 N   0  0  0  0  0  0  0  0  0  0  0  0
   -3.9560    1.9030  -13.1250 C   0  0  0  0  0  0  0  0  0  0  0  0
   -4.7550    2.9690  -13.2620 N   0  0  0  0  0  0  0  0  0  0  0  0
   -3.8640    3.9790  -13.2850 N   0  0  0  0  0  0  0  0  0  0  0  0
   -6.0400    5.3090  -15.9700 N   0  0  0  0  0  0  0  0  0  0  0  0
   -6.3900    5.2190  -17.2730 C   0  0  0  0  0  0  0  0  0  0  0  0
   -5.4560    5.5040  -18.2210 N   0  0  0  0  0  0  0  0  0  0  0  0
   -5.7220    5.3200  -19.6440 C   0  0  0  0  0  0  0  0  0  0  0  0
   -4.4350    5.4620  -20.4290 C   0  0  0  0  0  0  0  0  0  0  0  0
   -3.9130    6.8220  -20.3300 N   0  0  0  0  0  0  0  0  0  0  0  0
   -4.0620    7.3630  -18.9810 C   0  0  0  0  0  0  0  0  0  0  0  0
   -4.2400    6.2690  -17.9450 C   0  0  0  0  0  0  0  0  0  0  0  0
   -7.6080    4.8150  -17.6950 N   0  0  0  0  0  0  0  0  0  0  0  0
  1  2  1  0
  2  3  1  0
  3  4  2  0
  4  5  1  0
  5  6  1  0
  6  7  1  0
  7  8  1  0
  8  9  2  0
  9 10  1  0
 10 11  1  0
 10 12  2  0
 12 13  1  0
 13 14  2  0
 14 15  1  0
 15 16  2  0
 16 17  1  0
  5 18  2  0
 18 19  1  0
 19 20  1  0
 20 21  1  0
 21 22  1  0
 22 23  1  0
 23 24  1  0
 24 25  1  0
 19 26  2  0
  3 26  1  0
  8 17  1  0
 20 25  1  0
 13 17  1  0
M  END
$$$$
