A71EV2A-x4703_A_201_1_A71EV2A-x0911+A+147+1__LIG
     RDKit          3D

 20 21  0  0  0  0  0  0  0  0999 V2000
   10.3480   16.6010   19.2980 O   0  0  0  0  0  0  0  0  0  0  0  0
   10.7430   15.4610   19.5700 C   0  0  0  0  0  0  0  0  0  0  0  0
   11.2440   14.6370   18.6680 N   0  0  0  0  0  0  0  0  0  0  0  0
   10.6600   14.9160   20.9870 C   0  0  1  0  0  0  0  0  0  0  0  0
   11.8110   15.4400   21.8620 C   0  0  0  0  0  0  0  0  0  0  0  0
   11.7120   14.9460   23.3170 C   0  0  0  0  0  0  0  0  0  0  0  0
   10.3190   15.1750   23.8880 C   0  0  0  0  0  0  0  0  0  0  0  0
    9.3340   15.2820   21.6560 C   0  0  0  0  0  0  0  0  0  0  0  0
    9.2830   14.6560   22.9800 N   0  0  0  0  0  0  0  0  0  0  0  0
    8.3600   13.6800   23.2320 C   0  0  0  0  0  0  0  0  0  0  0  0
    7.6050   13.2670   22.3630 O   0  0  0  0  0  0  0  0  0  0  0  0
    8.2820   13.2050   24.5400 N   0  0  0  0  0  0  0  0  0  0  0  0
    7.7110   12.0170   24.9600 C   0  0  0  0  0  0  0  0  0  0  0  0
    6.7650   11.9610   25.9010 N   0  0  0  0  0  0  0  0  0  0  0  0
    6.4970   10.6390   26.0330 N   0  0  0  0  0  0  0  0  0  0  0  0
    5.4850   10.2060   26.9840 C   0  0  0  0  0  0  0  0  0  0  0  0
    7.2360    9.8690   25.2200 C   0  0  0  0  0  0  0  0  0  0  0  0
    8.0530   10.6910   24.4910 C   0  0  0  0  0  0  0  0  0  0  0  0
    9.2360   10.2540   23.2760 S   0  0  0  0  0  0  0  0  0  0  0  0
   10.6460   11.2170   23.7110 C   0  0  0  0  0  0  0  0  0  0  0  0
 20 19  1  0
 19 18  1  0
 18 17  2  0
 17 15  1  0
 16 15  1  0
 15 14  1  0
 14 13  2  0
 18 13  1  0
 13 12  1  0
 12 10  1  0
 11 10  2  0
 10  9  1  0
  9  7  1  0
  7  6  1  0
  6  5  1  0
  5  4  1  0
  4  2  1  6
  3  2  1  0
  2  1  2  0
  8  4  1  0
  9  8  1  0
M  END
$$$$
