P810


 23 26  0  0  0  0  0  0  0  0999 V2000
    7.9207   13.7478   22.7102 O   0  0  0  0  0  0  0  0  0  0  0  0
    8.0579   14.2568   24.0592 S   0  0  0  0  0  0  0  0  0  0  0  0
    6.8964   14.8247   24.7208 O   0  0  0  0  0  0  0  0  0  0  0  0
    8.6503   12.9667   25.0137 N   0  0  0  0  0  0  0  0  0  0  0  0
    9.4931   11.9691   24.2535 C   0  0  0  0  0  0  0  0  0  0  0  0
    8.7416   10.6326   24.2387 C   0  0  0  0  0  0  0  0  0  0  0  0
    7.6507   10.8783   25.2185 C   0  0  0  0  0  0  0  0  0  0  0  0
    6.7066    9.9800   25.6684 C   0  0  0  0  0  0  0  0  0  0  0  0
    5.7284   10.4197   26.5629 C   0  0  0  0  0  0  0  0  0  0  0  0
    5.7133   11.7457   27.0059 C   0  0  0  0  0  0  0  0  0  0  0  0
    6.6709   12.6455   26.5453 C   0  0  0  0  0  0  0  0  0  0  0  0
    7.6138   12.1987   25.6345 C   0  0  0  0  0  0  0  0  0  0  0  0
    9.3176   15.5344   24.2117 C   0  0  0  0  0  0  0  0  0  0  0  0
   10.5478   15.2666   25.0910 C   0  0  0  0  0  0  0  0  0  0  0  0
   11.7841   14.7535   24.3517 C   0  0  0  0  0  0  0  0  0  0  0  0
   12.0238   15.5093   23.0558 C   0  0  0  0  0  0  0  0  0  0  0  0
   10.8077   15.4311   22.2868 N   0  0  0  0  0  0  0  0  0  0  0  0
    9.6430   16.1054   22.8522 C   0  0  0  0  0  0  0  0  0  0  0  0
   10.8921   15.5507   20.9545 C   0  0  0  0  0  0  0  0  0  0  0  0
   10.0139   16.1252   20.1837 N   0  0  0  0  0  0  0  0  0  0  0  0
   10.5397   16.0039   18.9487 C   0  0  0  0  0  0  0  0  0  0  0  0
   11.7463   15.3752   19.0171 C   0  0  0  0  0  0  0  0  0  0  0  0
   11.9934   15.0815   20.3134 O   0  0  0  0  0  0  0  0  0  0  0  0
  1  2  2  0  0  0
  2  3  2  0  0  0
 13  2  1  0  0  0
 13 14  1  0  0  0
 14 15  1  0  0  0
 15 16  1  0  0  0
 16 17  1  0  0  0
 17 19  1  0  0  0
 19 20  2  0  0  0
 20 21  1  0  0  0
 21 22  2  0  0  0
 22 23  1  0  0  0
 17 18  1  0  0  0
  2  4  1  0  0  0
  4  5  1  0  0  0
  5  6  1  0  0  0
  6  7  1  0  0  0
  7  8  2  0  0  0
  8  9  1  0  0  0
  9 10  2  0  0  0
 10 11  1  0  0  0
 11 12  2  0  0  0
 18 13  1  0  0  0
 12  4  1  0  0  0
 23 19  1  0  0  0
 12  7  1  0  0  0
M  END
> <minimizedAffinity>
-7.52607

> <minimizedRMSD>
0.55347

$$$$
P944


 16 17  0  0  0  0  0  0  0  0999 V2000
    6.7554   10.9804   26.0869 O   0  0  0  0  0  0  0  0  0  0  0  0
    7.5471   11.1949   25.1755 C   0  0  0  0  0  0  0  0  0  0  0  0
    8.2735   10.0688   24.5084 C   0  0  0  0  0  0  0  0  0  0  0  0
    9.4496   10.4053   23.6324 C   0  0  0  0  0  0  0  0  0  0  0  0
    9.7438   11.8833   23.4321 C   0  0  0  0  0  0  0  0  0  0  0  0
    8.4946   12.7534   23.5160 C   0  0  0  0  0  0  0  0  0  0  0  0
    7.7853   12.4631   24.7477 N   0  0  0  0  0  0  0  0  0  0  0  0
    7.4634   13.2149   25.2959 H   0  0  0  0  0  0  0  0  0  0  0  0
    8.8485   14.2480   23.4086 C   0  0  0  0  0  0  0  0  0  0  0  0
    9.6074   14.4863   22.2314 O   0  0  0  0  0  0  0  0  0  0  0  0
   10.7982   15.0986   22.3771 C   0  0  0  0  0  0  0  0  0  0  0  0
   11.4386   15.8579   21.3821 C   0  0  0  0  0  0  0  0  0  0  0  0
   12.5956   16.3598   21.8115 N   0  0  0  0  0  0  0  0  0  0  0  0
   12.6637   15.9694   23.0889 N   0  0  0  0  0  0  0  0  0  0  0  0
   11.6178   15.1768   23.4786 C   0  0  0  0  0  0  0  0  0  0  0  0
   13.3973   16.2278   23.6924 H   0  0  0  0  0  0  0  0  0  0  0  0
  1  2  2  0  0  0
  2  3  1  0  0  0
  3  4  1  0  0  0
  4  5  1  0  0  0
  5  6  1  0  0  0
  6  9  1  0  0  0
  9 10  1  0  0  0
 10 11  1  0  0  0
 11 12  1  0  0  0
 12 13  2  0  0  0
 13 14  1  0  0  0
 14 15  1  0  0  0
  6  7  1  0  0  0
  7  2  1  0  0  0
 15 11  2  0  0  0
 14 16  1  0  0  0
  7  8  1  0  0  0
M  END
> <minimizedAffinity>
-5.61009

> <minimizedRMSD>
0.65235

$$$$
P1410


 21 23  0  0  0  0  0  0  0  0999 V2000
   -1.6948    1.7193    3.3853 O   0  0  0  0  0  0  0  0  0  0  0  0
   -1.9658    2.7515    3.9707 C   0  0  0  0  0  0  0  0  0  0  0  0
   -1.0507    3.4974    4.6964 N   0  0  0  0  0  0  0  0  0  0  0  0
   -1.7130    4.5462    5.4306 C   0  0  0  0  0  0  0  0  0  0  0  0
   -3.0426    4.6901    4.6835 C   0  0  0  0  0  0  0  0  0  0  0  0
   -3.1973    3.4006    4.0392 N   0  0  0  0  0  0  0  0  0  0  0  0
   -0.0801    3.3332    4.7089 H   0  0  0  0  0  0  0  0  0  0  0  0
   -0.9313    5.8258    5.5275 C   0  0  0  0  0  0  0  0  0  0  0  0
   -0.5189    6.5450    4.3964 C   0  0  0  0  0  0  0  0  0  0  0  0
    0.2086    7.7283    4.5378 C   0  0  0  0  0  0  0  0  0  0  0  0
    0.5236    8.2139    5.8061 C   0  0  0  0  0  0  0  0  0  0  0  0
    0.1000    7.5238    6.9389 C   0  0  0  0  0  0  0  0  0  0  0  0
   -0.6228    6.3437    6.7903 C   0  0  0  0  0  0  0  0  0  0  0  0
   -1.0008    5.6710    7.8898 F   0  0  0  0  0  0  0  0  0  0  0  0
   -4.3518    3.0923    3.1957 C   0  0  0  0  0  0  0  0  0  0  0  0
   -4.0757    3.3750    1.7060 C   0  0  0  0  0  0  0  0  0  0  0  0
   -4.1028    2.0980    0.8722 C   0  0  0  0  0  0  0  0  0  0  0  0
   -5.4014    1.3100    1.0779 C   0  0  0  0  0  0  0  0  0  0  0  0
   -5.9246    1.3239    2.4485 N   0  0  0  0  0  0  0  0  0  0  0  0
   -4.8849    1.6577    3.4254 C   0  0  0  0  0  0  0  0  0  0  0  0
   -6.2996    0.4011    2.6679 H   0  0  0  0  0  0  0  0  0  0  0  0
  1  2  2  0  0  0
  2  3  1  0  0  0
  3  4  1  0  0  0
  4  8  1  0  0  0
  8  9  2  0  0  0
  9 10  1  0  0  0
 10 11  2  0  0  0
 11 12  1  0  0  0
 12 13  2  0  0  0
 13 14  1  0  0  0
  4  5  1  0  0  0
  5  6  1  0  0  0
 15  6  1  0  0  0
 15 16  1  0  0  0
 16 17  1  0  0  0
 17 18  1  0  0  0
 18 19  1  0  0  0
 19 20  1  0  0  0
  6  2  1  0  0  0
 20 15  1  0  0  0
 13  8  1  0  0  0
  3  7  1  0  0  0
 19 21  1  0  0  0
M  END
> <minimizedAffinity>
-2.85682

> <minimizedRMSD>
2.04475

$$$$
P1411


 21 23  0  0  0  0  0  0  0  0999 V2000
   -4.4902    4.3321    2.9991 O   0  0  0  0  0  0  0  0  0  0  0  0
   -4.0267    4.6820    4.0688 C   0  0  0  0  0  0  0  0  0  0  0  0
   -2.7436    5.1821    4.2212 N   0  0  0  0  0  0  0  0  0  0  0  0
   -2.4180    5.3462    5.6119 C   0  0  0  0  0  0  0  0  0  0  0  0
   -3.8044    5.3965    6.2621 C   0  0  0  0  0  0  0  0  0  0  0  0
   -4.6457    4.6663    5.3264 N   0  0  0  0  0  0  0  0  0  0  0  0
   -2.1361    5.3964    3.4768 H   0  0  0  0  0  0  0  0  0  0  0  0
   -1.5665    6.5427    5.9351 C   0  0  0  0  0  0  0  0  0  0  0  0
   -1.3801    7.6148    5.0519 C   0  0  0  0  0  0  0  0  0  0  0  0
   -0.5872    8.7044    5.4207 C   0  0  0  0  0  0  0  0  0  0  0  0
   -0.0043    8.7568    6.6859 C   0  0  0  0  0  0  0  0  0  0  0  0
   -0.2045    7.7126    7.5834 C   0  0  0  0  0  0  0  0  0  0  0  0
   -0.9533    6.6073    7.1919 C   0  0  0  0  0  0  0  0  0  0  0  0
   -1.0402    5.5543    8.0217 F   0  0  0  0  0  0  0  0  0  0  0  0
   -6.1080    4.5633    5.4793 C   0  0  0  0  0  0  0  0  0  0  0  0
   -6.8062    5.9237    5.2846 C   0  0  0  0  0  0  0  0  0  0  0  0
   -8.3037    5.8398    5.5634 C   0  0  0  0  0  0  0  0  0  0  0  0
   -8.5779    5.2490    6.9411 C   0  0  0  0  0  0  0  0  0  0  0  0
   -7.9747    3.9276    7.0609 N   0  0  0  0  0  0  0  0  0  0  0  0
   -6.5191    3.9727    6.8552 C   0  0  0  0  0  0  0  0  0  0  0  0
   -8.3883    3.3109    6.3615 H   0  0  0  0  0  0  0  0  0  0  0  0
  1  2  2  0  0  0
  2  3  1  0  0  0
  3  4  1  0  0  0
  4  8  1  0  0  0
  8  9  2  0  0  0
  9 10  1  0  0  0
 10 11  2  0  0  0
 11 12  1  0  0  0
 12 13  2  0  0  0
 13 14  1  0  0  0
  4  5  1  0  0  0
  5  6  1  0  0  0
 15  6  1  0  0  0
 15 16  1  0  0  0
 16 17  1  0  0  0
 17 18  1  0  0  0
 18 19  1  0  0  0
 19 20  1  0  0  0
  6  2  1  0  0  0
 20 15  1  0  0  0
 13  8  1  0  0  0
  3  7  1  0  0  0
 19 21  1  0  0  0
M  END
> <minimizedAffinity>
-2.40574

> <minimizedRMSD>
1.58155

$$$$
P2537


 23 25  0  0  0  0  0  0  0  0999 V2000
   24.2319   12.7697    1.5308 N   0  0  0  0  0  0  0  0  0  0  0  0
   23.9172   11.8846    1.9284 H   0  0  0  0  0  0  0  0  0  0  0  0
   25.3346   13.4599    2.6212 S   0  0  0  0  0  0  0  0  0  0  0  0
   25.5359   14.8295    2.2057 O   0  0  0  0  0  0  0  0  0  0  0  0
   24.8429   13.1158    3.9320 O   0  0  0  0  0  0  0  0  0  0  0  0
   26.4245   10.3432    1.3379 C   0  0  0  0  0  0  0  0  0  0  0  0
   27.1968   11.4105    1.9931 C   0  0  0  0  0  0  0  0  0  0  0  0
   28.5322   11.2355    2.2713 N   0  0  0  0  0  0  0  0  0  0  0  0
   28.9923   12.3621    2.8708 C   0  0  0  0  0  0  0  0  0  0  0  0
   28.0415   13.2503    3.0219 N   0  0  0  0  0  0  0  0  0  0  0  0
   26.8905   12.6667    2.5041 C   0  0  0  0  0  0  0  0  0  0  0  0
   29.0629   10.4311    2.0700 H   0  0  0  0  0  0  0  0  0  0  0  0
   23.0190   13.5747    1.2035 C   0  0  0  0  0  0  0  0  0  0  0  0
   22.3173   14.1718    2.4154 C   0  0  0  0  0  0  0  0  0  0  0  0
   20.9087   14.4369    2.1729 N   0  0  0  0  0  0  0  0  0  0  0  0
   19.9660   13.6346    2.7297 N   0  0  0  0  0  0  0  0  0  0  0  0
   18.8184   14.2484    2.4360 C   0  0  0  0  0  0  0  0  0  0  0  0
   19.0043   15.4191    1.6719 C   0  0  0  0  0  0  0  0  0  0  0  0
   18.1696   16.4076    1.1242 C   0  0  0  0  0  0  0  0  0  0  0  0
   18.7515   17.4593    0.4072 C   0  0  0  0  0  0  0  0  0  0  0  0
   20.1337   17.5306    0.2387 C   0  0  0  0  0  0  0  0  0  0  0  0
   20.9797   16.5588    0.7801 C   0  0  0  0  0  0  0  0  0  0  0  0
   20.3825   15.5113    1.4938 C   0  0  0  0  0  0  0  0  0  0  0  0
  6  7  1  0  0  0
  7  8  1  0  0  0
  8  9  1  0  0  0
  9 10  2  0  0  0
 10 11  1  0  0  0
 11  3  1  0  0  0
  3  4  2  0  0  0
  3  5  2  0  0  0
  3  1  1  0  0  0
  1 13  1  0  0  0
 13 14  1  0  0  0
 14 15  1  0  0  0
 15 16  1  0  0  0
 16 17  2  0  0  0
 17 18  1  0  0  0
 18 19  2  0  0  0
 19 20  1  0  0  0
 20 21  2  0  0  0
 21 22  1  0  0  0
 22 23  2  0  0  0
 11  7  2  0  0  0
 23 15  1  0  0  0
 23 18  1  0  0  0
  8 12  1  0  0  0
  1  2  1  0  0  0
M  END
> <minimizedAffinity>
-4.29964

> <minimizedRMSD>
0.64800

$$$$
P2540


 21 23  0  0  0  0  0  0  0  0999 V2000
   22.2660   14.4241    0.9399 C   0  0  0  0  0  0  0  0  0  0  0  0
   22.8417   13.3483    1.7404 N   0  0  0  0  0  0  0  0  0  0  0  0
   22.3446   13.3286    2.6309 H   0  0  0  0  0  0  0  0  0  0  0  0
   24.6091   13.3022    3.5133 C   0  0  0  0  0  0  0  0  0  0  0  0
   24.2692   13.4277    2.0357 C   0  0  0  0  0  0  0  0  0  0  0  0
   24.9686   12.3456    1.2492 C   0  0  0  0  0  0  0  0  0  0  0  0
   24.8510   12.0519   -0.0948 C   0  0  0  0  0  0  0  0  0  0  0  0
   25.7852   11.0852   -0.3384 N   0  0  0  0  0  0  0  0  0  0  0  0
   26.4169   10.8160    0.8365 C   0  0  0  0  0  0  0  0  0  0  0  0
   25.9216   11.5275    1.8195 N   0  0  0  0  0  0  0  0  0  0  0  0
   25.9683   10.6600   -1.2072 H   0  0  0  0  0  0  0  0  0  0  0  0
   21.2155   15.2333    1.6907 C   0  0  0  0  0  0  0  0  0  0  0  0
   19.9650   14.5189    1.8902 N   0  0  0  0  0  0  0  0  0  0  0  0
   19.8273   13.6709    2.9401 N   0  0  0  0  0  0  0  0  0  0  0  0
   18.5340   13.3470    2.9167 C   0  0  0  0  0  0  0  0  0  0  0  0
   17.8347   13.9664    1.8601 C   0  0  0  0  0  0  0  0  0  0  0  0
   16.5052   13.9851    1.4064 C   0  0  0  0  0  0  0  0  0  0  0  0
   16.1862   14.7584    0.2841 C   0  0  0  0  0  0  0  0  0  0  0  0
   17.1657   15.4998   -0.3751 C   0  0  0  0  0  0  0  0  0  0  0  0
   18.4923   15.4955    0.0639 C   0  0  0  0  0  0  0  0  0  0  0  0
   18.7967   14.7160    1.1883 C   0  0  0  0  0  0  0  0  0  0  0  0
  5  4  1  0  0  0
  5  2  1  0  0  0
  2  1  1  0  0  0
  1 12  1  0  0  0
 12 13  1  0  0  0
 13 14  1  0  0  0
 14 15  2  0  0  0
 15 16  1  0  0  0
 16 17  2  0  0  0
 17 18  1  0  0  0
 18 19  2  0  0  0
 19 20  1  0  0  0
 20 21  2  0  0  0
  5  6  1  0  0  0
  6  7  2  0  0  0
  7  8  1  0  0  0
  8  9  1  0  0  0
  9 10  2  0  0  0
 21 13  1  0  0  0
 10  6  1  0  0  0
 21 16  1  0  0  0
  2  3  1  0  0  0
  8 11  1  0  0  0
M  END
> <minimizedAffinity>
-4.09158

> <minimizedRMSD>
2.13866

$$$$
P3246


 22 24  0  0  0  0  0  0  0  0999 V2000
    9.3566   10.2852   23.5138 C   0  0  0  0  0  0  0  0  0  0  0  0
    8.5067   11.0407   24.4636 C   0  0  0  0  0  0  0  0  0  0  0  0
    7.3857   10.4434   24.9786 N   0  0  0  0  0  0  0  0  0  0  0  0
    6.7548   11.2809   25.8576 C   0  0  0  0  0  0  0  0  0  0  0  0
    5.6192   11.0659   26.6403 C   0  0  0  0  0  0  0  0  0  0  0  0
    5.1611   12.1228   27.4261 C   0  0  0  0  0  0  0  0  0  0  0  0
    5.8164   13.3489   27.4242 C   0  0  0  0  0  0  0  0  0  0  0  0
    6.9657   13.5387   26.6531 C   0  0  0  0  0  0  0  0  0  0  0  0
    7.4599   12.4780   25.8656 C   0  0  0  0  0  0  0  0  0  0  0  0
    8.6254   12.2982   25.0527 C   0  0  0  0  0  0  0  0  0  0  0  0
    7.0773    9.5373   24.7481 H   0  0  0  0  0  0  0  0  0  0  0  0
    9.7248   13.2593   24.9491 C   0  0  0  0  0  0  0  0  0  0  0  0
    9.7954   14.2973   25.6028 O   0  0  0  0  0  0  0  0  0  0  0  0
   10.7135   12.9150   24.0782 O   0  0  0  0  0  0  0  0  0  0  0  0
   10.5676   13.7468   22.9395 C   0  0  0  0  0  0  0  0  0  0  0  0
   11.9083   14.3071   22.4441 C   0  0  0  0  0  0  0  0  0  0  0  0
   11.5871   14.9234   21.1304 C   0  0  0  0  0  0  0  0  0  0  0  0
   12.0870   14.5497   19.9149 C   0  0  0  0  0  0  0  0  0  0  0  0
   11.3485   14.8350   18.7778 C   0  0  0  0  0  0  0  0  0  0  0  0
   10.1950   15.5868   18.8767 C   0  0  0  0  0  0  0  0  0  0  0  0
    9.7446   16.0452   20.0362 N   0  0  0  0  0  0  0  0  0  0  0  0
   10.4788   15.7226   21.1100 C   0  0  0  0  0  0  0  0  0  0  0  0
  1  2  1  0  0  0
  2  3  1  0  0  0
  3  4  1  0  0  0
  4  5  2  0  0  0
  5  6  1  0  0  0
  6  7  2  0  0  0
  7  8  1  0  0  0
  8  9  2  0  0  0
  9 10  1  0  0  0
 10 12  1  0  0  0
 12 13  2  0  0  0
 12 14  1  0  0  0
 14 15  1  0  0  0
 15 16  1  0  0  0
 16 17  1  0  0  0
 17 18  2  0  0  0
 18 19  1  0  0  0
 19 20  2  0  0  0
 20 21  1  0  0  0
 21 22  2  0  0  0
 10  2  2  0  0  0
 22 17  1  0  0  0
  9  4  1  0  0  0
  3 11  1  0  0  0
M  END
> <minimizedAffinity>
-6.69189

> <minimizedRMSD>
0.92270

$$$$
P4097


 21 23  0  0  0  0  0  0  0  0999 V2000
   10.0004   14.1628   24.2738 N   0  0  0  0  0  0  0  0  0  0  0  0
   10.8516   13.7115   23.2077 C   0  0  0  0  0  0  0  0  0  0  0  0
   11.7374   14.7791   22.5679 C   0  0  0  0  0  0  0  0  0  0  0  0
   10.1398   15.4763   18.7554 C   0  0  0  0  0  0  0  0  0  0  0  0
   11.2367   14.6263   18.9049 C   0  0  0  0  0  0  0  0  0  0  0  0
   11.8666   14.4583   20.1132 C   0  0  0  0  0  0  0  0  0  0  0  0
   11.2700   15.0458   21.1904 C   0  0  0  0  0  0  0  0  0  0  0  0
   10.1666   15.7979   21.0716 N   0  0  0  0  0  0  0  0  0  0  0  0
    9.6154   16.0147   19.8699 C   0  0  0  0  0  0  0  0  0  0  0  0
    9.5869   13.2129   25.2440 C   0  0  0  0  0  0  0  0  0  0  0  0
    9.0672   11.9277   24.7165 C   0  0  0  0  0  0  0  0  0  0  0  0
    9.6536   11.0351   23.8525 C   0  0  0  0  0  0  0  0  0  0  0  0
    9.0070    9.8487   23.9917 O   0  0  0  0  0  0  0  0  0  0  0  0
    7.9918   10.1116   24.8546 C   0  0  0  0  0  0  0  0  0  0  0  0
    7.9953   11.3221   25.3430 N   0  0  0  0  0  0  0  0  0  0  0  0
    8.9411   15.0689   23.9308 C   0  0  0  0  0  0  0  0  0  0  0  0
    7.7220   14.6119   23.2181 C   0  0  0  0  0  0  0  0  0  0  0  0
    7.5659   13.7650   22.1463 C   0  0  0  0  0  0  0  0  0  0  0  0
    6.2621   13.7829   21.7644 O   0  0  0  0  0  0  0  0  0  0  0  0
    5.7003   14.7084   22.5897 C   0  0  0  0  0  0  0  0  0  0  0  0
    6.5150   15.2373   23.4706 N   0  0  0  0  0  0  0  0  0  0  0  0
  4  5  2  0  0  0
  5  6  1  0  0  0
  6  7  2  0  0  0
  7  3  1  0  0  0
  3  2  1  0  0  0
  2  1  1  0  0  0
  1 10  1  0  0  0
 10 11  1  0  0  0
 11 12  2  0  0  0
 12 13  1  0  0  0
 13 14  1  0  0  0
 14 15  2  0  0  0
  1 16  1  0  0  0
 16 17  1  0  0  0
 17 18  2  0  0  0
 18 19  1  0  0  0
 19 20  1  0  0  0
 20 21  2  0  0  0
  7  8  1  0  0  0
  8  9  2  0  0  0
  9  4  1  0  0  0
 15 11  1  0  0  0
 21 17  1  0  0  0
M  END
> <minimizedAffinity>
-3.87902

> <minimizedRMSD>
1.21635

$$$$
P4129


 28 30  0  0  0  0  0  0  0  0999 V2000
    6.8470   15.7383   22.7761 C   0  0  0  0  0  0  0  0  0  0  0  0
    5.1823   14.0082   21.5639 C   0  0  0  0  0  0  0  0  0  0  0  0
    5.8041   13.0569   21.3409 O   0  0  0  0  0  0  0  0  0  0  0  0
    5.5713   15.2958   22.2692 N   0  0  0  0  0  0  0  0  0  0  0  0
    4.8321   15.9322   22.4021 H   0  0  0  0  0  0  0  0  0  0  0  0
    2.4614   13.5180   19.4518 C   0  0  0  0  0  0  0  0  0  0  0  0
    2.0643   14.7020   20.0203 C   0  0  0  0  0  0  0  0  0  0  0  0
    2.9677   15.0866   20.9982 N   0  0  0  0  0  0  0  0  0  0  0  0
    3.8298   14.0758   21.0209 C   0  0  0  0  0  0  0  0  0  0  0  0
    3.5449   13.0860   20.1322 O   0  0  0  0  0  0  0  0  0  0  0  0
    0.7852   13.2164   17.6428 C   0  0  0  0  0  0  0  0  0  0  0  0
    2.0746   12.6818   18.2850 C   0  0  0  0  0  0  0  0  0  0  0  0
    1.8503   11.2361   18.7531 C   0  0  0  0  0  0  0  0  0  0  0  0
    3.2195   12.7323   17.2741 C   0  0  0  0  0  0  0  0  0  0  0  0
    7.8174   15.5761   21.5649 C   0  0  0  0  0  0  0  0  0  0  0  0
    8.3654   16.8104   21.1170 O   0  0  0  0  0  0  0  0  0  0  0  0
    7.6499   17.3906   20.8133 H   0  0  0  0  0  0  0  0  0  0  0  0
    7.3004   15.0362   24.0843 C   0  0  0  0  0  0  0  0  0  0  0  0
    8.5193   14.1659   23.9384 C   0  0  0  0  0  0  0  0  0  0  0  0
    9.6874   14.3846   23.2204 C   0  0  0  0  0  0  0  0  0  0  0  0
   10.2336   13.1648   22.9220 N   0  0  0  0  0  0  0  0  0  0  0  0
    9.5263   12.1940   23.5736 C   0  0  0  0  0  0  0  0  0  0  0  0
    9.6272   10.8190   23.4903 C   0  0  0  0  0  0  0  0  0  0  0  0
    8.8654   10.1117   24.4079 C   0  0  0  0  0  0  0  0  0  0  0  0
    8.0019   10.7120   25.3174 C   0  0  0  0  0  0  0  0  0  0  0  0
    7.8033   12.0764   25.2695 C   0  0  0  0  0  0  0  0  0  0  0  0
    8.5824   12.8261   24.3795 C   0  0  0  0  0  0  0  0  0  0  0  0
   11.0088   13.0122   22.3345 H   0  0  0  0  0  0  0  0  0  0  0  0
 11 12  1  0  0  0
 12 13  1  0  0  0
 12 14  1  0  0  0
 12  6  1  0  0  0
  6  7  2  0  0  0
  7  8  1  0  0  0
  8  9  2  0  0  0
  9  2  1  0  0  0
  2  3  2  0  0  0
  2  4  1  0  0  0
  4  1  1  0  0  0
  1 15  1  0  0  0
 15 16  1  0  0  0
  1 18  1  0  0  0
 18 19  1  0  0  0
 19 20  2  0  0  0
 20 21  1  0  0  0
 21 22  1  0  0  0
 22 23  2  0  0  0
 23 24  1  0  0  0
 24 25  2  0  0  0
 25 26  1  0  0  0
 26 27  2  0  0  0
  9 10  1  0  0  0
 10  6  1  0  0  0
 27 19  1  0  0  0
 27 22  1  0  0  0
  4  5  1  0  0  0
 16 17  1  0  0  0
 21 28  1  0  0  0
M  END
> <minimizedAffinity>
-5.82675

> <minimizedRMSD>
0.52069

$$$$
P4539


 25 28  0  0  0  0  0  0  0  0999 V2000
   19.8144   12.5655    3.6017 O   0  0  0  0  0  0  0  0  0  0  0  0
   19.8383   13.4287    2.8186 C   0  0  0  0  0  0  0  0  0  0  0  0
   21.0325   14.1537    2.1675 N   0  0  0  0  0  0  0  0  0  0  0  0
   20.7884   14.9096    1.5859 H   0  0  0  0  0  0  0  0  0  0  0  0
   18.5608   14.0470    2.3818 C   0  0  0  0  0  0  0  0  0  0  0  0
   18.1223   14.3006    1.0989 C   0  0  0  0  0  0  0  0  0  0  0  0
   16.9082   14.9079    1.1591 O   0  0  0  0  0  0  0  0  0  0  0  0
   16.6303   14.9907    2.4973 C   0  0  0  0  0  0  0  0  0  0  0  0
   17.5821   14.4985    3.2665 N   0  0  0  0  0  0  0  0  0  0  0  0
   15.3605   15.6103    2.8499 C   0  0  0  0  0  0  0  0  0  0  0  0
   14.6892   16.4910    1.9927 C   0  0  0  0  0  0  0  0  0  0  0  0
   13.4793   17.0652    2.3810 C   0  0  0  0  0  0  0  0  0  0  0  0
   12.9716   16.7471    3.6282 C   0  0  0  0  0  0  0  0  0  0  0  0
   13.5825   15.9094    4.4946 N   0  0  0  0  0  0  0  0  0  0  0  0
   14.7548   15.3522    4.0757 C   0  0  0  0  0  0  0  0  0  0  0  0
   22.4408   13.9065    2.2710 C   0  0  0  0  0  0  0  0  0  0  0  0
   22.8786   13.0786    1.1306 C   0  0  0  0  0  0  0  0  0  0  0  0
   22.3296   13.0006   -0.0672 N   0  0  0  0  0  0  0  0  0  0  0  0
   23.0682   12.1196   -0.8203 N   0  0  0  0  0  0  0  0  0  0  0  0
   24.0626   11.6920   -0.0755 C   0  0  0  0  0  0  0  0  0  0  0  0
   23.9886   12.2837    1.1544 N   0  0  0  0  0  0  0  0  0  0  0  0
   24.9940   12.1651    2.1886 C   0  0  0  0  0  0  0  0  0  0  0  0
   25.9630   11.0082    1.9368 C   0  0  0  0  0  0  0  0  0  0  0  0
   26.3626   10.9271    0.4610 C   0  0  0  0  0  0  0  0  0  0  0  0
   25.1310   10.7260   -0.4251 C   0  0  0  0  0  0  0  0  0  0  0  0
  1  2  2  0  0  0
  2  3  1  0  0  0
  3 16  1  0  0  0
 16 17  1  0  0  0
 17 18  2  0  0  0
 18 19  1  0  0  0
 19 20  2  0  0  0
 20 21  1  0  0  0
 21 22  1  0  0  0
 22 23  1  0  0  0
 23 24  1  0  0  0
 24 25  1  0  0  0
  2  5  1  0  0  0
  5  6  2  0  0  0
  6  7  1  0  0  0
  7  8  1  0  0  0
  8 10  1  0  0  0
 10 11  2  0  0  0
 11 12  1  0  0  0
 12 13  2  0  0  0
 13 14  1  0  0  0
 14 15  2  0  0  0
  8  9  2  0  0  0
 21 17  1  0  0  0
  9  5  1  0  0  0
 25 20  1  0  0  0
 15 10  1  0  0  0
  3  4  1  0  0  0
M  END
> <minimizedAffinity>
-4.97194

> <minimizedRMSD>
0.96922

$$$$
P5890


 23 25  0  0  0  0  0  0  0  0999 V2000
    9.6977   13.6518   24.3425 C   0  0  0  0  0  0  0  0  0  0  0  0
    8.7114   13.6162   25.5257 C   0  0  0  0  0  0  0  0  0  0  0  0
    8.2763   12.2138   25.7042 N   0  0  0  0  0  0  0  0  0  0  0  0
    8.9506   11.4243   24.7175 C   0  0  0  0  0  0  0  0  0  0  0  0
    8.9279   10.0598   24.5172 C   0  0  0  0  0  0  0  0  0  0  0  0
    9.8354    9.4692   23.6310 C   0  0  0  0  0  0  0  0  0  0  0  0
   10.7526   10.2527   22.9348 C   0  0  0  0  0  0  0  0  0  0  0  0
   10.7494   11.6341   23.1007 C   0  0  0  0  0  0  0  0  0  0  0  0
    9.8594   12.2021   24.0070 C   0  0  0  0  0  0  0  0  0  0  0  0
    6.6949   11.9395   26.1968 S   0  0  0  0  0  0  0  0  0  0  0  0
    5.7930   12.8764   25.5764 O   0  0  0  0  0  0  0  0  0  0  0  0
    6.4252   10.5231   26.1982 O   0  0  0  0  0  0  0  0  0  0  0  0
    6.7575   12.4144   27.8375 N   0  0  0  0  0  0  0  0  0  0  0  0
    6.4774   13.8422   28.1421 C   0  0  0  0  0  0  0  0  0  0  0  0
    5.2238   14.0120   28.9902 C   0  0  0  0  0  0  0  0  0  0  0  0
    5.3380   13.2708   30.3187 C   0  0  0  0  0  0  0  0  0  0  0  0
    6.1364   11.9760   30.1892 C   0  0  0  0  0  0  0  0  0  0  0  0
    6.1063   11.4411   28.7628 C   0  0  0  0  0  0  0  0  0  0  0  0
    9.2537   14.5203   23.1649 C   0  0  0  0  0  0  0  0  0  0  0  0
    7.7864   14.3645   22.8489 C   0  0  0  0  0  0  0  0  0  0  0  0
    7.2953   13.3410   22.3953 O   0  0  0  0  0  0  0  0  0  0  0  0
    5.7530   15.2824   23.5986 C   0  0  0  0  0  0  0  0  0  0  0  0
    7.1138   15.4870   23.2089 O   0  0  0  0  0  0  0  0  0  0  0  0
 22 23  1  0  0  0
 23 20  1  0  0  0
 20 21  2  0  0  0
 20 19  1  0  0  0
  1 19  1  0  0  0
  1  2  1  0  0  0
  2  3  1  0  0  0
  3 10  1  0  0  0
 10 11  2  0  0  0
 10 12  2  0  0  0
 10 13  1  0  0  0
 13 14  1  0  0  0
 14 15  1  0  0  0
 15 16  1  0  0  0
 16 17  1  0  0  0
 17 18  1  0  0  0
  3  4  1  0  0  0
  4  5  2  0  0  0
  5  6  1  0  0  0
  6  7  2  0  0  0
  7  8  1  0  0  0
  8  9  2  0  0  0
  9  1  1  0  0  0
 18 13  1  0  0  0
  9  4  1  0  0  0
M  END
> <minimizedAffinity>
-6.55337

> <minimizedRMSD>
0.39410

$$$$
P6803


 18 20  0  0  0  0  0  0  0  0999 V2000
    8.3310   12.8782   24.7902 C   0  0  0  0  0  0  0  0  0  0  0  0
    8.6226   11.5888   24.3194 C   0  0  0  0  0  0  0  0  0  0  0  0
    7.8956   10.4968   24.7969 C   0  0  0  0  0  0  0  0  0  0  0  0
    6.9248   10.7125   25.7573 C   0  0  0  0  0  0  0  0  0  0  0  0
    6.6409   12.0028   26.2102 C   0  0  0  0  0  0  0  0  0  0  0  0
    7.3265   13.1048   25.7353 C   0  0  0  0  0  0  0  0  0  0  0  0
    5.5408   11.9376   27.2151 C   0  0  0  0  0  0  0  0  0  0  0  0
    5.5297   10.4227   27.5032 C   0  0  0  0  0  0  0  0  0  0  0  0
    6.0466    9.7551   26.3014 N   0  0  0  0  0  0  0  0  0  0  0  0
    5.8317    8.8572   25.9594 H   0  0  0  0  0  0  0  0  0  0  0  0
    9.2941   14.9458   25.1398 O   0  0  0  0  0  0  0  0  0  0  0  0
    9.1719   14.0065   24.3584 C   0  0  0  0  0  0  0  0  0  0  0  0
    9.8024   13.8693   22.9782 C   0  0  0  0  0  0  0  0  0  0  0  0
   10.4119   15.1203   22.5178 N   0  0  0  0  0  0  0  0  0  0  0  0
   10.0433   15.4221   21.1317 C   0  0  0  0  0  0  0  0  0  0  0  0
   11.0174   16.5204   20.7536 C   0  0  0  0  0  0  0  0  0  0  0  0
   12.2800   16.2008   21.5405 C   0  0  0  0  0  0  0  0  0  0  0  0
   11.8778   15.1125   22.5293 C   0  0  0  0  0  0  0  0  0  0  0  0
 11 12  2  0  0  0
 12 13  1  0  0  0
 13 14  1  0  0  0
 14 15  1  0  0  0
 15 16  1  0  0  0
 16 17  1  0  0  0
 17 18  1  0  0  0
 12  1  1  0  0  0
  1  2  2  0  0  0
  2  3  1  0  0  0
  3  4  2  0  0  0
  4  5  1  0  0  0
  5  6  2  0  0  0
  5  7  1  0  0  0
  7  8  1  0  0  0
  8  9  1  0  0  0
 18 14  1  0  0  0
  6  1  1  0  0  0
  9  4  1  0  0  0
  9 10  1  0  0  0
M  END
> <minimizedAffinity>
-5.98306

> <minimizedRMSD>
1.07956

$$$$
P7453


 23 24  0  0  0  0  0  0  0  0999 V2000
    8.3803   14.5669   24.0454 N   0  0  0  0  0  0  0  0  0  0  0  0
    7.8144   13.2241   24.1464 C   0  0  0  0  0  0  0  0  0  0  0  0
    6.7619   13.0944   25.2594 C   0  0  0  0  0  0  0  0  0  0  0  0
    6.7715   11.6150   25.6447 C   0  0  0  0  0  0  0  0  0  0  0  0
    8.0696   11.0742   25.2158 N   0  0  0  0  0  0  0  0  0  0  0  0
    8.8060   12.2061   24.6622 C   0  0  0  0  0  0  0  0  0  0  0  0
    7.9451    9.9567   24.2437 C   0  0  0  0  0  0  0  0  0  0  0  0
    9.1489    9.4481   23.4157 C   0  0  0  0  0  0  0  0  0  0  0  0
   10.2584    9.2432   24.1375 F   0  0  0  0  0  0  0  0  0  0  0  0
    8.8590    8.2933   22.7829 F   0  0  0  0  0  0  0  0  0  0  0  0
    9.4642   10.3651   22.4716 F   0  0  0  0  0  0  0  0  0  0  0  0
    6.7780   14.7861   22.0820 C   0  0  0  0  0  0  0  0  0  0  0  0
    7.6959   15.4517   23.0948 C   0  0  0  0  0  0  0  0  0  0  0  0
    9.8411   14.7395   24.1341 C   0  0  0  0  0  0  0  0  0  0  0  0
   10.7987   14.2177   23.0449 C   0  0  0  0  0  0  0  0  0  0  0  0
   10.0512   13.5642   22.0198 O   0  0  0  0  0  0  0  0  0  0  0  0
    9.4389   14.1969   21.6128 H   0  0  0  0  0  0  0  0  0  0  0  0
   11.7285   15.3394   22.5309 C   0  0  0  0  0  0  0  0  0  0  0  0
   11.3744   15.7440   21.1929 N   0  0  0  0  0  0  0  0  0  0  0  0
   11.7940   15.1495   20.0445 C   0  0  0  0  0  0  0  0  0  0  0  0
   10.8866   15.5032   19.0797 C   0  0  0  0  0  0  0  0  0  0  0  0
    9.9910   16.3627   19.7352 C   0  0  0  0  0  0  0  0  0  0  0  0
   10.2707   16.4944   21.0322 N   0  0  0  0  0  0  0  0  0  0  0  0
 12 13  1  0  0  0
 13  1  1  0  0  0
  1 14  1  0  0  0
 14 15  1  0  0  0
 15 16  1  0  0  0
 15 18  1  0  0  0
 18 19  1  0  0  0
 19 20  1  0  0  0
 20 21  2  0  0  0
 21 22  1  0  0  0
 22 23  2  0  0  0
  2  1  1  0  0  0
  2  3  1  0  0  0
  3  4  1  0  0  0
  4  5  1  0  0  0
  5  7  1  0  0  0
  7  8  1  0  0  0
  8  9  1  0  0  0
  8 10  1  0  0  0
  8 11  1  0  0  0
  5  6  1  0  0  0
 23 19  1  0  0  0
  6  2  1  0  0  0
 16 17  1  0  0  0
M  END
> <minimizedAffinity>
-5.42618

> <minimizedRMSD>
0.66517

$$$$
P8090


 23 24  0  0  0  0  0  0  0  0999 V2000
    6.3638   11.9287   25.7194 C   0  0  0  0  0  0  0  0  0  0  0  0
    6.7388   10.6037   25.5004 C   0  0  0  0  0  0  0  0  0  0  0  0
    7.7482   10.3686   24.5822 C   0  0  0  0  0  0  0  0  0  0  0  0
    8.3949   11.3453   23.9019 N   0  0  0  0  0  0  0  0  0  0  0  0
    8.0074   12.6119   24.1466 C   0  0  0  0  0  0  0  0  0  0  0  0
    7.0237   12.9554   25.0488 C   0  0  0  0  0  0  0  0  0  0  0  0
    5.3794   11.7325   27.7731 O   0  0  0  0  0  0  0  0  0  0  0  0
    5.3250   12.2603   26.7367 C   0  0  0  0  0  0  0  0  0  0  0  0
    4.3728   13.3585   26.2237 N   0  0  0  0  0  0  0  0  0  0  0  0
    4.4822   13.5875   25.2725 H   0  0  0  0  0  0  0  0  0  0  0  0
    3.3446   14.1074   26.9125 C   0  0  0  0  0  0  0  0  0  0  0  0
    2.1855   13.2580   27.4342 C   0  0  0  0  0  0  0  0  0  0  0  0
    0.9863   13.2381   26.6208 N   0  0  0  0  0  0  0  0  0  0  0  0
   -0.2848   13.0625   27.1031 C   0  0  0  0  0  0  0  0  0  0  0  0
   -1.0866   12.9937   25.9885 C   0  0  0  0  0  0  0  0  0  0  0  0
   -0.3325   13.1015   24.8496 N   0  0  0  0  0  0  0  0  0  0  0  0
    0.8920   13.3369   25.2658 C   0  0  0  0  0  0  0  0  0  0  0  0
    8.6205   13.6675   23.5049 O   0  0  0  0  0  0  0  0  0  0  0  0
    9.7664   13.2802   22.7405 C   0  0  0  0  0  0  0  0  0  0  0  0
   10.3769   14.4794   22.0365 C   0  0  0  0  0  0  0  0  0  0  0  0
   10.2674   15.5954   22.7962 F   0  0  0  0  0  0  0  0  0  0  0  0
    9.7920   14.7197   20.8438 F   0  0  0  0  0  0  0  0  0  0  0  0
   11.6936   14.2762   21.8176 F   0  0  0  0  0  0  0  0  0  0  0  0
  7  8  2  0  0  0
  8  9  1  0  0  0
  9 11  1  0  0  0
 11 12  1  0  0  0
 12 13  1  0  0  0
 13 14  1  0  0  0
 14 15  2  0  0  0
 15 16  1  0  0  0
 16 17  2  0  0  0
  8  1  1  0  0  0
  1  2  2  0  0  0
  2  3  1  0  0  0
  3  4  2  0  0  0
  4  5  1  0  0  0
  5 18  1  0  0  0
 18 19  1  0  0  0
 19 20  1  0  0  0
 20 21  1  0  0  0
 20 22  1  0  0  0
 20 23  1  0  0  0
  5  6  2  0  0  0
 17 13  1  0  0  0
  6  1  1  0  0  0
  9 10  1  0  0  0
M  END
> <minimizedAffinity>
-4.75002

> <minimizedRMSD>
1.27994

$$$$
P8760


 24 27  0  0  0  0  0  0  0  0999 V2000
   19.0987   -2.0952   20.7279 N   0  0  0  0  0  0  0  0  0  0  0  0
   19.1895   -3.5656   20.5200 C   0  0  0  0  0  0  0  0  0  0  0  0
   17.8470   -4.3126   20.3540 C   0  0  0  0  0  0  0  0  0  0  0  0
   16.9721   -3.6778   19.3560 N   0  0  0  0  0  0  0  0  0  0  0  0
   16.9260   -2.2033   19.3940 C   0  0  0  0  0  0  0  0  0  0  0  0
   18.3331   -1.5845   19.5596 C   0  0  0  0  0  0  0  0  0  0  0  0
   15.8460   -4.3744   18.8888 C   0  0  0  0  0  0  0  0  0  0  0  0
   14.6031   -3.7146   18.6602 C   0  0  0  0  0  0  0  0  0  0  0  0
   13.4605   -4.3491   18.1594 C   0  0  0  0  0  0  0  0  0  0  0  0
   13.4735   -5.7096   17.8803 C   0  0  0  0  0  0  0  0  0  0  0  0
   14.6874   -6.3712   18.0623 C   0  0  0  0  0  0  0  0  0  0  0  0
   15.0267   -7.6800   17.8475 N   0  0  0  0  0  0  0  0  0  0  0  0
   16.3251   -7.9574   18.0407 N   0  0  0  0  0  0  0  0  0  0  0  0
   16.8236   -6.7770   18.4221 C   0  0  0  0  0  0  0  0  0  0  0  0
   15.8487   -5.7501   18.5236 C   0  0  0  0  0  0  0  0  0  0  0  0
   14.3716   -8.3619   17.5737 H   0  0  0  0  0  0  0  0  0  0  0  0
   18.4891   -0.2034   22.2637 C   0  0  0  0  0  0  0  0  0  0  0  0
   18.4753   -1.7262   22.0259 C   0  0  0  0  0  0  0  0  0  0  0  0
   19.1696   -2.3664   23.2246 C   0  0  0  0  0  0  0  0  0  0  0  0
   18.5496   -3.4156   23.9138 C   0  0  0  0  0  0  0  0  0  0  0  0
   19.1839   -3.9525   25.0230 C   0  0  0  0  0  0  0  0  0  0  0  0
   20.3769   -3.5251   25.4877 N   0  0  0  0  0  0  0  0  0  0  0  0
   20.9585   -2.5093   24.8134 C   0  0  0  0  0  0  0  0  0  0  0  0
   20.4013   -1.9017   23.6997 C   0  0  0  0  0  0  0  0  0  0  0  0
 18 17  1  0  0  0
 18 19  1  0  0  0
 19 20  2  0  0  0
 20 21  1  0  0  0
 21 22  2  0  0  0
 22 23  1  0  0  0
 23 24  2  0  0  0
 18  1  1  0  0  0
  1  2  1  0  0  0
  2  3  1  0  0  0
  3  4  1  0  0  0
  4  7  1  0  0  0
  7  8  2  0  0  0
  8  9  1  0  0  0
  9 10  2  0  0  0
 10 11  1  0  0  0
 11 12  1  0  0  0
 12 13  1  0  0  0
 13 14  2  0  0  0
 14 15  1  0  0  0
  4  5  1  0  0  0
  5  6  1  0  0  0
 24 19  1  0  0  0
  6  1  1  0  0  0
 15  7  1  0  0  0
 15 11  2  0  0  0
 12 16  1  0  0  0
M  END
> <minimizedAffinity>
-4.08568

> <minimizedRMSD>
1.15735

$$$$
P8892


 21 23  0  0  0  0  0  0  0  0999 V2000
   12.3163   13.3496   22.9385 C   0  0  0  0  0  0  0  0  0  0  0  0
   11.0027   12.7057   23.0435 N   0  0  0  0  0  0  0  0  0  0  0  0
    9.7471   13.7638   22.6932 S   0  0  0  0  0  0  0  0  0  0  0  0
    9.8663   14.7028   23.7700 O   0  0  0  0  0  0  0  0  0  0  0  0
    8.4999   13.0536   22.5180 O   0  0  0  0  0  0  0  0  0  0  0  0
    9.9916   14.7871   21.3089 C   0  0  0  0  0  0  0  0  0  0  0  0
   11.0462   15.0066   20.4475 C   0  0  0  0  0  0  0  0  0  0  0  0
   10.7517   15.9197   19.4841 N   0  0  0  0  0  0  0  0  0  0  0  0
    9.5456   16.3334   19.7849 C   0  0  0  0  0  0  0  0  0  0  0  0
    9.0630   15.7166   20.8973 N   0  0  0  0  0  0  0  0  0  0  0  0
    7.8544   16.1045   21.5776 C   0  0  0  0  0  0  0  0  0  0  0  0
   10.8261   12.0750   24.3661 C   0  0  0  0  0  0  0  0  0  0  0  0
    9.6999   11.1173   24.3627 C   0  0  0  0  0  0  0  0  0  0  0  0
    9.6623    9.9539   23.7420 N   0  0  0  0  0  0  0  0  0  0  0  0
    8.5859    9.2462   24.2154 N   0  0  0  0  0  0  0  0  0  0  0  0
    7.9792    9.9918   25.1076 C   0  0  0  0  0  0  0  0  0  0  0  0
    6.8618    9.7615   25.9514 C   0  0  0  0  0  0  0  0  0  0  0  0
    6.4481   10.7278   26.7916 C   0  0  0  0  0  0  0  0  0  0  0  0
    7.1145   12.0182   26.8448 C   0  0  0  0  0  0  0  0  0  0  0  0
    8.1784   12.2370   26.0528 C   0  0  0  0  0  0  0  0  0  0  0  0
    8.6116   11.2209   25.1992 N   0  0  0  0  0  0  0  0  0  0  0  0
  1  2  1  0  0  0
  2 12  1  0  0  0
 12 13  1  0  0  0
 13 14  2  0  0  0
 14 15  1  0  0  0
 15 16  2  0  0  0
 16 17  1  0  0  0
 17 18  2  0  0  0
 18 19  1  0  0  0
 19 20  2  0  0  0
 20 21  1  0  0  0
  2  3  1  0  0  0
  3  4  2  0  0  0
  3  5  2  0  0  0
  3  6  1  0  0  0
  6  7  2  0  0  0
  7  8  1  0  0  0
  8  9  2  0  0  0
  9 10  1  0  0  0
 10 11  1  0  0  0
 21 13  1  0  0  0
 10  6  1  0  0  0
 21 16  1  0  0  0
M  END
> <minimizedAffinity>
-6.13399

> <minimizedRMSD>
1.15689

$$$$
P9109


 14 14  0  0  0  0  0  0  0  0999 V2000
    7.4421   10.9766   25.5223 C   0  0  0  0  0  0  0  0  0  0  0  0
    8.2231   10.2339   24.6671 C   0  0  0  0  0  0  0  0  0  0  0  0
    9.3902   10.7991   24.1873 C   0  0  0  0  0  0  0  0  0  0  0  0
    9.7822   12.0683   24.6275 C   0  0  0  0  0  0  0  0  0  0  0  0
    8.9324   12.7177   25.5187 C   0  0  0  0  0  0  0  0  0  0  0  0
    7.7689   12.1998   25.9763 N   0  0  0  0  0  0  0  0  0  0  0  0
    5.5578   11.0798   26.9005 C   0  0  0  0  0  0  0  0  0  0  0  0
    6.2454   10.3851   25.8668 O   0  0  0  0  0  0  0  0  0  0  0  0
   10.1864   10.2097   23.2574 O   0  0  0  0  0  0  0  0  0  0  0  0
    9.9352    8.8586   22.9099 C   0  0  0  0  0  0  0  0  0  0  0  0
   11.0773   12.7007   24.1785 C   0  0  0  0  0  0  0  0  0  0  0  0
   10.8801   13.8357   23.1974 C   0  0  0  0  0  0  0  0  0  0  0  0
   12.0272   13.9205   22.2259 C   0  0  0  0  0  0  0  0  0  0  0  0
   12.7316   14.9178   22.1118 O   0  0  0  0  0  0  0  0  0  0  0  0
  7  8  1  0  0  0
  8  1  1  0  0  0
  1  2  2  0  0  0
  2  3  1  0  0  0
  3  9  1  0  0  0
  9 10  1  0  0  0
  3  4  2  0  0  0
  4 11  1  0  0  0
 11 12  1  0  0  0
 12 13  1  0  0  0
 13 14  2  0  0  0
  4  5  1  0  0  0
  5  6  2  0  0  0
  6  1  1  0  0  0
M  END
> <minimizedAffinity>
-5.80044

> <minimizedRMSD>
0.82188

$$$$
P11635


 19 20  0  0  0  0  0  0  0  0999 V2000
    9.9449   13.5883   22.4565 N   0  0  0  0  0  0  0  0  0  0  0  0
    9.0494   13.6268   21.9698 H   0  0  0  0  0  0  0  0  0  0  0  0
    9.6518   13.2942   23.8644 C   0  0  0  0  0  0  0  0  0  0  0  0
    8.9502   11.9196   23.9953 C   0  0  0  0  0  0  0  0  0  0  0  0
    7.8525   11.6748   24.8348 C   0  0  0  0  0  0  0  0  0  0  0  0
    7.3785   10.3824   24.9935 C   0  0  0  0  0  0  0  0  0  0  0  0
    7.8930    9.3147   24.3648 N   0  0  0  0  0  0  0  0  0  0  0  0
    8.9071    9.5498   23.5130 C   0  0  0  0  0  0  0  0  0  0  0  0
    9.4459   10.8127   23.3015 C   0  0  0  0  0  0  0  0  0  0  0  0
    9.4724   15.1648   25.6434 C   0  0  0  0  0  0  0  0  0  0  0  0
    8.7892   14.3559   24.5827 C   0  0  0  0  0  0  0  0  0  0  0  0
   10.6747   14.8165   22.1044 C   0  0  0  0  0  0  0  0  0  0  0  0
   12.2101   14.6940   21.9952 C   0  0  0  0  0  0  0  0  0  0  0  0
   12.8056   15.7224   21.0794 C   0  0  0  0  0  0  0  0  0  0  0  0
   13.6516   16.7874   21.3189 C   0  0  0  0  0  0  0  0  0  0  0  0
   13.9276   17.4943   20.1771 N   0  0  0  0  0  0  0  0  0  0  0  0
   13.3250   16.8249   19.2221 C   0  0  0  0  0  0  0  0  0  0  0  0
   12.6467   15.7448   19.7142 N   0  0  0  0  0  0  0  0  0  0  0  0
   11.9048   14.8125   18.9079 C   0  0  0  0  0  0  0  0  0  0  0  0
 10 11  1  0  0  0
  3 11  1  0  0  0
  3  1  1  0  0  0
  1 12  1  0  0  0
 12 13  1  0  0  0
 13 14  1  0  0  0
 14 15  2  0  0  0
 15 16  1  0  0  0
 16 17  2  0  0  0
 17 18  1  0  0  0
 18 19  1  0  0  0
  3  4  1  0  0  0
  4  5  2  0  0  0
  5  6  1  0  0  0
  6  7  2  0  0  0
  7  8  1  0  0  0
  8  9  2  0  0  0
 18 14  1  0  0  0
  9  4  1  0  0  0
  1  2  1  0  0  0
M  END
> <minimizedAffinity>
-6.49461

> <minimizedRMSD>
0.41635

$$$$
P15274


 20 20  0  0  0  0  0  0  0  0999 V2000
    9.7076   12.9205   23.6831 N   0  0  0  0  0  0  0  0  0  0  0  0
   10.1482   14.3975   23.5544 C   0  0  0  0  0  0  0  0  0  0  0  0
    9.9276   15.3138   24.2396 O   0  0  0  0  0  0  0  0  0  0  0  0
   10.0919   12.3154   23.0082 H   0  0  0  0  0  0  0  0  0  0  0  0
    8.7128   10.9349   24.4551 C   0  0  0  0  0  0  0  0  0  0  0  0
    7.7592   10.3166   25.2467 C   0  0  0  0  0  0  0  0  0  0  0  0
    6.9653   11.0938   26.0881 C   0  0  0  0  0  0  0  0  0  0  0  0
    7.1872   12.4628   26.1257 C   0  0  0  0  0  0  0  0  0  0  0  0
    6.0576   13.5556   27.1708 Br  0  0  0  0  0  0  0  0  0  0  0  0
    8.1560   13.0773   25.4283 N   0  0  0  0  0  0  0  0  0  0  0  0
    8.8667   12.3153   24.5864 C   0  0  0  0  0  0  0  0  0  0  0  0
    9.4384    8.9365   23.3727 C   0  0  0  0  0  0  0  0  0  0  0  0
    9.5218   10.3394   23.5333 O   0  0  0  0  0  0  0  0  0  0  0  0
   10.8809   14.4316   22.2315 C   0  0  0  0  0  0  0  0  0  0  0  0
   11.0207   15.8349   21.6714 C   0  0  0  0  0  0  0  0  0  0  0  0
   12.4606   16.2964   21.8374 C   0  0  0  0  0  0  0  0  0  0  0  0
   10.5292   15.8329   20.2346 C   0  0  0  0  0  0  0  0  0  0  0  0
   11.4794   15.4385   19.3624 F   0  0  0  0  0  0  0  0  0  0  0  0
   10.0726   17.0354   19.8566 F   0  0  0  0  0  0  0  0  0  0  0  0
    9.4889   14.9778   20.1145 F   0  0  0  0  0  0  0  0  0  0  0  0
 12 13  1  0  0  0
 13  5  1  0  0  0
  5  6  2  0  0  0
  6  7  1  0  0  0
  7  8  2  0  0  0
  8  9  1  0  0  0
  8 10  1  0  0  0
 10 11  2  0  0  0
 11  1  1  0  0  0
  1  2  1  0  0  0
  2  3  2  0  0  0
  2 14  1  0  0  0
 14 15  1  0  0  0
 15 16  1  0  0  0
 15 17  1  0  0  0
 17 18  1  0  0  0
 17 19  1  0  0  0
 17 20  1  0  0  0
 11  5  1  0  0  0
  1  4  1  0  0  0
M  END
> <minimizedAffinity>
-6.48032

> <minimizedRMSD>
0.52267

$$$$
P15275


 22 22  0  0  0  0  0  0  0  0999 V2000
    8.6551   11.0762   24.6079 C   0  0  0  0  0  0  0  0  0  0  0  0
    7.6573   10.5194   25.3977 C   0  0  0  0  0  0  0  0  0  0  0  0
    6.8853   11.3726   26.1957 C   0  0  0  0  0  0  0  0  0  0  0  0
    7.1797   12.7226   26.2478 C   0  0  0  0  0  0  0  0  0  0  0  0
    8.1786   13.2733   25.5277 N   0  0  0  0  0  0  0  0  0  0  0  0
    8.8491   12.4608   24.6877 C   0  0  0  0  0  0  0  0  0  0  0  0
    9.6639   13.0178   23.7291 N   0  0  0  0  0  0  0  0  0  0  0  0
   10.1468   14.4766   23.5451 C   0  0  0  0  0  0  0  0  0  0  0  0
    9.9918   15.4142   24.2195 O   0  0  0  0  0  0  0  0  0  0  0  0
    9.9932   12.3858   23.0500 H   0  0  0  0  0  0  0  0  0  0  0  0
   10.8155   14.4693   22.1847 C   0  0  0  0  0  0  0  0  0  0  0  0
   11.0049   15.8689   21.6200 C   0  0  0  0  0  0  0  0  0  0  0  0
   12.4548   16.2883   21.8012 C   0  0  0  0  0  0  0  0  0  0  0  0
   10.5289   15.8947   20.1779 C   0  0  0  0  0  0  0  0  0  0  0  0
   11.4979   15.5521   19.3044 F   0  0  0  0  0  0  0  0  0  0  0  0
   10.0468   17.0972   19.8277 F   0  0  0  0  0  0  0  0  0  0  0  0
    9.5132   15.0157   20.0246 F   0  0  0  0  0  0  0  0  0  0  0  0
    5.7264   10.8802   26.9155 N   0  0  0  0  0  0  0  0  0  0  0  0
    5.3497   11.5165   27.9089 O   0  0  0  0  0  0  0  0  0  0  0  0
    5.1934    9.8481   26.4992 O   0  0  0  0  0  0  0  0  0  0  0  0
    9.2777    9.0332   23.5216 C   0  0  0  0  0  0  0  0  0  0  0  0
    9.4585   10.4249   23.7130 O   0  0  0  0  0  0  0  0  0  0  0  0
 21 22  1  0  0  0
 22  1  1  0  0  0
  1  2  2  0  0  0
  2  3  1  0  0  0
  3 18  1  0  0  0
 18 19  2  0  0  0
 18 20  1  0  0  0
  3  4  2  0  0  0
  4  5  1  0  0  0
  5  6  2  0  0  0
  6  7  1  0  0  0
  7  8  1  0  0  0
  8  9  2  0  0  0
  8 11  1  0  0  0
 11 12  1  0  0  0
 12 13  1  0  0  0
 12 14  1  0  0  0
 14 15  1  0  0  0
 14 16  1  0  0  0
 14 17  1  0  0  0
  6  1  1  0  0  0
  7 10  1  0  0  0
M  CHG 1  18   1
M  CHG 1  20  -1
M  END
> <minimizedAffinity>
-6.50759

> <minimizedRMSD>
0.50082

$$$$
P15638


 15 17  0  0  0  0  0  0  0  0999 V2000
   10.2043   13.0096   24.1332 C   0  0  0  0  0  0  0  0  0  0  0  0
   12.5867   13.3214   24.3296 O   0  0  0  0  0  0  0  0  0  0  0  0
   11.5332   13.6453   23.7892 C   0  0  0  0  0  0  0  0  0  0  0  0
   11.4341   14.7126   22.8198 C   0  0  0  0  0  0  0  0  0  0  0  0
   10.4553   14.7501   21.8505 C   0  0  0  0  0  0  0  0  0  0  0  0
   10.8428   15.9661   20.7275 S   0  0  0  0  0  0  0  0  0  0  0  0
   12.1879   16.4168   21.6550 C   0  0  0  0  0  0  0  0  0  0  0  0
   12.4326   15.6702   22.7034 N   0  0  0  0  0  0  0  0  0  0  0  0
    9.7714   13.2255   25.5862 C   0  0  0  0  0  0  0  0  0  0  0  0
    8.3470   12.8012   25.8872 C   0  0  0  0  0  0  0  0  0  0  0  0
    7.7642   11.4441   25.5467 C   0  0  0  0  0  0  0  0  0  0  0  0
    7.2775   12.6635   24.8300 C   0  0  0  0  0  0  0  0  0  0  0  0
   10.0538   14.6405   26.0677 C   0  0  0  0  0  0  0  0  0  0  0  0
   10.9780   15.0251   27.1990 C   0  0  0  0  0  0  0  0  0  0  0  0
    9.4915   15.1005   27.3863 C   0  0  0  0  0  0  0  0  0  0  0  0
  2  3  2  0  0  0
  3  1  1  0  0  0
  1  9  1  0  0  0
  9 10  1  0  0  0
 10 11  1  0  0  0
 11 12  1  0  0  0
  9 13  1  0  0  0
 13 14  1  0  0  0
 14 15  1  0  0  0
  3  4  1  0  0  0
  4  5  2  0  0  0
  5  6  1  0  0  0
  6  7  1  0  0  0
  7  8  2  0  0  0
 12 10  1  0  0  0
 15 13  1  0  0  0
  8  4  1  0  0  0
M  END
> <minimizedAffinity>
-4.86250

> <minimizedRMSD>
2.37555

$$$$
P15897


 17 18  0  0  0  0  0  0  0  0999 V2000
   26.6115   20.4830   20.9943 N   0  0  0  0  0  0  0  0  0  0  0  0
   27.2996   21.2625   19.8361 C   0  0  0  0  0  0  0  0  0  0  0  0
   26.8367   21.8237   18.9221 O   0  0  0  0  0  0  0  0  0  0  0  0
   27.2235   20.1595   21.6944 H   0  0  0  0  0  0  0  0  0  0  0  0
   28.8102   21.2863   20.1358 C   0  0  0  0  0  0  0  0  0  0  0  0
   29.3458   22.7243   20.1214 C   0  0  0  0  0  0  0  0  0  0  0  0
   30.8566   22.7378   20.3429 C   0  0  0  0  0  0  0  0  0  0  0  0
   31.5687   21.8127   19.3576 C   0  0  0  0  0  0  0  0  0  0  0  0
   31.0396   20.4482   19.4226 N   0  0  0  0  0  0  0  0  0  0  0  0
   29.5962   20.4410   19.1352 C   0  0  0  0  0  0  0  0  0  0  0  0
   31.1977   20.0710   20.3571 H   0  0  0  0  0  0  0  0  0  0  0  0
   25.2213   20.1574   21.2086 C   0  0  0  0  0  0  0  0  0  0  0  0
   25.0541   19.1568   22.3528 C   0  0  0  0  0  0  0  0  0  0  0  0
   23.2810   21.8917   19.1088 C   0  0  0  0  0  0  0  0  0  0  0  0
   23.5073   22.1792   20.5501 C   0  0  0  0  0  0  0  0  0  0  0  0
   22.8815   21.2598   21.5626 C   0  0  0  0  0  0  0  0  0  0  0  0
   24.3839   21.3811   21.5112 C   0  0  0  0  0  0  0  0  0  0  0  0
 15 14  1  0  0  0
 15 16  1  0  0  0
 17 16  1  0  0  0
 17 12  1  0  0  0
 12 13  1  0  0  0
 12  1  1  0  0  0
  1  2  1  0  0  0
  2  3  2  0  0  0
  5  2  1  0  0  0
  5  6  1  0  0  0
  6  7  1  0  0  0
  7  8  1  0  0  0
  8  9  1  0  0  0
  9 10  1  0  0  0
 17 15  1  0  0  0
 10  5  1  0  0  0
  1  4  1  0  0  0
  9 11  1  0  0  0
M  END
> <minimizedAffinity>
-3.04647

> <minimizedRMSD>
1.69282

$$$$
P16706


 25 27  0  0  0  0  0  0  0  0999 V2000
    9.1803   12.1163   23.9983 S   0  0  0  0  0  0  0  0  0  0  0  0
   10.0875   13.1055   24.5215 O   0  0  0  0  0  0  0  0  0  0  0  0
    9.6669   10.8622   23.4877 O   0  0  0  0  0  0  0  0  0  0  0  0
    7.9767   11.7813   25.2167 C   0  0  0  0  0  0  0  0  0  0  0  0
    7.2878   10.5805   25.2975 C   0  0  0  0  0  0  0  0  0  0  0  0
    6.4469   10.6457   26.3693 N   0  0  0  0  0  0  0  0  0  0  0  0
    6.5567   11.8722   26.9801 C   0  0  0  0  0  0  0  0  0  0  0  0
    5.9150   12.3550   28.1272 C   0  0  0  0  0  0  0  0  0  0  0  0
    6.1379   13.6773   28.5088 C   0  0  0  0  0  0  0  0  0  0  0  0
    6.9670   14.4956   27.7558 C   0  0  0  0  0  0  0  0  0  0  0  0
    7.6157   13.9930   26.6268 C   0  0  0  0  0  0  0  0  0  0  0  0
    8.4095   14.8304   25.9472 F   0  0  0  0  0  0  0  0  0  0  0  0
    7.4516   12.6458   26.2304 C   0  0  0  0  0  0  0  0  0  0  0  0
    5.8490    9.9207   26.6626 H   0  0  0  0  0  0  0  0  0  0  0  0
    8.3537   12.6786   22.7220 N   0  0  0  0  0  0  0  0  0  0  0  0
    8.9209   12.4968   21.8940 H   0  0  0  0  0  0  0  0  0  0  0  0
    7.9899   14.0736   22.6882 C   0  0  0  0  0  0  0  0  0  0  0  0
    5.7998   15.3597   23.6876 C   0  0  0  0  0  0  0  0  0  0  0  0
    6.4705   14.2054   22.9798 C   0  0  0  0  0  0  0  0  0  0  0  0
    8.5443   14.5050   21.3472 C   0  0  0  0  0  0  0  0  0  0  0  0
    9.5437   15.5522   21.3367 N   0  0  0  0  0  0  0  0  0  0  0  0
   10.8323   14.8815   21.1020 C   0  0  0  0  0  0  0  0  0  0  0  0
   10.8083   14.8777   19.6059 C   0  0  0  0  0  0  0  0  0  0  0  0
   10.4821   16.3308   19.3161 C   0  0  0  0  0  0  0  0  0  0  0  0
    9.3732   16.5625   20.2788 C   0  0  0  0  0  0  0  0  0  0  0  0
 18 19  1  0  0  0
 17 19  1  0  0  0
 17 20  1  0  0  0
 20 21  1  0  0  0
 21 22  1  0  0  0
 22 23  1  0  0  0
 23 24  1  0  0  0
 24 25  1  0  0  0
 17 15  1  0  0  0
 15  1  1  0  0  0
  1  2  2  0  0  0
  1  3  2  0  0  0
  1  4  1  0  0  0
  4  5  2  0  0  0
  5  6  1  0  0  0
  6  7  1  0  0  0
  7  8  2  0  0  0
  8  9  1  0  0  0
  9 10  2  0  0  0
 10 11  1  0  0  0
 11 12  1  0  0  0
 11 13  2  0  0  0
 25 21  1  0  0  0
 13  4  1  0  0  0
 13  7  1  0  0  0
 15 16  1  0  0  0
  6 14  1  0  0  0
M  END
> <minimizedAffinity>
-6.43993

> <minimizedRMSD>
2.16615

$$$$
P18206


 17 19  0  0  0  0  0  0  0  0999 V2000
   10.7596    8.5703   23.1410 Br  0  0  0  0  0  0  0  0  0  0  0  0
   10.3703   10.2778   23.7853 C   0  0  0  0  0  0  0  0  0  0  0  0
   11.3353   11.2642   23.6337 C   0  0  0  0  0  0  0  0  0  0  0  0
   11.0722   12.5621   24.0191 C   0  0  0  0  0  0  0  0  0  0  0  0
    9.7783   12.8641   24.3659 C   0  0  0  0  0  0  0  0  0  0  0  0
    8.8123   11.8750   24.5712 C   0  0  0  0  0  0  0  0  0  0  0  0
    9.1322   10.5553   24.3482 C   0  0  0  0  0  0  0  0  0  0  0  0
    7.5094   12.4079   24.8568 N   0  0  0  0  0  0  0  0  0  0  0  0
    7.7019   13.7531   24.2452 C   0  0  0  0  0  0  0  0  0  0  0  0
    9.1454   14.1941   24.5221 C   0  0  0  0  0  0  0  0  0  0  0  0
    7.1854   12.3857   26.3089 C   0  0  0  0  0  0  0  0  0  0  0  0
    6.3862   13.6198   26.7816 C   0  0  0  0  0  0  0  0  0  0  0  0
    5.6585   13.4102   28.1162 C   0  0  0  0  0  0  0  0  0  0  0  0
    6.1604   12.1846   28.8708 C   0  0  0  0  0  0  0  0  0  0  0  0
    6.0084   10.9731   28.0753 N   0  0  0  0  0  0  0  0  0  0  0  0
    6.3234   11.1583   26.6542 C   0  0  0  0  0  0  0  0  0  0  0  0
    5.0420   10.6561   28.1524 H   0  0  0  0  0  0  0  0  0  0  0  0
  1  2  1  0  0  0
  2  3  2  0  0  0
  3  4  1  0  0  0
  4  5  2  0  0  0
  5  6  1  0  0  0
  6  7  2  0  0  0
  6  8  1  0  0  0
 11  8  1  0  0  0
 11 12  1  0  0  0
 12 13  1  0  0  0
 13 14  1  0  0  0
 14 15  1  0  0  0
 15 16  1  0  0  0
  8  9  1  0  0  0
  9 10  1  0  0  0
  7  2  1  0  0  0
 16 11  1  0  0  0
 10  5  1  0  0  0
 15 17  1  0  0  0
M  END
> <minimizedAffinity>
-5.89360

> <minimizedRMSD>
0.32718

$$$$
P19678


 17 17  0  0  0  0  0  0  0  0999 V2000
    9.4850   14.8832   25.9242 C   0  0  0  0  0  0  0  0  0  0  0  0
    8.9769   14.3301   24.5886 C   0  0  0  0  0  0  0  0  0  0  0  0
    8.8552   12.8747   24.6184 N   0  0  0  0  0  0  0  0  0  0  0  0
    9.6786   12.0041   23.8123 C   0  0  0  0  0  0  0  0  0  0  0  0
    8.8745   10.7153   23.7025 C   0  0  0  0  0  0  0  0  0  0  0  0
    9.6449    9.5475   23.8660 O   0  0  0  0  0  0  0  0  0  0  0  0
    7.8212   10.7720   24.7927 C   0  0  0  0  0  0  0  0  0  0  0  0
    7.7886   12.2100   25.1864 C   0  0  0  0  0  0  0  0  0  0  0  0
    6.9577   12.7117   25.9239 O   0  0  0  0  0  0  0  0  0  0  0  0
   10.0474    9.5466   24.7485 H   0  0  0  0  0  0  0  0  0  0  0  0
    7.6606   15.0155   24.2291 C   0  0  0  0  0  0  0  0  0  0  0  0
    7.4024   15.0261   22.4694 S   0  0  0  0  0  0  0  0  0  0  0  0
    6.1127   16.0868   22.3663 N   0  0  0  0  0  0  0  0  0  0  0  0
    8.5124   15.6795   21.8221 O   0  0  0  0  0  0  0  0  0  0  0  0
    6.9134   13.7448   22.0045 O   0  0  0  0  0  0  0  0  0  0  0  0
    6.4059   17.0105   22.6844 H   0  0  0  0  0  0  0  0  0  0  0  0
    5.3490   15.7516   22.9534 H   0  0  0  0  0  0  0  0  0  0  0  0
  2  1  1  0  0  0
  2 11  1  0  0  0
 11 12  1  0  0  0
 12 13  1  0  0  0
 12 14  2  0  0  0
 12 15  2  0  0  0
  2  3  1  0  0  0
  3  4  1  0  0  0
  4  5  1  0  0  0
  5  6  1  0  0  0
  5  7  1  0  0  0
  7  8  1  0  0  0
  8  9  2  0  0  0
  8  3  1  0  0  0
 13 16  1  0  0  0
 13 17  1  0  0  0
  6 10  1  0  0  0
M  END
> <minimizedAffinity>
-5.07365

> <minimizedRMSD>
0.57167

$$$$
P19748


 27 29  0  0  0  0  0  0  0  0999 V2000
   14.0832   15.4466    2.5933 N   0  0  0  0  0  0  0  0  0  0  0  0
   15.2869   14.8798    3.4172 C   0  0  0  0  0  0  0  0  0  0  0  0
   15.5503   14.9964    4.5528 O   0  0  0  0  0  0  0  0  0  0  0  0
   14.0436   15.1418    1.6580 H   0  0  0  0  0  0  0  0  0  0  0  0
   13.0110   16.3531    2.9864 C   0  0  0  0  0  0  0  0  0  0  0  0
   11.8742   16.8018    0.7663 C   0  0  0  0  0  0  0  0  0  0  0  0
   11.7313   16.1508    2.1454 C   0  0  0  0  0  0  0  0  0  0  0  0
   10.4467   16.6587    2.8765 C   0  0  0  0  0  0  0  0  0  0  0  0
    9.4488   15.5808    2.8921 N   0  0  0  0  0  0  0  0  0  0  0  0
    9.9259   14.7156    3.1456 H   0  0  0  0  0  0  0  0  0  0  0  0
    8.3140   15.7680    3.8310 C   0  0  0  0  0  0  0  0  0  0  0  0
    7.8106   14.4213    4.2878 C   0  0  0  0  0  0  0  0  0  0  0  0
    7.6813   13.2221    3.5405 C   0  0  0  0  0  0  0  0  0  0  0  0
    7.2892   12.2842    4.4562 C   0  0  0  0  0  0  0  0  0  0  0  0
    7.1495   12.8718    5.6668 O   0  0  0  0  0  0  0  0  0  0  0  0
    7.4435   14.2213    5.5663 N   0  0  0  0  0  0  0  0  0  0  0  0
   16.1340   13.9847    2.4838 C   0  0  0  0  0  0  0  0  0  0  0  0
   17.6074   14.2798    2.5209 C   0  0  0  0  0  0  0  0  0  0  0  0
   18.5052   13.2972    2.7227 N   0  0  0  0  0  0  0  0  0  0  0  0
   19.6991   13.9126    2.5994 N   0  0  0  0  0  0  0  0  0  0  0  0
   19.6109   15.2300    2.2407 C   0  0  0  0  0  0  0  0  0  0  0  0
   20.5978   16.1782    1.9539 C   0  0  0  0  0  0  0  0  0  0  0  0
   20.1665   17.4713    1.6488 C   0  0  0  0  0  0  0  0  0  0  0  0
   18.8098   17.7921    1.6337 C   0  0  0  0  0  0  0  0  0  0  0  0
   17.8389   16.8238    1.9170 C   0  0  0  0  0  0  0  0  0  0  0  0
   18.2509   15.5155    2.2256 C   0  0  0  0  0  0  0  0  0  0  0  0
   20.5570   13.4549    2.7537 H   0  0  0  0  0  0  0  0  0  0  0  0
  7  6  1  0  0  0
  7  8  1  0  0  0
  8  9  1  0  0  0
  9 11  1  0  0  0
 11 12  1  0  0  0
 12 13  1  0  0  0
 13 14  2  0  0  0
 14 15  1  0  0  0
 15 16  1  0  0  0
  7  5  1  0  0  0
  5  1  1  0  0  0
  1  2  1  0  0  0
  2  3  2  0  0  0
  2 17  1  0  0  0
 17 18  1  0  0  0
 18 19  2  0  0  0
 19 20  1  0  0  0
 20 21  1  0  0  0
 21 22  2  0  0  0
 22 23  1  0  0  0
 23 24  2  0  0  0
 24 25  1  0  0  0
 25 26  2  0  0  0
 16 12  2  0  0  0
 26 18  1  0  0  0
 26 21  1  0  0  0
  9 10  1  0  0  0
  1  4  1  0  0  0
 20 27  1  0  0  0
M  END
> <minimizedAffinity>
-4.36761

> <minimizedRMSD>
0.33968

$$$$
P19749


 27 29  0  0  0  0  0  0  0  0999 V2000
   13.6788   16.4757    3.6474 N   0  0  0  0  0  0  0  0  0  0  0  0
   14.9000   15.5056    3.8111 C   0  0  0  0  0  0  0  0  0  0  0  0
   15.2858   14.9232    4.7531 O   0  0  0  0  0  0  0  0  0  0  0  0
   13.5164   16.7827    2.7262 H   0  0  0  0  0  0  0  0  0  0  0  0
   12.7429   16.9976    4.6408 C   0  0  0  0  0  0  0  0  0  0  0  0
   11.6127   19.1659    3.9634 C   0  0  0  0  0  0  0  0  0  0  0  0
   11.4735   17.6425    4.0311 C   0  0  0  0  0  0  0  0  0  0  0  0
   10.1729   17.2320    4.8075 C   0  0  0  0  0  0  0  0  0  0  0  0
    9.3926   16.2208    4.0695 N   0  0  0  0  0  0  0  0  0  0  0  0
    9.8704   15.3241    4.1597 H   0  0  0  0  0  0  0  0  0  0  0  0
    7.9869   16.0465    4.5389 C   0  0  0  0  0  0  0  0  0  0  0  0
    7.6448   14.5780    4.6227 C   0  0  0  0  0  0  0  0  0  0  0  0
    7.6847   13.6028    3.5943 C   0  0  0  0  0  0  0  0  0  0  0  0
    7.4259   12.4198    4.2324 C   0  0  0  0  0  0  0  0  0  0  0  0
    7.1915   12.6585    5.5441 O   0  0  0  0  0  0  0  0  0  0  0  0
    7.2928   14.0167    5.7926 N   0  0  0  0  0  0  0  0  0  0  0  0
   15.5953   15.3450    2.4327 C   0  0  0  0  0  0  0  0  0  0  0  0
   17.0876   15.5720    2.4506 C   0  0  0  0  0  0  0  0  0  0  0  0
   17.9495   14.5683    2.1859 N   0  0  0  0  0  0  0  0  0  0  0  0
   19.1665   15.1698    2.1669 N   0  0  0  0  0  0  0  0  0  0  0  0
   20.3643   14.3905    1.9354 C   0  0  0  0  0  0  0  0  0  0  0  0
   19.1160   16.5260    2.3643 C   0  0  0  0  0  0  0  0  0  0  0  0
   20.1136   17.5122    2.3693 C   0  0  0  0  0  0  0  0  0  0  0  0
   19.7193   18.8287    2.6088 C   0  0  0  0  0  0  0  0  0  0  0  0
   18.3832   19.1440    2.8361 C   0  0  0  0  0  0  0  0  0  0  0  0
   17.3990   18.1494    2.8244 C   0  0  0  0  0  0  0  0  0  0  0  0
   17.7719   16.8146    2.5836 C   0  0  0  0  0  0  0  0  0  0  0  0
  7  6  1  0  0  0
  7  8  1  0  0  0
  8  9  1  0  0  0
  9 11  1  0  0  0
 11 12  1  0  0  0
 12 13  1  0  0  0
 13 14  2  0  0  0
 14 15  1  0  0  0
 15 16  1  0  0  0
  7  5  1  0  0  0
  5  1  1  0  0  0
  1  2  1  0  0  0
  2  3  2  0  0  0
  2 17  1  0  0  0
 17 18  1  0  0  0
 18 19  2  0  0  0
 19 20  1  0  0  0
 20 21  1  0  0  0
 20 22  1  0  0  0
 22 23  2  0  0  0
 23 24  1  0  0  0
 24 25  2  0  0  0
 25 26  1  0  0  0
 26 27  2  0  0  0
 16 12  2  0  0  0
 27 18  1  0  0  0
 27 22  1  0  0  0
  9 10  1  0  0  0
  1  4  1  0  0  0
M  END
> <minimizedAffinity>
-4.55315

> <minimizedRMSD>
1.74519

$$$$
P23693


 28 29  0  0  0  0  0  0  0  0999 V2000
   -0.1438   11.6824    1.3172 C   0  0  0  0  0  0  0  0  0  0  0  0
    0.7689   10.5431    1.7543 C   0  0  0  0  0  0  0  0  0  0  0  0
    0.3190    9.9728    3.0050 N   0  0  0  0  0  0  0  0  0  0  0  0
    0.6106    8.5836    3.6450 C   0  0  0  0  0  0  0  0  0  0  0  0
    1.3189    7.7224    3.2946 O   0  0  0  0  0  0  0  0  0  0  0  0
   -0.2664   10.5578    3.5381 H   0  0  0  0  0  0  0  0  0  0  0  0
   -0.1977    8.5253    4.9577 C   0  0  0  0  0  0  0  0  0  0  0  0
    0.6598    8.9442    6.1487 C   0  0  0  0  0  0  0  0  0  0  0  0
    0.4575    7.9038    7.1219 N   0  0  0  0  0  0  0  0  0  0  0  0
   -0.1426    6.8097    6.5322 C   0  0  0  0  0  0  0  0  0  0  0  0
   -0.1888    5.6866    7.0065 O   0  0  0  0  0  0  0  0  0  0  0  0
   -0.6265    7.1850    5.2988 N   0  0  0  0  0  0  0  0  0  0  0  0
    0.7106    7.9637    8.0714 H   0  0  0  0  0  0  0  0  0  0  0  0
   -1.1897    6.6170    4.7248 H   0  0  0  0  0  0  0  0  0  0  0  0
    2.2452   10.9534    1.8527 C   0  0  0  0  0  0  0  0  0  0  0  0
    2.5097   12.0615    2.8661 C   0  0  0  0  0  0  0  0  0  0  0  0
    3.9093   12.1966    3.1660 N   0  0  0  0  0  0  0  0  0  0  0  0
    4.6516   13.2120    4.0773 C   0  0  0  0  0  0  0  0  0  0  0  0
    4.2488   14.1387    4.6607 O   0  0  0  0  0  0  0  0  0  0  0  0
    4.4917   11.5388    2.7216 H   0  0  0  0  0  0  0  0  0  0  0  0
    6.1214   12.7757    4.0348 C   0  0  0  0  0  0  0  0  0  0  0  0
    7.0006   13.4198    5.1032 C   0  0  0  0  0  0  0  0  0  0  0  0
    7.4778   14.7804    4.7186 C   0  0  0  0  0  0  0  0  0  0  0  0
    7.2218   16.0159    5.2735 C   0  0  0  0  0  0  0  0  0  0  0  0
    7.9933   16.9162    4.5250 C   0  0  0  0  0  0  0  0  0  0  0  0
    8.7156   16.3034    3.5840 N   0  0  0  0  0  0  0  0  0  0  0  0
    8.3478   15.0134    3.6896 N   0  0  0  0  0  0  0  0  0  0  0  0
    8.6728   14.3071    3.0857 H   0  0  0  0  0  0  0  0  0  0  0  0
  2  1  1  0  0  0
  2 15  1  0  0  0
 15 16  1  0  0  0
 16 17  1  0  0  0
 17 18  1  0  0  0
 18 19  2  0  0  0
 18 21  1  0  0  0
 21 22  1  0  0  0
 22 23  1  0  0  0
 23 24  2  0  0  0
 24 25  1  0  0  0
 25 26  2  0  0  0
 26 27  1  0  0  0
  2  3  1  0  0  0
  3  4  1  0  0  0
  4  5  2  0  0  0
  7  4  1  0  0  0
  7  8  1  0  0  0
  8  9  1  0  0  0
  9 10  1  0  0  0
 10 11  2  0  0  0
 10 12  1  0  0  0
 27 23  1  0  0  0
 12  7  1  0  0  0
 17 20  1  0  0  0
 27 28  1  0  0  0
  3  6  1  0  0  0
  9 13  1  0  0  0
 12 14  1  0  0  0
M  END
> <minimizedAffinity>
-3.79545

> <minimizedRMSD>
1.92383

$$$$
P23697


 26 27  0  0  0  0  0  0  0  0999 V2000
    3.9623   11.9885    1.7765 C   0  0  0  0  0  0  0  0  0  0  0  0
    4.9462   10.9067    2.2069 C   0  0  0  0  0  0  0  0  0  0  0  0
    5.6794   11.3201    3.3886 N   0  0  0  0  0  0  0  0  0  0  0  0
    7.1967   11.5975    3.5898 C   0  0  0  0  0  0  0  0  0  0  0  0
    8.0963   11.4606    2.8541 O   0  0  0  0  0  0  0  0  0  0  0  0
    5.1270   11.4454    4.1938 H   0  0  0  0  0  0  0  0  0  0  0  0
    7.3967   12.2359    4.9745 C   0  0  0  0  0  0  0  0  0  0  0  0
    7.3945   13.7252    4.8274 C   0  0  0  0  0  0  0  0  0  0  0  0
    6.9046   14.7250    5.6383 C   0  0  0  0  0  0  0  0  0  0  0  0
    7.1690   15.9170    4.9420 C   0  0  0  0  0  0  0  0  0  0  0  0
    7.8223   15.7063    3.7979 N   0  0  0  0  0  0  0  0  0  0  0  0
    7.9261   14.3631    3.7334 N   0  0  0  0  0  0  0  0  0  0  0  0
    8.3413   13.8876    2.9779 H   0  0  0  0  0  0  0  0  0  0  0  0
    4.3254    9.5045    2.3382 C   0  0  0  0  0  0  0  0  0  0  0  0
    3.0683    9.4112    3.0503 N   0  0  0  0  0  0  0  0  0  0  0  0
    1.9355    8.3444    2.9667 C   0  0  0  0  0  0  0  0  0  0  0  0
    1.8132    7.4247    2.2557 O   0  0  0  0  0  0  0  0  0  0  0  0
    2.9022   10.1399    3.6913 H   0  0  0  0  0  0  0  0  0  0  0  0
    0.8077    8.7455    3.9817 C   0  0  0  0  0  0  0  0  0  0  0  0
    1.3706    9.4264    5.2263 C   0  0  0  0  0  0  0  0  0  0  0  0
    0.9857    8.5995    6.3347 N   0  0  0  0  0  0  0  0  0  0  0  0
    0.3203    7.4695    5.9020 C   0  0  0  0  0  0  0  0  0  0  0  0
    0.0933    6.4974    6.6060 O   0  0  0  0  0  0  0  0  0  0  0  0
    0.0285    7.6400    4.5556 N   0  0  0  0  0  0  0  0  0  0  0  0
   -0.5852    6.6078    3.7533 C   0  0  0  0  0  0  0  0  0  0  0  0
    1.1714    8.8101    7.2783 H   0  0  0  0  0  0  0  0  0  0  0  0
  2  1  1  0  0  0
  2 14  1  0  0  0
 14 15  1  0  0  0
 15 16  1  0  0  0
 16 17  2  0  0  0
 19 16  1  0  0  0
 19 20  1  0  0  0
 20 21  1  0  0  0
 21 22  1  0  0  0
 22 23  2  0  0  0
 22 24  1  0  0  0
 24 25  1  0  0  0
  2  3  1  0  0  0
  3  4  1  0  0  0
  4  5  2  0  0  0
  4  7  1  0  0  0
  7  8  1  0  0  0
  8  9  2  0  0  0
  9 10  1  0  0  0
 10 11  2  0  0  0
 11 12  1  0  0  0
 24 19  1  0  0  0
 12  8  1  0  0  0
 15 18  1  0  0  0
 21 26  1  0  0  0
  3  6  1  0  0  0
 12 13  1  0  0  0
M  END
> <minimizedAffinity>
-4.41708

> <minimizedRMSD>
1.74298

$$$$
P23703


 26 28  0  0  0  0  0  0  0  0999 V2000
    3.3963   11.4661   -0.2796 C   0  0  0  0  0  0  0  0  0  0  0  0
    2.9732   11.0504    1.1337 C   0  0  0  0  0  0  0  0  0  0  0  0
    4.1118   11.1696    2.0364 N   0  0  0  0  0  0  0  0  0  0  0  0
    4.2043   12.0466    3.0809 C   0  0  0  0  0  0  0  0  0  0  0  0
    5.5455   12.0790    3.3660 C   0  0  0  0  0  0  0  0  0  0  0  0
    6.2028   11.1728    2.5830 N   0  0  0  0  0  0  0  0  0  0  0  0
    5.3130   10.6233    1.7572 N   0  0  0  0  0  0  0  0  0  0  0  0
    6.2063   13.0955    4.3072 C   0  0  0  0  0  0  0  0  0  0  0  0
    5.7371   14.3357    4.6689 C   0  0  0  0  0  0  0  0  0  0  0  0
    6.7909   14.9084    5.4004 C   0  0  0  0  0  0  0  0  0  0  0  0
    7.8177   14.0693    5.5648 N   0  0  0  0  0  0  0  0  0  0  0  0
    7.4339   12.9650    4.8832 N   0  0  0  0  0  0  0  0  0  0  0  0
    7.9845   12.1520    4.8111 H   0  0  0  0  0  0  0  0  0  0  0  0
    2.3042    9.6658    1.1609 C   0  0  0  0  0  0  0  0  0  0  0  0
    1.4513    9.5065    2.3306 N   0  0  0  0  0  0  0  0  0  0  0  0
    0.6899    8.2614    2.8614 C   0  0  0  0  0  0  0  0  0  0  0  0
    0.5685    7.1943    2.3997 O   0  0  0  0  0  0  0  0  0  0  0  0
    1.3392   10.3205    2.8730 H   0  0  0  0  0  0  0  0  0  0  0  0
   -0.0491    8.6396    4.1729 C   0  0  0  0  0  0  0  0  0  0  0  0
    0.7705    9.5426    5.0964 C   0  0  0  0  0  0  0  0  0  0  0  0
    1.0580    8.6939    6.2301 N   0  0  0  0  0  0  0  0  0  0  0  0
    0.2632    7.5671    6.2285 C   0  0  0  0  0  0  0  0  0  0  0  0
    0.1633    6.7531    7.1301 O   0  0  0  0  0  0  0  0  0  0  0  0
   -0.3716    7.5040    5.0097 N   0  0  0  0  0  0  0  0  0  0  0  0
    1.7350    8.8946    6.9161 H   0  0  0  0  0  0  0  0  0  0  0  0
   -0.9735    6.7734    4.7391 H   0  0  0  0  0  0  0  0  0  0  0  0
  2  1  1  0  0  0
  2 14  1  0  0  0
 14 15  1  0  0  0
 15 16  1  0  0  0
 16 17  2  0  0  0
 19 16  1  0  0  0
 19 20  1  0  0  0
 20 21  1  0  0  0
 21 22  1  0  0  0
 22 23  2  0  0  0
 22 24  1  0  0  0
  2  3  1  0  0  0
  3  4  1  0  0  0
  4  5  2  0  0  0
  5  8  1  0  0  0
  8  9  2  0  0  0
  9 10  1  0  0  0
 10 11  2  0  0  0
 11 12  1  0  0  0
  5  6  1  0  0  0
  6  7  2  0  0  0
 24 19  1  0  0  0
  7  3  1  0  0  0
 12  8  1  0  0  0
 15 18  1  0  0  0
 21 25  1  0  0  0
 24 26  1  0  0  0
 12 13  1  0  0  0
M  END
> <minimizedAffinity>
-4.15513

> <minimizedRMSD>
2.12635

$$$$
P23706


 28 30  0  0  0  0  0  0  0  0999 V2000
    1.9909    9.1395    0.9357 O   0  0  0  0  0  0  0  0  0  0  0  0
    2.2963    8.3983    1.7437 C   0  0  0  0  0  0  0  0  0  0  0  0
    1.4242    7.5561    2.7122 N   0  0  0  0  0  0  0  0  0  0  0  0
    3.7079    7.9637    2.2245 N   0  0  0  0  0  0  0  0  0  0  0  0
    1.9299    7.0389    3.3801 H   0  0  0  0  0  0  0  0  0  0  0  0
    3.7120    7.3569    2.9997 H   0  0  0  0  0  0  0  0  0  0  0  0
   -0.0170    7.4087    2.7913 C   0  0  0  0  0  0  0  0  0  0  0  0
   -0.5132    6.6693    4.0453 C   0  0  0  0  0  0  0  0  0  0  0  0
   -0.2693    7.4090    5.2705 N   0  0  0  0  0  0  0  0  0  0  0  0
   -0.3675    8.8480    5.3620 C   0  0  0  0  0  0  0  0  0  0  0  0
    0.3940    9.1203    6.6440 C   0  0  0  0  0  0  0  0  0  0  0  0
    0.2336    7.9033    7.3982 N   0  0  0  0  0  0  0  0  0  0  0  0
   -0.0612    6.8543    6.5320 C   0  0  0  0  0  0  0  0  0  0  0  0
   -0.0644    5.6770    6.8535 O   0  0  0  0  0  0  0  0  0  0  0  0
    0.3194    7.8255    8.3758 H   0  0  0  0  0  0  0  0  0  0  0  0
    5.0130    8.3068    1.7173 C   0  0  0  0  0  0  0  0  0  0  0  0
    5.6022    9.5637    2.3067 C   0  0  0  0  0  0  0  0  0  0  0  0
    6.9122    9.5589    2.8173 C   0  0  0  0  0  0  0  0  0  0  0  0
    7.5038   10.7305    3.3118 C   0  0  0  0  0  0  0  0  0  0  0  0
    6.7963   11.9329    3.2949 C   0  0  0  0  0  0  0  0  0  0  0  0
    5.4920   11.9455    2.7825 C   0  0  0  0  0  0  0  0  0  0  0  0
    4.9052   10.7773    2.2835 C   0  0  0  0  0  0  0  0  0  0  0  0
    7.3742   13.1647    3.8082 C   0  0  0  0  0  0  0  0  0  0  0  0
    7.2527   13.7754    5.0390 C   0  0  0  0  0  0  0  0  0  0  0  0
    7.9518   14.9881    4.9194 C   0  0  0  0  0  0  0  0  0  0  0  0
    8.5116   15.1381    3.7161 N   0  0  0  0  0  0  0  0  0  0  0  0
    8.1226   14.0280    3.0515 N   0  0  0  0  0  0  0  0  0  0  0  0
    8.3552   13.8553    2.1106 H   0  0  0  0  0  0  0  0  0  0  0  0
  1  2  2  0  0  0
  2  3  1  0  0  0
  3  7  1  0  0  0
  7  8  1  0  0  0
  8  9  1  0  0  0
  9 10  1  0  0  0
 10 11  1  0  0  0
 11 12  1  0  0  0
 12 13  1  0  0  0
 13 14  2  0  0  0
  2  4  1  0  0  0
  4 16  1  0  0  0
 16 17  1  0  0  0
 17 18  2  0  0  0
 18 19  1  0  0  0
 19 20  2  0  0  0
 20 23  1  0  0  0
 23 24  2  0  0  0
 24 25  1  0  0  0
 25 26  2  0  0  0
 26 27  1  0  0  0
 20 21  1  0  0  0
 21 22  2  0  0  0
 13  9  1  0  0  0
 22 17  1  0  0  0
 27 23  1  0  0  0
  3  5  1  0  0  0
 12 15  1  0  0  0
  4  6  1  0  0  0
 27 28  1  0  0  0
M  END
> <minimizedAffinity>
-4.16779

> <minimizedRMSD>
1.35493

$$$$
P23709


 29 30  0  0  0  0  0  0  0  0999 V2000
    1.8651   15.2181    1.6690 C   0  0  0  0  0  0  0  0  0  0  0  0
    1.7132   14.5157    3.0202 C   0  0  0  0  0  0  0  0  0  0  0  0
    2.4910   15.2514    4.1276 C   0  0  0  0  0  0  0  0  0  0  0  0
    3.8383   15.8456    3.7340 C   0  0  0  0  0  0  0  0  0  0  0  0
    4.8932   15.1961    4.4748 N   0  0  0  0  0  0  0  0  0  0  0  0
    6.3815   15.5935    4.6676 C   0  0  0  0  0  0  0  0  0  0  0  0
    6.9612   16.5462    4.3208 O   0  0  0  0  0  0  0  0  0  0  0  0
    4.6255   14.3664    4.9322 H   0  0  0  0  0  0  0  0  0  0  0  0
    7.0394   14.4866    5.5023 C   0  0  0  0  0  0  0  0  0  0  0  0
    7.3705   13.3135    4.6487 C   0  0  0  0  0  0  0  0  0  0  0  0
    7.3960   11.9626    4.9211 C   0  0  0  0  0  0  0  0  0  0  0  0
    7.7247   11.3564    3.6965 C   0  0  0  0  0  0  0  0  0  0  0  0
    7.9453   12.2519    2.7324 N   0  0  0  0  0  0  0  0  0  0  0  0
    7.6995   13.4318    3.3242 N   0  0  0  0  0  0  0  0  0  0  0  0
    7.7506   14.2950    2.8536 H   0  0  0  0  0  0  0  0  0  0  0  0
    2.1074   13.0272    2.9239 C   0  0  0  0  0  0  0  0  0  0  0  0
    0.9050   12.1017    2.7230 C   0  0  0  0  0  0  0  0  0  0  0  0
    1.0874   10.8392    3.3988 N   0  0  0  0  0  0  0  0  0  0  0  0
    0.6773    9.3954    2.9743 C   0  0  0  0  0  0  0  0  0  0  0  0
    0.2006    9.0050    1.9808 O   0  0  0  0  0  0  0  0  0  0  0  0
    1.5446   10.8992    4.2685 H   0  0  0  0  0  0  0  0  0  0  0  0
    1.0854    8.4719    4.1422 C   0  0  0  0  0  0  0  0  0  0  0  0
    1.4041    9.2528    5.4113 C   0  0  0  0  0  0  0  0  0  0  0  0
    0.9544    8.3847    6.4690 N   0  0  0  0  0  0  0  0  0  0  0  0
    0.2394    7.3173    5.9615 C   0  0  0  0  0  0  0  0  0  0  0  0
   -0.1214    6.3380    6.5932 O   0  0  0  0  0  0  0  0  0  0  0  0
    0.1055    7.5052    4.5975 N   0  0  0  0  0  0  0  0  0  0  0  0
    1.1327    8.5324    7.4258 H   0  0  0  0  0  0  0  0  0  0  0  0
   -0.5540    7.0520    4.0240 H   0  0  0  0  0  0  0  0  0  0  0  0
  2  1  1  0  0  0
  2  3  1  0  0  0
  3  4  1  0  0  0
  4  5  1  0  0  0
  5  6  1  0  0  0
  6  7  2  0  0  0
  6  9  1  0  0  0
  9 10  1  0  0  0
 10 11  2  0  0  0
 11 12  1  0  0  0
 12 13  2  0  0  0
 13 14  1  0  0  0
  2 16  1  0  0  0
 16 17  1  0  0  0
 17 18  1  0  0  0
 18 19  1  0  0  0
 19 20  2  0  0  0
 22 19  1  0  0  0
 22 23  1  0  0  0
 23 24  1  0  0  0
 24 25  1  0  0  0
 25 26  2  0  0  0
 25 27  1  0  0  0
 14 10  1  0  0  0
 27 22  1  0  0  0
  5  8  1  0  0  0
 14 15  1  0  0  0
 18 21  1  0  0  0
 24 28  1  0  0  0
 27 29  1  0  0  0
M  END
> <minimizedAffinity>
-3.63596

> <minimizedRMSD>
1.71235

$$$$
P23722


 27 28  0  0  0  0  0  0  0  0999 V2000
    1.4600   13.0391    2.9150 C   0  0  0  0  0  0  0  0  0  0  0  0
    2.1640   11.6786    2.9141 C   0  0  0  0  0  0  0  0  0  0  0  0
    1.4069   10.7426    3.7558 N   0  0  0  0  0  0  0  0  0  0  0  0
    0.0630   10.0032    3.4886 C   0  0  0  0  0  0  0  0  0  0  0  0
   -0.6050    9.9675    2.5272 O   0  0  0  0  0  0  0  0  0  0  0  0
    1.8156   10.5519    4.6310 H   0  0  0  0  0  0  0  0  0  0  0  0
   -0.4512    9.3073    4.7891 C   0  0  0  0  0  0  0  0  0  0  0  0
   -0.2246   10.0836    6.0815 C   0  0  0  0  0  0  0  0  0  0  0  0
    0.1610    9.0790    7.0360 N   0  0  0  0  0  0  0  0  0  0  0  0
    0.1801    7.8151    6.4813 C   0  0  0  0  0  0  0  0  0  0  0  0
    0.3150    6.7860    7.1263 O   0  0  0  0  0  0  0  0  0  0  0  0
    0.0027    7.9578    5.1028 N   0  0  0  0  0  0  0  0  0  0  0  0
   -0.3552    6.8487    4.2522 C   0  0  0  0  0  0  0  0  0  0  0  0
    0.3851    9.2704    7.9753 H   0  0  0  0  0  0  0  0  0  0  0  0
    3.6468   11.7943    3.3460 C   0  0  0  0  0  0  0  0  0  0  0  0
    4.3021   13.0686    3.0884 N   0  0  0  0  0  0  0  0  0  0  0  0
    4.3694   14.3638    3.9519 C   0  0  0  0  0  0  0  0  0  0  0  0
    3.9738   14.5757    5.0330 O   0  0  0  0  0  0  0  0  0  0  0  0
    4.7803   13.1203    2.2294 H   0  0  0  0  0  0  0  0  0  0  0  0
    5.0932   15.4524    3.1453 C   0  0  0  0  0  0  0  0  0  0  0  0
    6.5342   15.6948    3.6295 C   0  0  0  0  0  0  0  0  0  0  0  0
    7.5047   14.9278    2.8026 C   0  0  0  0  0  0  0  0  0  0  0  0
    7.8746   13.6016    2.8377 C   0  0  0  0  0  0  0  0  0  0  0  0
    8.7382   13.4420    1.7415 C   0  0  0  0  0  0  0  0  0  0  0  0
    8.9556   14.5906    1.0956 N   0  0  0  0  0  0  0  0  0  0  0  0
    8.2018   15.4786    1.7611 N   0  0  0  0  0  0  0  0  0  0  0  0
    8.1546   16.4329    1.5238 H   0  0  0  0  0  0  0  0  0  0  0  0
  2  1  1  0  0  0
  2 15  1  0  0  0
 15 16  1  0  0  0
 16 17  1  0  0  0
 17 18  2  0  0  0
 17 20  1  0  0  0
 20 21  1  0  0  0
 21 22  1  0  0  0
 22 23  2  0  0  0
 23 24  1  0  0  0
 24 25  2  0  0  0
 25 26  1  0  0  0
  2  3  1  0  0  0
  3  4  1  0  0  0
  4  5  2  0  0  0
  7  4  1  0  0  0
  7  8  1  0  0  0
  8  9  1  0  0  0
  9 10  1  0  0  0
 10 11  2  0  0  0
 10 12  1  0  0  0
 12 13  1  0  0  0
 26 22  1  0  0  0
 12  7  1  0  0  0
 16 19  1  0  0  0
 26 27  1  0  0  0
  3  6  1  0  0  0
  9 14  1  0  0  0
M  END
> <minimizedAffinity>
-3.38021

> <minimizedRMSD>
0.71808

$$$$
P23724


 27 28  0  0  0  0  0  0  0  0999 V2000
    2.9655   10.4141    2.3161 C   0  0  0  0  0  0  0  0  0  0  0  0
    1.9069    9.8977    3.1792 N   0  0  0  0  0  0  0  0  0  0  0  0
    1.2619    8.4807    3.2517 C   0  0  0  0  0  0  0  0  0  0  0  0
    1.4278    7.5372    2.5797 O   0  0  0  0  0  0  0  0  0  0  0  0
    1.5414   10.5505    3.8191 H   0  0  0  0  0  0  0  0  0  0  0  0
    0.1851    8.5015    4.3744 C   0  0  0  0  0  0  0  0  0  0  0  0
    0.5817    9.2985    5.6077 C   0  0  0  0  0  0  0  0  0  0  0  0
    0.0578    8.5224    6.7089 N   0  0  0  0  0  0  0  0  0  0  0  0
    0.2781    8.9212    8.0765 C   0  0  0  0  0  0  0  0  0  0  0  0
   -0.0192    7.1896    6.3119 C   0  0  0  0  0  0  0  0  0  0  0  0
    0.0168    6.2009    7.0263 O   0  0  0  0  0  0  0  0  0  0  0  0
   -0.0840    7.1816    4.9253 N   0  0  0  0  0  0  0  0  0  0  0  0
   -0.2863    6.3848    4.3837 H   0  0  0  0  0  0  0  0  0  0  0  0
    2.9502   11.7702    0.1199 C   0  0  0  0  0  0  0  0  0  0  0  0
    2.3762   10.6023    0.9048 C   0  0  0  0  0  0  0  0  0  0  0  0
    4.2210    9.5156    2.3356 C   0  0  0  0  0  0  0  0  0  0  0  0
    5.4730   10.2377    2.4822 N   0  0  0  0  0  0  0  0  0  0  0  0
    6.8827    9.7374    2.9042 C   0  0  0  0  0  0  0  0  0  0  0  0
    7.2336    8.6853    3.2719 O   0  0  0  0  0  0  0  0  0  0  0  0
    5.4199   11.2001    2.2817 H   0  0  0  0  0  0  0  0  0  0  0  0
    7.8701   10.8848    2.6557 C   0  0  0  0  0  0  0  0  0  0  0  0
    7.7110   12.0542    3.5704 C   0  0  0  0  0  0  0  0  0  0  0  0
    7.3508   12.1951    4.8941 C   0  0  0  0  0  0  0  0  0  0  0  0
    7.4477   13.5754    5.1542 C   0  0  0  0  0  0  0  0  0  0  0  0
    7.8543   14.2669    4.0866 N   0  0  0  0  0  0  0  0  0  0  0  0
    8.0016   13.3239    3.1400 N   0  0  0  0  0  0  0  0  0  0  0  0
    8.2916   13.5262    2.2212 H   0  0  0  0  0  0  0  0  0  0  0  0
 14 15  1  0  0  0
  1 15  1  0  0  0
  1 16  1  0  0  0
 16 17  1  0  0  0
 17 18  1  0  0  0
 18 19  2  0  0  0
 18 21  1  0  0  0
 21 22  1  0  0  0
 22 23  2  0  0  0
 23 24  1  0  0  0
 24 25  2  0  0  0
 25 26  1  0  0  0
  1  2  1  0  0  0
  2  3  1  0  0  0
  3  4  2  0  0  0
  6  3  1  0  0  0
  6  7  1  0  0  0
  7  8  1  0  0  0
  8  9  1  0  0  0
  8 10  1  0  0  0
 10 11  2  0  0  0
 10 12  1  0  0  0
 26 22  1  0  0  0
 12  6  1  0  0  0
 17 20  1  0  0  0
 26 27  1  0  0  0
  2  5  1  0  0  0
 12 13  1  0  0  0
M  END
> <minimizedAffinity>
-4.03551

> <minimizedRMSD>
1.11685

$$$$
P23728


 27 28  0  0  0  0  0  0  0  0999 V2000
    1.5904   10.6866    1.3052 C   0  0  0  0  0  0  0  0  0  0  0  0
    2.2371   10.2722    2.6210 C   0  0  0  0  0  0  0  0  0  0  0  0
    1.2214    9.8327    3.5628 N   0  0  0  0  0  0  0  0  0  0  0  0
    0.5743    8.4321    3.7703 C   0  0  0  0  0  0  0  0  0  0  0  0
    0.7046    7.4408    3.1649 O   0  0  0  0  0  0  0  0  0  0  0  0
    0.8886   10.5345    4.1677 H   0  0  0  0  0  0  0  0  0  0  0  0
   -0.2966    8.5149    5.0511 C   0  0  0  0  0  0  0  0  0  0  0  0
    0.5623    8.9310    6.2410 C   0  0  0  0  0  0  0  0  0  0  0  0
    0.4523    7.8571    7.1868 N   0  0  0  0  0  0  0  0  0  0  0  0
   -0.2286    6.7977    6.6271 C   0  0  0  0  0  0  0  0  0  0  0  0
   -0.2265    5.6608    7.0703 O   0  0  0  0  0  0  0  0  0  0  0  0
   -0.8241    7.2222    5.4561 N   0  0  0  0  0  0  0  0  0  0  0  0
    0.8114    7.8747    8.1033 H   0  0  0  0  0  0  0  0  0  0  0  0
   -1.5115    6.7187    4.9631 H   0  0  0  0  0  0  0  0  0  0  0  0
    3.0886   11.4049    3.2330 C   0  0  0  0  0  0  0  0  0  0  0  0
    4.5001   11.2099    3.0240 N   0  0  0  0  0  0  0  0  0  0  0  0
    5.4349   11.7451    1.9123 C   0  0  0  0  0  0  0  0  0  0  0  0
    5.2219   12.4881    1.0384 O   0  0  0  0  0  0  0  0  0  0  0  0
    4.9423   10.6443    3.6977 H   0  0  0  0  0  0  0  0  0  0  0  0
    6.8119   11.1173    2.1177 C   0  0  0  0  0  0  0  0  0  0  0  0
    7.3501   11.2258    3.5398 C   0  0  0  0  0  0  0  0  0  0  0  0
    7.4974   12.6275    4.0222 C   0  0  0  0  0  0  0  0  0  0  0  0
    7.1693   13.2084    5.2282 C   0  0  0  0  0  0  0  0  0  0  0  0
    7.6084   14.5382    5.1196 C   0  0  0  0  0  0  0  0  0  0  0  0
    8.1979   14.7843    3.9476 N   0  0  0  0  0  0  0  0  0  0  0  0
    8.0581   13.6277    3.2727 N   0  0  0  0  0  0  0  0  0  0  0  0
    8.3317   13.5123    2.3341 H   0  0  0  0  0  0  0  0  0  0  0  0
  2  1  1  0  0  0
  2 15  1  0  0  0
 15 16  1  0  0  0
 16 17  1  0  0  0
 17 18  2  0  0  0
 17 20  1  0  0  0
 20 21  1  0  0  0
 21 22  1  0  0  0
 22 23  2  0  0  0
 23 24  1  0  0  0
 24 25  2  0  0  0
 25 26  1  0  0  0
  2  3  1  0  0  0
  3  4  1  0  0  0
  4  5  2  0  0  0
  7  4  1  0  0  0
  7  8  1  0  0  0
  8  9  1  0  0  0
  9 10  1  0  0  0
 10 11  2  0  0  0
 10 12  1  0  0  0
 26 22  1  0  0  0
 12  7  1  0  0  0
 16 19  1  0  0  0
 26 27  1  0  0  0
  3  6  1  0  0  0
  9 13  1  0  0  0
 12 14  1  0  0  0
M  END
> <minimizedAffinity>
-4.03726

> <minimizedRMSD>
1.27276

$$$$
P23741


 28 30  0  0  0  0  0  0  0  0999 V2000
    3.3696   12.1311    3.1823 C   0  0  0  0  0  0  0  0  0  0  0  0
    4.8463   14.4855    4.8963 O   0  0  0  0  0  0  0  0  0  0  0  0
    5.3490   13.5305    4.4436 C   0  0  0  0  0  0  0  0  0  0  0  0
    4.7277   12.3418    3.6573 N   0  0  0  0  0  0  0  0  0  0  0  0
    5.3558   11.6135    3.4467 H   0  0  0  0  0  0  0  0  0  0  0  0
    6.8252   13.2096    4.6565 C   0  0  0  0  0  0  0  0  0  0  0  0
    7.6584   13.5920    3.4913 C   0  0  0  0  0  0  0  0  0  0  0  0
    8.0920   12.7528    2.4417 C   0  0  0  0  0  0  0  0  0  0  0  0
    8.8818   13.3871    1.5751 N   0  0  0  0  0  0  0  0  0  0  0  0
    8.9253   14.6446    2.0390 N   0  0  0  0  0  0  0  0  0  0  0  0
    8.2301   14.8135    3.2002 C   0  0  0  0  0  0  0  0  0  0  0  0
    9.4102   15.3724    1.5870 H   0  0  0  0  0  0  0  0  0  0  0  0
    3.1198   12.8178    1.8582 C   0  0  0  0  0  0  0  0  0  0  0  0
    3.2459   14.3096    1.6530 C   0  0  0  0  0  0  0  0  0  0  0  0
    4.2363   13.3783    1.0067 C   0  0  0  0  0  0  0  0  0  0  0  0
    3.0445   10.6128    3.0764 C   0  0  0  0  0  0  0  0  0  0  0  0
    2.1995   10.1061    4.1392 N   0  0  0  0  0  0  0  0  0  0  0  0
    0.6917   10.3127    4.4075 C   0  0  0  0  0  0  0  0  0  0  0  0
   -0.1217   10.8598    3.7730 O   0  0  0  0  0  0  0  0  0  0  0  0
    2.6611    9.5377    4.7973 H   0  0  0  0  0  0  0  0  0  0  0  0
    0.3246    9.6163    5.7478 C   0  0  0  0  0  0  0  0  0  0  0  0
   -1.1812    9.3230    5.7255 C   0  0  0  0  0  0  0  0  0  0  0  0
   -1.2979    8.0270    6.3354 N   0  0  0  0  0  0  0  0  0  0  0  0
   -0.0691    7.4608    6.5725 C   0  0  0  0  0  0  0  0  0  0  0  0
    0.1061    6.3777    7.1070 O   0  0  0  0  0  0  0  0  0  0  0  0
    0.9105    8.3316    6.1141 N   0  0  0  0  0  0  0  0  0  0  0  0
   -2.1553    7.5968    6.5568 H   0  0  0  0  0  0  0  0  0  0  0  0
    1.8678    8.1124    6.0457 H   0  0  0  0  0  0  0  0  0  0  0  0
  2  3  2  0  0  0
  3  6  1  0  0  0
  6  7  1  0  0  0
  7  8  1  0  0  0
  8  9  2  0  0  0
  9 10  1  0  0  0
 10 11  1  0  0  0
  3  4  1  0  0  0
  4  1  1  0  0  0
  1 16  1  0  0  0
 16 17  1  0  0  0
 17 18  1  0  0  0
 18 19  2  0  0  0
 21 18  1  0  0  0
 21 22  1  0  0  0
 22 23  1  0  0  0
 23 24  1  0  0  0
 24 25  2  0  0  0
 24 26  1  0  0  0
  1 13  1  0  0  0
 13 14  1  0  0  0
 14 15  1  0  0  0
 11  7  2  0  0  0
 26 21  1  0  0  0
 15 13  1  0  0  0
 10 12  1  0  0  0
  4  5  1  0  0  0
 17 20  1  0  0  0
 23 27  1  0  0  0
 26 28  1  0  0  0
M  END
> <minimizedAffinity>
-3.91916

> <minimizedRMSD>
0.74033

$$$$
P26724


 12 12  0  0  0  0  0  0  0  0999 V2000
   10.8608   15.2747   21.1129 C   0  0  0  0  0  0  0  0  0  0  0  0
   11.9149   15.8761   20.4379 C   0  0  0  0  0  0  0  0  0  0  0  0
   13.1308   15.9520   21.0864 C   0  0  0  0  0  0  0  0  0  0  0  0
   13.3337   15.5091   22.3437 N   0  0  0  0  0  0  0  0  0  0  0  0
   12.3068   14.8517   22.9272 C   0  0  0  0  0  0  0  0  0  0  0  0
   11.0572   14.6565   22.3471 C   0  0  0  0  0  0  0  0  0  0  0  0
    9.1239   16.6089   20.4231 C   0  0  0  0  0  0  0  0  0  0  0  0
    9.6005   15.2682   20.5765 O   0  0  0  0  0  0  0  0  0  0  0  0
    9.9883   13.7604   22.9247 C   0  0  0  0  0  0  0  0  0  0  0  0
   10.5524   12.5897   23.7052 C   0  0  0  0  0  0  0  0  0  0  0  0
    8.9607   14.4734   23.7798 C   0  0  0  0  0  0  0  0  0  0  0  0
    8.7468   14.1906   24.9612 O   0  0  0  0  0  0  0  0  0  0  0  0
  7  8  1  0  0  0
  8  1  1  0  0  0
  1  2  2  0  0  0
  2  3  1  0  0  0
  3  4  2  0  0  0
  4  5  1  0  0  0
  5  6  2  0  0  0
  6  9  1  0  0  0
  9 10  1  0  0  0
  9 11  1  0  0  0
 11 12  2  0  0  0
  6  1  1  0  0  0
M  END
> <minimizedAffinity>
-4.87592

> <minimizedRMSD>
1.20783

$$$$
P26728


 11 11  0  0  0  0  0  0  0  0999 V2000
   11.7890   15.4064   21.3315 C   0  0  0  0  0  0  0  0  0  0  0  0
   12.9011   15.6164   22.1398 C   0  0  0  0  0  0  0  0  0  0  0  0
   13.2544   14.8145   23.1679 N   0  0  0  0  0  0  0  0  0  0  0  0
   12.4492   13.7611   23.4103 C   0  0  0  0  0  0  0  0  0  0  0  0
   11.2726   13.5114   22.7283 C   0  0  0  0  0  0  0  0  0  0  0  0
   10.2501   12.2063   23.1657 Cl  0  0  0  0  0  0  0  0  0  0  0  0
   10.9413   14.3436   21.6700 C   0  0  0  0  0  0  0  0  0  0  0  0
   12.2926   15.5803   18.9166 C   0  0  0  0  0  0  0  0  0  0  0  0
   11.5341   16.2107   20.0785 C   0  0  0  0  0  0  0  0  0  0  0  0
   11.8629   17.6905   20.2011 C   0  0  0  0  0  0  0  0  0  0  0  0
   11.0260   18.5542   20.4681 O   0  0  0  0  0  0  0  0  0  0  0  0
  9  8  1  0  0  0
  9 10  1  0  0  0
 10 11  2  0  0  0
  9  1  1  0  0  0
  1  2  2  0  0  0
  2  3  1  0  0  0
  3  4  2  0  0  0
  4  5  1  0  0  0
  5  6  1  0  0  0
  5  7  2  0  0  0
  7  1  1  0  0  0
M  END
> <minimizedAffinity>
-4.47450

> <minimizedRMSD>
1.49953

$$$$
P26805


 17 19  0  0  0  0  0  0  0  0999 V2000
   10.7893    8.3897   23.1999 Br  0  0  0  0  0  0  0  0  0  0  0  0
   10.3213   10.1612   23.5087 C   0  0  0  0  0  0  0  0  0  0  0  0
   11.0370   11.1546   22.8547 C   0  0  0  0  0  0  0  0  0  0  0  0
   10.7551   12.4770   23.1306 C   0  0  0  0  0  0  0  0  0  0  0  0
    9.6748   12.7645   23.9371 C   0  0  0  0  0  0  0  0  0  0  0  0
    8.9815   11.7726   24.6288 C   0  0  0  0  0  0  0  0  0  0  0  0
    9.3175   10.4553   24.4254 C   0  0  0  0  0  0  0  0  0  0  0  0
    8.0835   12.3074   25.5559 N   0  0  0  0  0  0  0  0  0  0  0  0
    7.8887   13.6873   25.0937 C   0  0  0  0  0  0  0  0  0  0  0  0
    9.1059   14.0990   24.2561 C   0  0  0  0  0  0  0  0  0  0  0  0
    6.8919   11.5750   25.9465 C   0  0  0  0  0  0  0  0  0  0  0  0
    6.0440   12.2244   26.9903 C   0  0  0  0  0  0  0  0  0  0  0  0
    4.8106   12.8899   26.8074 C   0  0  0  0  0  0  0  0  0  0  0  0
    4.2980   13.3412   27.9543 N   0  0  0  0  0  0  0  0  0  0  0  0
    5.2067   12.9839   28.8746 N   0  0  0  0  0  0  0  0  0  0  0  0
    6.2651   12.3029   28.3509 C   0  0  0  0  0  0  0  0  0  0  0  0
    5.1179   13.1928   29.8326 H   0  0  0  0  0  0  0  0  0  0  0  0
  1  2  1  0  0  0
  2  3  2  0  0  0
  3  4  1  0  0  0
  4  5  2  0  0  0
  5  6  1  0  0  0
  6  7  2  0  0  0
  6  8  1  0  0  0
  8 11  1  0  0  0
 11 12  1  0  0  0
 12 13  1  0  0  0
 13 14  2  0  0  0
 14 15  1  0  0  0
 15 16  1  0  0  0
  8  9  1  0  0  0
  9 10  1  0  0  0
  7  2  1  0  0  0
 16 12  2  0  0  0
 10  5  1  0  0  0
 15 17  1  0  0  0
M  END
> <minimizedAffinity>
-5.04709

> <minimizedRMSD>
0.75007

$$$$
P26816


 19 21  0  0  0  0  0  0  0  0999 V2000
   10.0754    8.2986   23.2331 C   0  0  0  0  0  0  0  0  0  0  0  0
   10.0977    9.7545   23.5617 C   0  0  0  0  0  0  0  0  0  0  0  0
   11.0242   10.5859   22.9210 C   0  0  0  0  0  0  0  0  0  0  0  0
   10.9809   11.9623   23.1090 C   0  0  0  0  0  0  0  0  0  0  0  0
   10.0923   12.4748   24.0340 C   0  0  0  0  0  0  0  0  0  0  0  0
    9.1849   11.6553   24.6959 C   0  0  0  0  0  0  0  0  0  0  0  0
    9.1516   10.3029   24.4381 C   0  0  0  0  0  0  0  0  0  0  0  0
    8.5015   12.3876   25.7112 N   0  0  0  0  0  0  0  0  0  0  0  0
    9.0558   13.7668   25.6791 C   0  0  0  0  0  0  0  0  0  0  0  0
    9.8695   13.9015   24.3915 C   0  0  0  0  0  0  0  0  0  0  0  0
    6.8372   12.2635   25.9478 S   0  0  0  0  0  0  0  0  0  0  0  0
    6.1441   13.0749   24.9779 O   0  0  0  0  0  0  0  0  0  0  0  0
    6.4752   10.8896   26.2116 O   0  0  0  0  0  0  0  0  0  0  0  0
    6.4413   13.0645   27.4169 C   0  0  0  0  0  0  0  0  0  0  0  0
    5.8619   14.3350   27.5274 C   0  0  0  0  0  0  0  0  0  0  0  0
    5.6963   14.7054   28.8002 N   0  0  0  0  0  0  0  0  0  0  0  0
    6.1290   13.6390   29.5019 N   0  0  0  0  0  0  0  0  0  0  0  0
    6.6014   12.6292   28.7145 C   0  0  0  0  0  0  0  0  0  0  0  0
    6.1066   13.5931   30.4851 H   0  0  0  0  0  0  0  0  0  0  0  0
  1  2  1  0  0  0
  2  3  2  0  0  0
  3  4  1  0  0  0
  4  5  2  0  0  0
  5  6  1  0  0  0
  6  7  2  0  0  0
  6  8  1  0  0  0
  8 11  1  0  0  0
 11 12  2  0  0  0
 11 13  2  0  0  0
 11 14  1  0  0  0
 14 15  1  0  0  0
 15 16  2  0  0  0
 16 17  1  0  0  0
 17 18  1  0  0  0
  8  9  1  0  0  0
  9 10  1  0  0  0
  7  2  1  0  0  0
 18 14  2  0  0  0
 10  5  1  0  0  0
 17 19  1  0  0  0
M  END
> <minimizedAffinity>
-5.63639

> <minimizedRMSD>
1.03733

$$$$
P26819


 19 21  0  0  0  0  0  0  0  0999 V2000
    8.4593   12.3364   25.7831 N   0  0  0  0  0  0  0  0  0  0  0  0
    8.9495   13.7375   25.7506 C   0  0  0  0  0  0  0  0  0  0  0  0
    9.7277   13.9097   24.4407 C   0  0  0  0  0  0  0  0  0  0  0  0
    9.9770   12.4968   24.0452 C   0  0  0  0  0  0  0  0  0  0  0  0
   10.8326   12.0325   23.0638 C   0  0  0  0  0  0  0  0  0  0  0  0
   10.9315   10.6606   22.8670 C   0  0  0  0  0  0  0  0  0  0  0  0
   10.0732    9.8021   23.5532 C   0  0  0  0  0  0  0  0  0  0  0  0
   10.1194    8.1347   23.1989 Cl  0  0  0  0  0  0  0  0  0  0  0  0
    9.1523   10.2840   24.4804 C   0  0  0  0  0  0  0  0  0  0  0  0
    9.1372   11.6351   24.7419 C   0  0  0  0  0  0  0  0  0  0  0  0
    6.0668   13.1203   25.3158 O   0  0  0  0  0  0  0  0  0  0  0  0
    6.8092   12.1356   26.0642 S   0  0  0  0  0  0  0  0  0  0  0  0
    6.4830   10.7299   26.0478 O   0  0  0  0  0  0  0  0  0  0  0  0
    6.4769   12.5947   27.6859 C   0  0  0  0  0  0  0  0  0  0  0  0
    6.1126   11.7185   28.7194 C   0  0  0  0  0  0  0  0  0  0  0  0
    5.9550   12.3600   29.8814 N   0  0  0  0  0  0  0  0  0  0  0  0
    6.1687   13.6501   29.5721 N   0  0  0  0  0  0  0  0  0  0  0  0
    6.5067   13.8463   28.2631 C   0  0  0  0  0  0  0  0  0  0  0  0
    6.0894   14.3825   30.2252 H   0  0  0  0  0  0  0  0  0  0  0  0
 11 12  2  0  0  0
 12 13  2  0  0  0
 12 14  1  0  0  0
 14 15  1  0  0  0
 15 16  2  0  0  0
 16 17  1  0  0  0
 17 18  1  0  0  0
 12  1  1  0  0  0
  1  2  1  0  0  0
  2  3  1  0  0  0
  3  4  1  0  0  0
  4  5  2  0  0  0
  5  6  1  0  0  0
  6  7  2  0  0  0
  7  8  1  0  0  0
  7  9  1  0  0  0
  9 10  2  0  0  0
 18 14  2  0  0  0
 10  1  1  0  0  0
 10  4  1  0  0  0
 17 19  1  0  0  0
M  END
> <minimizedAffinity>
-5.53066

> <minimizedRMSD>
0.78782

$$$$
P26820


 21 24  0  0  0  0  0  0  0  0999 V2000
    8.6593    9.8851   24.1577 C   0  0  0  0  0  0  0  0  0  0  0  0
    7.6117   10.1423   25.0107 C   0  0  0  0  0  0  0  0  0  0  0  0
    7.2805   11.3727   25.4338 N   0  0  0  0  0  0  0  0  0  0  0  0
    8.0469   12.4298   25.0201 C   0  0  0  0  0  0  0  0  0  0  0  0
    9.1610   12.2599   24.2011 C   0  0  0  0  0  0  0  0  0  0  0  0
    9.4248   10.9563   23.7391 C   0  0  0  0  0  0  0  0  0  0  0  0
    7.6499   13.6944   25.5502 N   0  0  0  0  0  0  0  0  0  0  0  0
    6.3925   14.2536   25.3962 C   0  0  0  0  0  0  0  0  0  0  0  0
    6.3391   15.3739   26.1835 C   0  0  0  0  0  0  0  0  0  0  0  0
    7.5855   15.4035   26.8194 C   0  0  0  0  0  0  0  0  0  0  0  0
    8.3903   14.4045   26.4488 N   0  0  0  0  0  0  0  0  0  0  0  0
   10.0000   13.3062   23.6563 C   0  0  0  0  0  0  0  0  0  0  0  0
   11.3270   13.1661   23.4924 N   0  0  0  0  0  0  0  0  0  0  0  0
   11.5927   13.9570   22.3699 O   0  0  0  0  0  0  0  0  0  0  0  0
   10.4158   14.5685   22.0513 C   0  0  0  0  0  0  0  0  0  0  0  0
    9.4530   14.2962   22.9095 N   0  0  0  0  0  0  0  0  0  0  0  0
   10.1306   15.3812   20.7813 C   0  0  0  0  0  0  0  0  0  0  0  0
   10.5282   15.0861   19.5052 C   0  0  0  0  0  0  0  0  0  0  0  0
    9.9980   16.0457   18.6847 O   0  0  0  0  0  0  0  0  0  0  0  0
    9.3924   16.9088   19.5496 C   0  0  0  0  0  0  0  0  0  0  0  0
    9.3387   16.4964   20.7866 N   0  0  0  0  0  0  0  0  0  0  0  0
  1  2  2  0  0  0
  2  3  1  0  0  0
  3  4  2  0  0  0
  4  7  1  0  0  0
  7  8  1  0  0  0
  8  9  2  0  0  0
  9 10  1  0  0  0
 10 11  2  0  0  0
  4  5  1  0  0  0
  5 12  1  0  0  0
 12 13  2  0  0  0
 13 14  1  0  0  0
 14 15  1  0  0  0
 15 17  1  0  0  0
 17 18  2  0  0  0
 18 19  1  0  0  0
 19 20  1  0  0  0
 20 21  2  0  0  0
 15 16  2  0  0  0
  5  6  2  0  0  0
  6  1  1  0  0  0
 11  7  1  0  0  0
 16 12  1  0  0  0
 21 17  1  0  0  0
M  END
> <minimizedAffinity>
-6.88263

> <minimizedRMSD>
0.41782

$$$$
P26830


 22 24  0  0  0  0  0  0  0  0999 V2000
   10.1855   14.2361   25.3671 O   0  0  0  0  0  0  0  0  0  0  0  0
   10.1317   13.6521   24.3611 C   0  0  0  0  0  0  0  0  0  0  0  0
   10.9433   13.8174   23.0717 N   0  0  0  0  0  0  0  0  0  0  0  0
   10.6529   13.2443   22.3258 H   0  0  0  0  0  0  0  0  0  0  0  0
    9.1880   12.4866   24.3205 C   0  0  0  0  0  0  0  0  0  0  0  0
    9.5194   11.2701   23.7241 C   0  0  0  0  0  0  0  0  0  0  0  0
    8.7512   10.1694   24.0408 C   0  0  0  0  0  0  0  0  0  0  0  0
    7.7036   10.2147   24.8896 N   0  0  0  0  0  0  0  0  0  0  0  0
    7.3495   11.4160   25.4197 C   0  0  0  0  0  0  0  0  0  0  0  0
    8.0468   12.5758   25.1292 C   0  0  0  0  0  0  0  0  0  0  0  0
    6.2884   11.4491   26.3811 N   0  0  0  0  0  0  0  0  0  0  0  0
    5.5010   12.5126   26.7745 C   0  0  0  0  0  0  0  0  0  0  0  0
    4.6770   12.0562   27.7814 C   0  0  0  0  0  0  0  0  0  0  0  0
    5.0511   10.7238   27.9703 C   0  0  0  0  0  0  0  0  0  0  0  0
    5.9918   10.3482   27.1111 N   0  0  0  0  0  0  0  0  0  0  0  0
   12.0592   14.6724   22.7738 C   0  0  0  0  0  0  0  0  0  0  0  0
   12.2987   14.9004   21.2991 C   0  0  0  0  0  0  0  0  0  0  0  0
   11.1177   15.3509   20.5480 C   0  0  0  0  0  0  0  0  0  0  0  0
   10.7148   15.1455   19.2565 C   0  0  0  0  0  0  0  0  0  0  0  0
    9.5945   15.8845   18.9853 N   0  0  0  0  0  0  0  0  0  0  0  0
    9.3720   16.5188   20.1205 C   0  0  0  0  0  0  0  0  0  0  0  0
   10.2443   16.2223   21.1216 O   0  0  0  0  0  0  0  0  0  0  0  0
  1  2  2  0  0  0
  2  3  1  0  0  0
  3 16  1  0  0  0
 16 17  1  0  0  0
 17 18  1  0  0  0
 18 19  2  0  0  0
 19 20  1  0  0  0
 20 21  2  0  0  0
 21 22  1  0  0  0
  2  5  1  0  0  0
  5  6  2  0  0  0
  6  7  1  0  0  0
  7  8  2  0  0  0
  8  9  1  0  0  0
  9 11  1  0  0  0
 11 12  1  0  0  0
 12 13  2  0  0  0
 13 14  1  0  0  0
 14 15  2  0  0  0
  9 10  2  0  0  0
 22 18  1  0  0  0
 10  5  1  0  0  0
 15 11  1  0  0  0
  3  4  1  0  0  0
M  END
> <minimizedAffinity>
-7.24397

> <minimizedRMSD>
0.38759

$$$$
P26831


 21 24  0  0  0  0  0  0  0  0999 V2000
    8.5214    9.9219   24.2494 C   0  0  0  0  0  0  0  0  0  0  0  0
    7.5597   10.1958   25.1885 C   0  0  0  0  0  0  0  0  0  0  0  0
    7.2615   11.4284   25.6222 N   0  0  0  0  0  0  0  0  0  0  0  0
    7.8805   12.4989   25.0454 C   0  0  0  0  0  0  0  0  0  0  0  0
    8.9171   12.3125   24.1277 C   0  0  0  0  0  0  0  0  0  0  0  0
    9.2100   10.9945   23.7266 C   0  0  0  0  0  0  0  0  0  0  0  0
    7.3479   13.7710   25.4539 N   0  0  0  0  0  0  0  0  0  0  0  0
    6.1856   14.4226   25.1068 C   0  0  0  0  0  0  0  0  0  0  0  0
    6.1246   15.5912   25.8291 C   0  0  0  0  0  0  0  0  0  0  0  0
    7.2910   15.5887   26.5950 C   0  0  0  0  0  0  0  0  0  0  0  0
    8.0437   14.5146   26.3695 N   0  0  0  0  0  0  0  0  0  0  0  0
    9.7030   13.3260   23.4776 C   0  0  0  0  0  0  0  0  0  0  0  0
    9.2849   14.1904   22.6044 N   0  0  0  0  0  0  0  0  0  0  0  0
   10.4425   14.5561   21.9709 C   0  0  0  0  0  0  0  0  0  0  0  0
   11.5627   14.0364   22.4855 N   0  0  0  0  0  0  0  0  0  0  0  0
   11.0652   13.1930   23.4977 O   0  0  0  0  0  0  0  0  0  0  0  0
   10.2736   15.3669   20.7886 C   0  0  0  0  0  0  0  0  0  0  0  0
   10.5912   15.0967   19.4847 C   0  0  0  0  0  0  0  0  0  0  0  0
    9.9955   16.0592   18.7136 O   0  0  0  0  0  0  0  0  0  0  0  0
    9.4043   16.8884   19.6234 C   0  0  0  0  0  0  0  0  0  0  0  0
    9.4956   16.4937   20.8637 N   0  0  0  0  0  0  0  0  0  0  0  0
  1  2  2  0  0  0
  2  3  1  0  0  0
  3  4  2  0  0  0
  4  7  1  0  0  0
  7  8  1  0  0  0
  8  9  2  0  0  0
  9 10  1  0  0  0
 10 11  2  0  0  0
  4  5  1  0  0  0
  5 12  1  0  0  0
 12 13  2  0  0  0
 13 14  1  0  0  0
 14 17  1  0  0  0
 17 18  2  0  0  0
 18 19  1  0  0  0
 19 20  1  0  0  0
 20 21  2  0  0  0
 14 15  2  0  0  0
 15 16  1  0  0  0
  5  6  2  0  0  0
  6  1  1  0  0  0
 11  7  1  0  0  0
 16 12  1  0  0  0
 21 17  1  0  0  0
M  END
> <minimizedAffinity>
-7.08208

> <minimizedRMSD>
0.67962

$$$$
P26870


 24 26  0  0  0  0  0  0  0  0999 V2000
   10.1060   14.0775   25.3098 O   0  0  0  0  0  0  0  0  0  0  0  0
   10.1857   13.5586   24.2706 C   0  0  0  0  0  0  0  0  0  0  0  0
   11.1474   13.8157   23.1004 N   0  0  0  0  0  0  0  0  0  0  0  0
   10.9606   13.2885   22.2902 H   0  0  0  0  0  0  0  0  0  0  0  0
    9.2868   12.3824   24.0402 C   0  0  0  0  0  0  0  0  0  0  0  0
    9.8652   11.2282   23.4838 C   0  0  0  0  0  0  0  0  0  0  0  0
    9.2774    9.9887   23.6678 C   0  0  0  0  0  0  0  0  0  0  0  0
    8.1363    9.9242   24.4335 C   0  0  0  0  0  0  0  0  0  0  0  0
    7.5404   10.9933   24.9756 N   0  0  0  0  0  0  0  0  0  0  0  0
    8.0846   12.2218   24.7409 C   0  0  0  0  0  0  0  0  0  0  0  0
    7.3074   13.3288   25.1994 N   0  0  0  0  0  0  0  0  0  0  0  0
    6.6959   14.3052   24.4415 C   0  0  0  0  0  0  0  0  0  0  0  0
    5.9091   15.0441   25.2908 C   0  0  0  0  0  0  0  0  0  0  0  0
    6.1162   14.4741   26.5525 C   0  0  0  0  0  0  0  0  0  0  0  0
    6.9641   13.4474   26.5170 N   0  0  0  0  0  0  0  0  0  0  0  0
   12.2768   14.7015   22.9954 C   0  0  0  0  0  0  0  0  0  0  0  0
   12.5453   15.2443   21.5724 C   0  0  0  0  0  0  0  0  0  0  0  0
   11.3431   15.2528   20.8042 N   0  0  0  0  0  0  0  0  0  0  0  0
   11.2729   14.6272   19.5107 C   0  0  0  0  0  0  0  0  0  0  0  0
    9.9418   14.9554   18.8455 C   0  0  0  0  0  0  0  0  0  0  0  0
    8.9418   15.0710   19.8412 O   0  0  0  0  0  0  0  0  0  0  0  0
    9.1795   16.2681   20.5524 C   0  0  0  0  0  0  0  0  0  0  0  0
   10.6437   16.4239   20.9258 C   0  0  0  0  0  0  0  0  0  0  0  0
   11.2321   17.4065   21.3473 O   0  0  0  0  0  0  0  0  0  0  0  0
  1  2  2  0  0  0
  2  3  1  0  0  0
  3 16  1  0  0  0
 16 17  1  0  0  0
 17 18  1  0  0  0
 18 19  1  0  0  0
 19 20  1  0  0  0
 20 21  1  0  0  0
 21 22  1  0  0  0
 22 23  1  0  0  0
 23 24  2  0  0  0
  2  5  1  0  0  0
  5  6  2  0  0  0
  6  7  1  0  0  0
  7  8  2  0  0  0
  8  9  1  0  0  0
  9 10  2  0  0  0
 10 11  1  0  0  0
 11 12  1  0  0  0
 12 13  2  0  0  0
 13 14  1  0  0  0
 14 15  2  0  0  0
 23 18  1  0  0  0
 10  5  1  0  0  0
 15 11  1  0  0  0
  3  4  1  0  0  0
M  END
> <minimizedAffinity>
-3.52485

> <minimizedRMSD>
0.77394

$$$$
P26874


 17 18  0  0  0  0  0  0  0  0999 V2000
    9.2974   12.3909   24.1787 C   0  0  0  0  0  0  0  0  0  0  0  0
    9.5918   11.1535   23.6122 C   0  0  0  0  0  0  0  0  0  0  0  0
    8.8051   10.0786   23.9723 C   0  0  0  0  0  0  0  0  0  0  0  0
    7.7683   10.1698   24.8318 N   0  0  0  0  0  0  0  0  0  0  0  0
    7.4503   11.3906   25.3392 C   0  0  0  0  0  0  0  0  0  0  0  0
    8.1755   12.5243   25.0124 C   0  0  0  0  0  0  0  0  0  0  0  0
    6.3916   11.4690   26.3023 N   0  0  0  0  0  0  0  0  0  0  0  0
    5.6726   12.5697   26.7245 C   0  0  0  0  0  0  0  0  0  0  0  0
    4.8189   12.1401   27.7189 C   0  0  0  0  0  0  0  0  0  0  0  0
    5.1043   10.7816   27.8696 C   0  0  0  0  0  0  0  0  0  0  0  0
    6.0170   10.3691   26.9973 N   0  0  0  0  0  0  0  0  0  0  0  0
   10.9940   13.7110   22.8132 N   0  0  0  0  0  0  0  0  0  0  0  0
   10.2620   13.5375   24.1543 C   0  0  0  0  0  0  0  0  0  0  0  0
   10.3809   14.1143   25.1602 O   0  0  0  0  0  0  0  0  0  0  0  0
   10.6555   13.1445   22.0826 H   0  0  0  0  0  0  0  0  0  0  0  0
   12.0018   15.1069   21.0479 C   0  0  0  0  0  0  0  0  0  0  0  0
   12.0920   14.5655   22.4525 C   0  0  0  0  0  0  0  0  0  0  0  0
 16 17  1  0  0  0
 17 12  1  0  0  0
 12 13  1  0  0  0
 13 14  2  0  0  0
 13  1  1  0  0  0
  1  2  2  0  0  0
  2  3  1  0  0  0
  3  4  2  0  0  0
  4  5  1  0  0  0
  5  7  1  0  0  0
  7  8  1  0  0  0
  8  9  2  0  0  0
  9 10  1  0  0  0
 10 11  2  0  0  0
  5  6  2  0  0  0
  6  1  1  0  0  0
 11  7  1  0  0  0
 12 15  1  0  0  0
M  END
> <minimizedAffinity>
-5.81947

> <minimizedRMSD>
0.42314

$$$$
P26875


 17 18  0  0  0  0  0  0  0  0999 V2000
    9.3493   12.3915   23.9661 C   0  0  0  0  0  0  0  0  0  0  0  0
    9.7264   11.1383   23.4706 C   0  0  0  0  0  0  0  0  0  0  0  0
    9.0073   10.0239   23.8618 C   0  0  0  0  0  0  0  0  0  0  0  0
    7.9460   10.0789   24.6911 N   0  0  0  0  0  0  0  0  0  0  0  0
    7.5587   11.3021   25.1185 C   0  0  0  0  0  0  0  0  0  0  0  0
    8.1985   12.4826   24.7641 C   0  0  0  0  0  0  0  0  0  0  0  0
    7.6271   13.6973   25.2082 N   0  0  0  0  0  0  0  0  0  0  0  0
    6.9431   14.6398   24.4728 C   0  0  0  0  0  0  0  0  0  0  0  0
    6.5031   15.6011   25.3502 C   0  0  0  0  0  0  0  0  0  0  0  0
    6.9493   15.1621   26.6027 C   0  0  0  0  0  0  0  0  0  0  0  0
    7.6217   14.0120   26.5335 N   0  0  0  0  0  0  0  0  0  0  0  0
   10.9847   13.7649   22.5859 N   0  0  0  0  0  0  0  0  0  0  0  0
   10.3806   13.4794   23.9692 C   0  0  0  0  0  0  0  0  0  0  0  0
   10.6494   13.9156   25.0148 O   0  0  0  0  0  0  0  0  0  0  0  0
   10.6304   13.2048   21.8579 H   0  0  0  0  0  0  0  0  0  0  0  0
   11.9944   15.0121   20.7042 C   0  0  0  0  0  0  0  0  0  0  0  0
   11.9832   14.7169   22.1812 C   0  0  0  0  0  0  0  0  0  0  0  0
 16 17  1  0  0  0
 17 12  1  0  0  0
 12 13  1  0  0  0
 13 14  2  0  0  0
 13  1  1  0  0  0
  1  2  2  0  0  0
  2  3  1  0  0  0
  3  4  2  0  0  0
  4  5  1  0  0  0
  5  6  2  0  0  0
  6  7  1  0  0  0
  7  8  1  0  0  0
  8  9  2  0  0  0
  9 10  1  0  0  0
 10 11  2  0  0  0
  6  1  1  0  0  0
 11  7  1  0  0  0
 12 15  1  0  0  0
M  END
> <minimizedAffinity>
-5.45811

> <minimizedRMSD>
0.63583

$$$$
P26877


 22 24  0  0  0  0  0  0  0  0999 V2000
   10.1516   14.3445   25.4230 O   0  0  0  0  0  0  0  0  0  0  0  0
   10.2620   13.6603   24.4867 C   0  0  0  0  0  0  0  0  0  0  0  0
   11.2756   13.7060   23.3352 N   0  0  0  0  0  0  0  0  0  0  0  0
   11.2055   12.9614   22.6950 H   0  0  0  0  0  0  0  0  0  0  0  0
    9.3100   12.4948   24.3983 C   0  0  0  0  0  0  0  0  0  0  0  0
    9.6020   11.2929   23.7530 C   0  0  0  0  0  0  0  0  0  0  0  0
    8.7898   10.2095   24.0081 C   0  0  0  0  0  0  0  0  0  0  0  0
    7.7300   10.2522   24.8390 N   0  0  0  0  0  0  0  0  0  0  0  0
    7.4055   11.4414   25.4094 C   0  0  0  0  0  0  0  0  0  0  0  0
    8.1473   12.5866   25.1793 C   0  0  0  0  0  0  0  0  0  0  0  0
    6.3275   11.4726   26.3505 N   0  0  0  0  0  0  0  0  0  0  0  0
    5.5386   12.5377   26.7355 C   0  0  0  0  0  0  0  0  0  0  0  0
    4.6893   12.0772   27.7189 C   0  0  0  0  0  0  0  0  0  0  0  0
    5.0540   10.7421   27.9081 C   0  0  0  0  0  0  0  0  0  0  0  0
    6.0137   10.3686   27.0696 N   0  0  0  0  0  0  0  0  0  0  0  0
   12.3088   14.6571   23.0395 C   0  0  0  0  0  0  0  0  0  0  0  0
   12.2699   15.1094   21.5913 C   0  0  0  0  0  0  0  0  0  0  0  0
   10.9008   14.9151   20.9780 C   0  0  0  0  0  0  0  0  0  0  0  0
   10.8427   15.2652   19.5149 C   0  0  0  0  0  0  0  0  0  0  0  0
    9.4649   15.8545   19.3559 C   0  0  0  0  0  0  0  0  0  0  0  0
    8.8485   15.8702   20.7322 C   0  0  0  0  0  0  0  0  0  0  0  0
    9.9576   15.7639   21.6132 O   0  0  0  0  0  0  0  0  0  0  0  0
  1  2  2  0  0  0
  2  3  1  0  0  0
  3 16  1  0  0  0
 16 17  1  0  0  0
 18 17  1  0  0  0
 18 19  1  0  0  0
 19 20  1  0  0  0
 20 21  1  0  0  0
 21 22  1  0  0  0
  2  5  1  0  0  0
  5  6  2  0  0  0
  6  7  1  0  0  0
  7  8  2  0  0  0
  8  9  1  0  0  0
  9 11  1  0  0  0
 11 12  1  0  0  0
 12 13  2  0  0  0
 13 14  1  0  0  0
 14 15  2  0  0  0
  9 10  2  0  0  0
 22 18  1  0  0  0
 10  5  1  0  0  0
 15 11  1  0  0  0
  3  4  1  0  0  0
M  END
> <minimizedAffinity>
-6.72173

> <minimizedRMSD>
0.55532

$$$$
P26878


 22 24  0  0  0  0  0  0  0  0999 V2000
    9.9533   13.9625   25.3124 O   0  0  0  0  0  0  0  0  0  0  0  0
   10.0138   13.3870   24.3063 C   0  0  0  0  0  0  0  0  0  0  0  0
   10.9491   13.5717   23.1167 N   0  0  0  0  0  0  0  0  0  0  0  0
   10.7468   13.0002   22.3410 H   0  0  0  0  0  0  0  0  0  0  0  0
    9.1105   12.2014   24.1483 C   0  0  0  0  0  0  0  0  0  0  0  0
    9.6289   11.0547   23.5249 C   0  0  0  0  0  0  0  0  0  0  0  0
    9.0305    9.8376   23.7776 C   0  0  0  0  0  0  0  0  0  0  0  0
    7.9794    9.6911   24.6071 N   0  0  0  0  0  0  0  0  0  0  0  0
    7.4616   10.8125   25.1620 C   0  0  0  0  0  0  0  0  0  0  0  0
    7.9516   12.0878   24.9253 C   0  0  0  0  0  0  0  0  0  0  0  0
    7.2339   13.1874   25.4539 N   0  0  0  0  0  0  0  0  0  0  0  0
    6.5871   14.1977   24.7724 C   0  0  0  0  0  0  0  0  0  0  0  0
    5.9868   15.0040   25.7087 C   0  0  0  0  0  0  0  0  0  0  0  0
    6.2879   14.3971   26.9346 C   0  0  0  0  0  0  0  0  0  0  0  0
    7.0249   13.2932   26.7959 N   0  0  0  0  0  0  0  0  0  0  0  0
   12.0666   14.4353   22.9444 C   0  0  0  0  0  0  0  0  0  0  0  0
   12.3182   14.8652   21.5317 C   0  0  0  0  0  0  0  0  0  0  0  0
   11.2022   15.5756   20.8241 C   0  0  0  0  0  0  0  0  0  0  0  0
   10.7253   15.0850   19.4991 C   0  0  0  0  0  0  0  0  0  0  0  0
    9.4691   15.8965   19.3575 C   0  0  0  0  0  0  0  0  0  0  0  0
    8.8774   15.7343   20.7305 C   0  0  0  0  0  0  0  0  0  0  0  0
   10.0189   15.6836   21.6026 O   0  0  0  0  0  0  0  0  0  0  0  0
  1  2  2  0  0  0
  2  3  1  0  0  0
  3 16  1  0  0  0
 16 17  1  0  0  0
 18 17  1  0  0  0
 18 19  1  0  0  0
 19 20  1  0  0  0
 20 21  1  0  0  0
 21 22  1  0  0  0
  2  5  1  0  0  0
  5  6  2  0  0  0
  6  7  1  0  0  0
  7  8  2  0  0  0
  8  9  1  0  0  0
  9 10  2  0  0  0
 10 11  1  0  0  0
 11 12  1  0  0  0
 12 13  2  0  0  0
 13 14  1  0  0  0
 14 15  2  0  0  0
 22 18  1  0  0  0
 10  5  1  0  0  0
 15 11  1  0  0  0
  3  4  1  0  0  0
M  END
> <minimizedAffinity>
-6.47822

> <minimizedRMSD>
0.64613

$$$$
P26880


 22 24  0  0  0  0  0  0  0  0999 V2000
    9.6913   14.2053   25.4464 O   0  0  0  0  0  0  0  0  0  0  0  0
    9.8372   13.4368   24.5833 C   0  0  0  0  0  0  0  0  0  0  0  0
   10.8501   13.4160   23.4304 N   0  0  0  0  0  0  0  0  0  0  0  0
   10.7184   12.6893   22.7794 H   0  0  0  0  0  0  0  0  0  0  0  0
    8.9053   12.2542   24.5767 C   0  0  0  0  0  0  0  0  0  0  0  0
    9.2052   11.0385   23.9637 C   0  0  0  0  0  0  0  0  0  0  0  0
    8.4398    9.9451   24.2975 C   0  0  0  0  0  0  0  0  0  0  0  0
    7.4174    9.9903   25.1729 N   0  0  0  0  0  0  0  0  0  0  0  0
    7.0782   11.1911   25.7080 C   0  0  0  0  0  0  0  0  0  0  0  0
    7.7739   12.3478   25.4024 C   0  0  0  0  0  0  0  0  0  0  0  0
    6.0395   11.2244   26.6918 N   0  0  0  0  0  0  0  0  0  0  0  0
    5.1135   12.2151   26.9462 C   0  0  0  0  0  0  0  0  0  0  0  0
    4.3738   11.8061   28.0354 C   0  0  0  0  0  0  0  0  0  0  0  0
    4.9413   10.5876   28.4150 C   0  0  0  0  0  0  0  0  0  0  0  0
    5.9197   10.2216   27.5950 N   0  0  0  0  0  0  0  0  0  0  0  0
   11.9558   14.2814   23.1472 C   0  0  0  0  0  0  0  0  0  0  0  0
   12.1441   14.4604   21.6515 C   0  0  0  0  0  0  0  0  0  0  0  0
   11.0519   15.2881   21.0136 C   0  0  0  0  0  0  0  0  0  0  0  0
   10.9347   15.1734   19.4968 C   0  0  0  0  0  0  0  0  0  0  0  0
    9.6701   15.9489   19.3269 C   0  0  0  0  0  0  0  0  0  0  0  0
    8.9235   15.8948   20.4351 C   0  0  0  0  0  0  0  0  0  0  0  0
    9.6107   15.0680   21.4545 C   0  0  0  0  0  0  0  0  0  0  0  0
  1  2  2  0  0  0
  2  3  1  0  0  0
  3 16  1  0  0  0
 16 17  1  0  0  0
 17 18  1  0  0  0
 18 19  1  0  0  0
 19 20  1  0  0  0
 20 21  2  0  0  0
 21 22  1  0  0  0
  2  5  1  0  0  0
  5  6  2  0  0  0
  6  7  1  0  0  0
  7  8  2  0  0  0
  8  9  1  0  0  0
  9 11  1  0  0  0
 11 12  1  0  0  0
 12 13  2  0  0  0
 13 14  1  0  0  0
 14 15  2  0  0  0
  9 10  2  0  0  0
 22 18  1  0  0  0
 10  5  1  0  0  0
 15 11  1  0  0  0
  3  4  1  0  0  0
M  END
> <minimizedAffinity>
-6.77167

> <minimizedRMSD>
0.28499

$$$$
P26881


 21 22  0  0  0  0  0  0  0  0999 V2000
    9.9887   14.1632   25.2829 O   0  0  0  0  0  0  0  0  0  0  0  0
   10.0898   13.4893   24.3388 C   0  0  0  0  0  0  0  0  0  0  0  0
   11.0390   13.5944   23.1399 N   0  0  0  0  0  0  0  0  0  0  0  0
   10.8740   12.9380   22.4250 H   0  0  0  0  0  0  0  0  0  0  0  0
    9.1952   12.2830   24.2931 C   0  0  0  0  0  0  0  0  0  0  0  0
    9.5251   11.1100   23.6132 C   0  0  0  0  0  0  0  0  0  0  0  0
    8.8020    9.9641   23.9030 C   0  0  0  0  0  0  0  0  0  0  0  0
    7.7853    9.9072   24.7986 N   0  0  0  0  0  0  0  0  0  0  0  0
    7.4540   11.0807   25.4037 C   0  0  0  0  0  0  0  0  0  0  0  0
    8.1044   12.2773   25.1680 C   0  0  0  0  0  0  0  0  0  0  0  0
    6.4160   11.0127   26.4747 C   0  0  0  0  0  0  0  0  0  0  0  0
    6.2424   11.8692   27.3239 O   0  0  0  0  0  0  0  0  0  0  0  0
    5.7297    9.8484   26.4513 O   0  0  0  0  0  0  0  0  0  0  0  0
    5.8976    9.2190   25.7778 H   0  0  0  0  0  0  0  0  0  0  0  0
   12.1335   14.4971   22.8887 C   0  0  0  0  0  0  0  0  0  0  0  0
   12.2996   14.9357   21.4435 C   0  0  0  0  0  0  0  0  0  0  0  0
   11.0714   15.2792   20.7726 N   0  0  0  0  0  0  0  0  0  0  0  0
   10.8285   15.1595   19.4398 C   0  0  0  0  0  0  0  0  0  0  0  0
    9.5680   15.6664   19.2611 C   0  0  0  0  0  0  0  0  0  0  0  0
    9.1422   16.0881   20.5248 C   0  0  0  0  0  0  0  0  0  0  0  0
   10.0406   15.7858   21.4545 N   0  0  0  0  0  0  0  0  0  0  0  0
  1  2  2  0  0  0
  2  3  1  0  0  0
  3 15  1  0  0  0
 15 16  1  0  0  0
 16 17  1  0  0  0
 17 18  1  0  0  0
 18 19  2  0  0  0
 19 20  1  0  0  0
 20 21  2  0  0  0
  2  5  1  0  0  0
  5  6  2  0  0  0
  6  7  1  0  0  0
  7  8  2  0  0  0
  8  9  1  0  0  0
  9 11  1  0  0  0
 11 12  2  0  0  0
 11 13  1  0  0  0
  9 10  2  0  0  0
 21 17  1  0  0  0
 10  5  1  0  0  0
  3  4  1  0  0  0
 13 14  1  0  0  0
M  END
> <minimizedAffinity>
-6.67070

> <minimizedRMSD>
0.42180

$$$$
P26889


 23 25  0  0  0  0  0  0  0  0999 V2000
    9.9373   13.7678   25.2533 O   0  0  0  0  0  0  0  0  0  0  0  0
    9.9924   13.1914   24.2443 C   0  0  0  0  0  0  0  0  0  0  0  0
   10.9354   13.3688   23.0488 N   0  0  0  0  0  0  0  0  0  0  0  0
   10.7278   12.8001   22.2724 H   0  0  0  0  0  0  0  0  0  0  0  0
    9.0700   12.0149   24.0970 C   0  0  0  0  0  0  0  0  0  0  0  0
    9.5743   10.8633   23.4796 C   0  0  0  0  0  0  0  0  0  0  0  0
    8.9704    9.6514   23.7403 C   0  0  0  0  0  0  0  0  0  0  0  0
    7.9167    9.5072   24.5661 N   0  0  0  0  0  0  0  0  0  0  0  0
    7.4054   10.6317   25.1146 C   0  0  0  0  0  0  0  0  0  0  0  0
    7.9136   11.9024   24.8815 C   0  0  0  0  0  0  0  0  0  0  0  0
    7.2062   12.9981   25.4218 N   0  0  0  0  0  0  0  0  0  0  0  0
    6.5996   14.0351   24.7493 C   0  0  0  0  0  0  0  0  0  0  0  0
    5.9375   14.7907   25.6865 C   0  0  0  0  0  0  0  0  0  0  0  0
    6.1931   14.1468   26.9033 C   0  0  0  0  0  0  0  0  0  0  0  0
    6.9561   13.0624   26.7580 N   0  0  0  0  0  0  0  0  0  0  0  0
   12.0726   14.2296   22.8766 C   0  0  0  0  0  0  0  0  0  0  0  0
   12.2888   14.7089   21.4442 C   0  0  0  0  0  0  0  0  0  0  0  0
   11.0592   15.1967   20.7689 C   0  0  0  0  0  0  0  0  0  0  0  0
   10.8742   15.1663   19.4093 C   0  0  0  0  0  0  0  0  0  0  0  0
    9.7233   15.7443   18.8930 C   0  0  0  0  0  0  0  0  0  0  0  0
    8.8751   16.4640   19.7017 C   0  0  0  0  0  0  0  0  0  0  0  0
    8.9833   16.4064   21.0101 N   0  0  0  0  0  0  0  0  0  0  0  0
   10.0497   15.7609   21.5016 C   0  0  0  0  0  0  0  0  0  0  0  0
  1  2  2  0  0  0
  2  3  1  0  0  0
  3 16  1  0  0  0
 16 17  1  0  0  0
 17 18  1  0  0  0
 18 19  2  0  0  0
 19 20  1  0  0  0
 20 21  2  0  0  0
 21 22  1  0  0  0
 22 23  2  0  0  0
  2  5  1  0  0  0
  5  6  2  0  0  0
  6  7  1  0  0  0
  7  8  2  0  0  0
  8  9  1  0  0  0
  9 10  2  0  0  0
 10 11  1  0  0  0
 11 12  1  0  0  0
 12 13  2  0  0  0
 13 14  1  0  0  0
 14 15  2  0  0  0
 23 18  1  0  0  0
 10  5  1  0  0  0
 15 11  1  0  0  0
  3  4  1  0  0  0
M  END
> <minimizedAffinity>
-5.53114

> <minimizedRMSD>
0.47671

$$$$
P26890


 23 25  0  0  0  0  0  0  0  0999 V2000
    9.7312   14.2159   25.4551 O   0  0  0  0  0  0  0  0  0  0  0  0
    9.8130   13.4835   24.5526 C   0  0  0  0  0  0  0  0  0  0  0  0
   10.8140   13.4461   23.3882 N   0  0  0  0  0  0  0  0  0  0  0  0
   10.6235   12.7655   22.7028 H   0  0  0  0  0  0  0  0  0  0  0  0
    8.8643   12.3192   24.5471 C   0  0  0  0  0  0  0  0  0  0  0  0
    9.2009   11.1021   23.9559 C   0  0  0  0  0  0  0  0  0  0  0  0
    8.4648    9.9938   24.3008 C   0  0  0  0  0  0  0  0  0  0  0  0
    7.4417   10.0251   25.1752 N   0  0  0  0  0  0  0  0  0  0  0  0
    7.0782   11.2220   25.7067 C   0  0  0  0  0  0  0  0  0  0  0  0
    7.7436   12.3957   25.3886 C   0  0  0  0  0  0  0  0  0  0  0  0
    6.0404   11.2245   26.6934 N   0  0  0  0  0  0  0  0  0  0  0  0
    5.0984   12.1944   26.9666 C   0  0  0  0  0  0  0  0  0  0  0  0
    4.3619   11.7497   28.0444 C   0  0  0  0  0  0  0  0  0  0  0  0
    4.9473   10.5324   28.3997 C   0  0  0  0  0  0  0  0  0  0  0  0
    5.9332   10.1990   27.5746 N   0  0  0  0  0  0  0  0  0  0  0  0
   11.9823   14.2419   23.1364 C   0  0  0  0  0  0  0  0  0  0  0  0
   12.2064   14.5555   21.6569 C   0  0  0  0  0  0  0  0  0  0  0  0
   11.0153   15.0801   20.9379 C   0  0  0  0  0  0  0  0  0  0  0  0
   10.9337   15.1740   19.5693 C   0  0  0  0  0  0  0  0  0  0  0  0
    9.8176   15.7921   19.0234 C   0  0  0  0  0  0  0  0  0  0  0  0
    8.9062   16.4338   19.8266 C   0  0  0  0  0  0  0  0  0  0  0  0
    8.9046   16.2388   21.1251 N   0  0  0  0  0  0  0  0  0  0  0  0
    9.9375   15.5548   21.6365 C   0  0  0  0  0  0  0  0  0  0  0  0
  1  2  2  0  0  0
  2  3  1  0  0  0
  3 16  1  0  0  0
 16 17  1  0  0  0
 17 18  1  0  0  0
 18 19  2  0  0  0
 19 20  1  0  0  0
 20 21  2  0  0  0
 21 22  1  0  0  0
 22 23  2  0  0  0
  2  5  1  0  0  0
  5  6  2  0  0  0
  6  7  1  0  0  0
  7  8  2  0  0  0
  8  9  1  0  0  0
  9 11  1  0  0  0
 11 12  1  0  0  0
 12 13  2  0  0  0
 13 14  1  0  0  0
 14 15  2  0  0  0
  9 10  2  0  0  0
 23 18  1  0  0  0
 10  5  1  0  0  0
 15 11  1  0  0  0
  3  4  1  0  0  0
M  END
> <minimizedAffinity>
-5.90198

> <minimizedRMSD>
0.39589

$$$$
P26891


 22 24  0  0  0  0  0  0  0  0999 V2000
    9.9652   13.9881   25.3736 O   0  0  0  0  0  0  0  0  0  0  0  0
   10.0858   13.4054   24.3748 C   0  0  0  0  0  0  0  0  0  0  0  0
   11.1180   13.5552   23.2596 N   0  0  0  0  0  0  0  0  0  0  0  0
   11.0512   12.8830   22.5435 H   0  0  0  0  0  0  0  0  0  0  0  0
    9.1616   12.2453   24.1433 C   0  0  0  0  0  0  0  0  0  0  0  0
    9.6662   11.1120   23.4979 C   0  0  0  0  0  0  0  0  0  0  0  0
    9.0641    9.8964   23.7497 C   0  0  0  0  0  0  0  0  0  0  0  0
    8.0238    9.7422   24.5972 N   0  0  0  0  0  0  0  0  0  0  0  0
    7.4949   10.8642   25.1382 C   0  0  0  0  0  0  0  0  0  0  0  0
    7.9881   12.1337   24.8955 C   0  0  0  0  0  0  0  0  0  0  0  0
    7.2518   13.2698   25.2945 N   0  0  0  0  0  0  0  0  0  0  0  0
    6.8209   13.6072   26.5610 C   0  0  0  0  0  0  0  0  0  0  0  0
    5.9908   14.6952   26.4268 C   0  0  0  0  0  0  0  0  0  0  0  0
    5.9548   14.9422   25.0479 C   0  0  0  0  0  0  0  0  0  0  0  0
    6.7241   14.0986   24.3605 N   0  0  0  0  0  0  0  0  0  0  0  0
   12.1696   14.5159   23.0849 C   0  0  0  0  0  0  0  0  0  0  0  0
   12.3587   14.9642   21.6544 C   0  0  0  0  0  0  0  0  0  0  0  0
   11.0967   15.2186   20.9315 C   0  0  0  0  0  0  0  0  0  0  0  0
   10.9320   15.1027   19.5712 C   0  0  0  0  0  0  0  0  0  0  0  0
    9.3990   15.6886   19.1533 S   0  0  0  0  0  0  0  0  0  0  0  0
    9.0324   15.9780   20.7862 C   0  0  0  0  0  0  0  0  0  0  0  0
    9.9878   15.6564   21.6216 N   0  0  0  0  0  0  0  0  0  0  0  0
  1  2  2  0  0  0
  2  3  1  0  0  0
  3 16  1  0  0  0
 16 17  1  0  0  0
 17 18  1  0  0  0
 18 19  2  0  0  0
 19 20  1  0  0  0
 20 21  1  0  0  0
 21 22  2  0  0  0
  2  5  1  0  0  0
  5  6  2  0  0  0
  6  7  1  0  0  0
  7  8  2  0  0  0
  8  9  1  0  0  0
  9 10  2  0  0  0
 10 11  1  0  0  0
 11 12  1  0  0  0
 12 13  2  0  0  0
 13 14  1  0  0  0
 14 15  2  0  0  0
 22 18  1  0  0  0
 10  5  1  0  0  0
 15 11  1  0  0  0
  3  4  1  0  0  0
M  END
> <minimizedAffinity>
-5.85032

> <minimizedRMSD>
0.54460

$$$$
P26893


 22 24  0  0  0  0  0  0  0  0999 V2000
   10.0732   14.3448   25.4824 O   0  0  0  0  0  0  0  0  0  0  0  0
   10.1591   13.6888   24.5233 C   0  0  0  0  0  0  0  0  0  0  0  0
   11.1659   13.7446   23.3672 N   0  0  0  0  0  0  0  0  0  0  0  0
   11.0715   13.0236   22.7036 H   0  0  0  0  0  0  0  0  0  0  0  0
    9.2060   12.5304   24.4181 C   0  0  0  0  0  0  0  0  0  0  0  0
    9.5396   11.3375   23.7769 C   0  0  0  0  0  0  0  0  0  0  0  0
    8.7676   10.2276   24.0381 C   0  0  0  0  0  0  0  0  0  0  0  0
    7.7105   10.2384   24.8736 N   0  0  0  0  0  0  0  0  0  0  0  0
    7.3483   11.4180   25.4439 C   0  0  0  0  0  0  0  0  0  0  0  0
    8.0493   12.5895   25.2092 C   0  0  0  0  0  0  0  0  0  0  0  0
    6.2745   11.4063   26.3907 N   0  0  0  0  0  0  0  0  0  0  0  0
    5.4480   12.4389   26.7848 C   0  0  0  0  0  0  0  0  0  0  0  0
    4.6230   11.9425   27.7718 C   0  0  0  0  0  0  0  0  0  0  0  0
    5.0388   10.6215   27.9531 C   0  0  0  0  0  0  0  0  0  0  0  0
    6.0042   10.2866   27.1048 N   0  0  0  0  0  0  0  0  0  0  0  0
   12.2251   14.6780   23.0949 C   0  0  0  0  0  0  0  0  0  0  0  0
   12.3958   14.9888   21.6173 C   0  0  0  0  0  0  0  0  0  0  0  0
   11.0884   15.2246   20.9492 C   0  0  0  0  0  0  0  0  0  0  0  0
   10.0134   15.6908   21.5454 N   0  0  0  0  0  0  0  0  0  0  0  0
    9.1194   16.1191   20.6021 C   0  0  0  0  0  0  0  0  0  0  0  0
    9.4979   15.8893   19.3060 C   0  0  0  0  0  0  0  0  0  0  0  0
   10.9145   14.9405   19.2698 S   0  0  0  0  0  0  0  0  0  0  0  0
  1  2  2  0  0  0
  2  3  1  0  0  0
  3 16  1  0  0  0
 16 17  1  0  0  0
 17 18  1  0  0  0
 18 19  2  0  0  0
 19 20  1  0  0  0
 20 21  2  0  0  0
 21 22  1  0  0  0
  2  5  1  0  0  0
  5  6  2  0  0  0
  6  7  1  0  0  0
  7  8  2  0  0  0
  8  9  1  0  0  0
  9 11  1  0  0  0
 11 12  1  0  0  0
 12 13  2  0  0  0
 13 14  1  0  0  0
 14 15  2  0  0  0
  9 10  2  0  0  0
 22 18  1  0  0  0
 10  5  1  0  0  0
 15 11  1  0  0  0
  3  4  1  0  0  0
M  END
> <minimizedAffinity>
-6.29542

> <minimizedRMSD>
0.46343

$$$$
P26906


 23 25  0  0  0  0  0  0  0  0999 V2000
   10.1414   14.2293   25.3514 O   0  0  0  0  0  0  0  0  0  0  0  0
   10.1346   13.6097   24.3649 C   0  0  0  0  0  0  0  0  0  0  0  0
   11.0312   13.7061   23.1237 N   0  0  0  0  0  0  0  0  0  0  0  0
   10.8713   13.0110   22.4450 H   0  0  0  0  0  0  0  0  0  0  0  0
    9.1659   12.4606   24.3129 C   0  0  0  0  0  0  0  0  0  0  0  0
    9.4874   11.2406   23.7164 C   0  0  0  0  0  0  0  0  0  0  0  0
    8.7274   10.1397   24.0467 C   0  0  0  0  0  0  0  0  0  0  0  0
    7.6960   10.1866   24.9126 N   0  0  0  0  0  0  0  0  0  0  0  0
    7.3400   11.3898   25.4327 C   0  0  0  0  0  0  0  0  0  0  0  0
    8.0268   12.5534   25.1280 C   0  0  0  0  0  0  0  0  0  0  0  0
    6.2857   11.4125   26.3891 N   0  0  0  0  0  0  0  0  0  0  0  0
    5.4650   12.4428   26.7750 C   0  0  0  0  0  0  0  0  0  0  0  0
    4.6368   12.0391   27.7184 N   0  0  0  0  0  0  0  0  0  0  0  0
    5.0224   10.7549   27.9324 C   0  0  0  0  0  0  0  0  0  0  0  0
    5.9964   10.3259   27.1402 N   0  0  0  0  0  0  0  0  0  0  0  0
   12.0672   14.6463   22.7898 C   0  0  0  0  0  0  0  0  0  0  0  0
   12.2492   14.8570   21.2996 C   0  0  0  0  0  0  0  0  0  0  0  0
   11.0365   15.2770   20.5656 C   0  0  0  0  0  0  0  0  0  0  0  0
   10.8180   15.1482   19.1839 C   0  0  0  0  0  0  0  0  0  0  0  0
    9.6948   15.7485   18.7795 N   0  0  0  0  0  0  0  0  0  0  0  0
    9.2428   16.3380   19.9026 N   0  0  0  0  0  0  0  0  0  0  0  0
    9.9110   15.9223   21.0095 C   0  0  0  0  0  0  0  0  0  0  0  0
    8.5106   16.9959   19.9195 H   0  0  0  0  0  0  0  0  0  0  0  0
  1  2  2  0  0  0
  2  3  1  0  0  0
  3 16  1  0  0  0
 16 17  1  0  0  0
 17 18  1  0  0  0
 18 19  1  0  0  0
 19 20  2  0  0  0
 20 21  1  0  0  0
 21 22  1  0  0  0
  2  5  1  0  0  0
  5  6  2  0  0  0
  6  7  1  0  0  0
  7  8  2  0  0  0
  8  9  1  0  0  0
  9 11  1  0  0  0
 11 12  1  0  0  0
 12 13  2  0  0  0
 13 14  1  0  0  0
 14 15  2  0  0  0
  9 10  2  0  0  0
 22 18  2  0  0  0
 10  5  1  0  0  0
 15 11  1  0  0  0
  3  4  1  0  0  0
 21 23  1  0  0  0
M  END
> <minimizedAffinity>
-6.91501

> <minimizedRMSD>
0.37182

$$$$
P26912


 21 22  0  0  0  0  0  0  0  0999 V2000
   10.0100   13.7209   24.5475 C   0  0  0  0  0  0  0  0  0  0  0  0
   10.0541   14.3873   25.5006 O   0  0  0  0  0  0  0  0  0  0  0  0
   10.8812   13.7295   23.2902 N   0  0  0  0  0  0  0  0  0  0  0  0
   10.6882   13.0065   22.6504 H   0  0  0  0  0  0  0  0  0  0  0  0
    7.1473   11.6778   25.7536 C   0  0  0  0  0  0  0  0  0  0  0  0
    7.9184   12.7740   25.4180 C   0  0  0  0  0  0  0  0  0  0  0  0
    9.0129   12.6038   24.5693 C   0  0  0  0  0  0  0  0  0  0  0  0
    9.2363   11.3583   23.9885 C   0  0  0  0  0  0  0  0  0  0  0  0
    8.4065   10.3188   24.3724 C   0  0  0  0  0  0  0  0  0  0  0  0
    7.3849   10.4456   25.2561 N   0  0  0  0  0  0  0  0  0  0  0  0
    5.8257   11.9502   26.9235 S   0  0  0  0  0  0  0  0  0  0  0  0
    4.4545   10.0769   28.3964 C   0  0  0  0  0  0  0  0  0  0  0  0
    5.8299   10.4019   27.8480 C   0  0  0  0  0  0  0  0  0  0  0  0
   11.9354   14.6209   22.8903 C   0  0  0  0  0  0  0  0  0  0  0  0
   12.1432   14.7241   21.3945 C   0  0  0  0  0  0  0  0  0  0  0  0
   10.9811   15.2097   20.6212 C   0  0  0  0  0  0  0  0  0  0  0  0
   10.8361   15.1441   19.2263 C   0  0  0  0  0  0  0  0  0  0  0  0
    9.7481   15.7826   18.7872 N   0  0  0  0  0  0  0  0  0  0  0  0
    9.2456   16.3350   19.9091 N   0  0  0  0  0  0  0  0  0  0  0  0
    9.8496   15.8660   21.0323 C   0  0  0  0  0  0  0  0  0  0  0  0
    8.5223   17.0029   19.9143 H   0  0  0  0  0  0  0  0  0  0  0  0
 12 13  1  0  0  0
 13 11  1  0  0  0
 11  5  1  0  0  0
  5  6  2  0  0  0
  6  7  1  0  0  0
  7  1  1  0  0  0
  1  2  2  0  0  0
  1  3  1  0  0  0
  3 14  1  0  0  0
 14 15  1  0  0  0
 15 16  1  0  0  0
 16 17  1  0  0  0
 17 18  2  0  0  0
 18 19  1  0  0  0
 19 20  1  0  0  0
  7  8  2  0  0  0
  8  9  1  0  0  0
  9 10  2  0  0  0
 10  5  1  0  0  0
 20 16  2  0  0  0
  3  4  1  0  0  0
 19 21  1  0  0  0
M  END
> <minimizedAffinity>
-6.13592

> <minimizedRMSD>
0.30799

$$$$
P26924


 23 25  0  0  0  0  0  0  0  0999 V2000
   10.2204   14.2872   25.4067 O   0  0  0  0  0  0  0  0  0  0  0  0
   10.2449   13.6466   24.4344 C   0  0  0  0  0  0  0  0  0  0  0  0
   11.1778   13.7170   23.2226 N   0  0  0  0  0  0  0  0  0  0  0  0
   11.0398   13.0070   22.5547 H   0  0  0  0  0  0  0  0  0  0  0  0
    9.2731   12.5073   24.3585 C   0  0  0  0  0  0  0  0  0  0  0  0
    9.5750   11.3007   23.7293 C   0  0  0  0  0  0  0  0  0  0  0  0
    8.7815   10.2112   24.0200 C   0  0  0  0  0  0  0  0  0  0  0  0
    7.7297   10.2545   24.8688 N   0  0  0  0  0  0  0  0  0  0  0  0
    7.4034   11.4540   25.4142 C   0  0  0  0  0  0  0  0  0  0  0  0
    8.1295   12.6035   25.1600 C   0  0  0  0  0  0  0  0  0  0  0  0
    6.3309   11.4871   26.3448 N   0  0  0  0  0  0  0  0  0  0  0  0
    5.5228   12.5355   26.7161 C   0  0  0  0  0  0  0  0  0  0  0  0
    4.6606   12.0268   27.6644 C   0  0  0  0  0  0  0  0  0  0  0  0
    4.9294   10.7181   27.9208 N   0  0  0  0  0  0  0  0  0  0  0  0
    5.9146   10.4240   27.1046 C   0  0  0  0  0  0  0  0  0  0  0  0
   12.2217   14.6498   22.9010 C   0  0  0  0  0  0  0  0  0  0  0  0
   12.2806   15.0194   21.4281 C   0  0  0  0  0  0  0  0  0  0  0  0
   10.9538   15.2709   20.7966 C   0  0  0  0  0  0  0  0  0  0  0  0
   10.6603   15.2167   19.4198 C   0  0  0  0  0  0  0  0  0  0  0  0
    9.4674   15.8799   19.3068 C   0  0  0  0  0  0  0  0  0  0  0  0
    9.0438   16.1416   20.5724 N   0  0  0  0  0  0  0  0  0  0  0  0
    9.8892   15.6757   21.4990 N   0  0  0  0  0  0  0  0  0  0  0  0
    8.2094   16.6199   20.7829 H   0  0  0  0  0  0  0  0  0  0  0  0
  1  2  2  0  0  0
  2  3  1  0  0  0
  3 16  1  0  0  0
 16 17  1  0  0  0
 17 18  1  0  0  0
 18 19  1  0  0  0
 19 20  2  0  0  0
 20 21  1  0  0  0
 21 22  1  0  0  0
  2  5  1  0  0  0
  5  6  2  0  0  0
  6  7  1  0  0  0
  7  8  2  0  0  0
  8  9  1  0  0  0
  9 11  1  0  0  0
 11 12  1  0  0  0
 12 13  2  0  0  0
 13 14  1  0  0  0
 14 15  2  0  0  0
  9 10  2  0  0  0
 22 18  2  0  0  0
 10  5  1  0  0  0
 15 11  1  0  0  0
  3  4  1  0  0  0
 21 23  1  0  0  0
M  END
> <minimizedAffinity>
-6.84743

> <minimizedRMSD>
0.44443

$$$$
P27400


 17 18  0  0  0  0  0  0  0  0999 V2000
    7.4610   12.6130   26.0166 C   0  0  0  0  0  0  0  0  0  0  0  0
    6.9831   11.3194   26.2844 C   0  0  0  0  0  0  0  0  0  0  0  0
    6.0375   11.1175   27.2900 C   0  0  0  0  0  0  0  0  0  0  0  0
    5.6317    9.8881   27.6136 F   0  0  0  0  0  0  0  0  0  0  0  0
    5.5047   12.1670   28.0079 C   0  0  0  0  0  0  0  0  0  0  0  0
    5.9739   13.4442   27.7654 C   0  0  0  0  0  0  0  0  0  0  0  0
    6.9870   13.6825   26.8131 C   0  0  0  0  0  0  0  0  0  0  0  0
    7.6269   14.9541   26.7736 N   0  0  0  0  0  0  0  0  0  0  0  0
    6.6803   16.0614   26.5128 C   0  0  0  0  0  0  0  0  0  0  0  0
    6.4947   16.9893   27.7119 C   0  0  0  0  0  0  0  0  0  0  0  0
    7.7848   17.4593   28.3826 C   0  0  0  0  0  0  0  0  0  0  0  0
    8.9543   16.5108   28.1760 C   0  0  0  0  0  0  0  0  0  0  0  0
    8.4933   15.0841   27.9639 C   0  0  0  0  0  0  0  0  0  0  0  0
    8.5200   12.8169   24.9513 C   0  0  0  0  0  0  0  0  0  0  0  0
    7.9992   13.4115   23.6432 C   0  0  0  0  0  0  0  0  0  0  0  0
    9.9079   14.3746   22.5049 O   0  0  0  0  0  0  0  0  0  0  0  0
    9.0829   13.4665   22.5916 C   0  0  0  0  0  0  0  0  0  0  0  0
 16 17  2  0  0  0
 17 15  1  0  0  0
 15 14  1  0  0  0
 14  1  1  0  0  0
  1  2  2  0  0  0
  2  3  1  0  0  0
  3  4  1  0  0  0
  3  5  2  0  0  0
  5  6  1  0  0  0
  6  7  2  0  0  0
  7  8  1  0  0  0
  8  9  1  0  0  0
  9 10  1  0  0  0
 10 11  1  0  0  0
 11 12  1  0  0  0
 12 13  1  0  0  0
  7  1  1  0  0  0
 13  8  1  0  0  0
M  END
> <minimizedAffinity>
-4.16418

> <minimizedRMSD>
0.62993

$$$$
P28690


 14 15  0  0  0  0  0  0  0  0999 V2000
    8.1262   12.3603   25.7784 N   0  0  0  0  0  0  0  0  0  0  0  0
    8.7645   13.6594   25.5020 C   0  0  0  0  0  0  0  0  0  0  0  0
   10.1920   13.4255   25.0409 C   0  0  0  0  0  0  0  0  0  0  0  0
   10.0623   12.0583   24.4956 C   0  0  0  0  0  0  0  0  0  0  0  0
   10.9542   11.3746   23.6927 C   0  0  0  0  0  0  0  0  0  0  0  0
   10.6283   10.0786   23.3347 C   0  0  0  0  0  0  0  0  0  0  0  0
   11.7340    9.1206   22.1919 Br  0  0  0  0  0  0  0  0  0  0  0  0
    9.4686    9.4731   23.7863 C   0  0  0  0  0  0  0  0  0  0  0  0
    8.5982   10.1846   24.6017 C   0  0  0  0  0  0  0  0  0  0  0  0
    8.8708   11.4903   24.9484 C   0  0  0  0  0  0  0  0  0  0  0  0
    6.0528   13.7489   25.7709 C   0  0  0  0  0  0  0  0  0  0  0  0
    6.6562   12.3445   25.6850 C   0  0  0  0  0  0  0  0  0  0  0  0
    6.0509   11.5844   26.8356 C   0  0  0  0  0  0  0  0  0  0  0  0
    5.7571   10.3960   26.7872 O   0  0  0  0  0  0  0  0  0  0  0  0
 12 11  1  0  0  0
 12 13  1  0  0  0
 13 14  2  0  0  0
 12  1  1  0  0  0
  1  2  1  0  0  0
  2  3  1  0  0  0
  3  4  1  0  0  0
  4  5  2  0  0  0
  5  6  1  0  0  0
  6  7  1  0  0  0
  6  8  2  0  0  0
  8  9  1  0  0  0
  9 10  2  0  0  0
 10  1  1  0  0  0
 10  4  1  0  0  0
M  END
> <minimizedAffinity>
-4.44949

> <minimizedRMSD>
0.51344

$$$$
P30306


 23 25  0  0  0  0  0  0  0  0999 V2000
   18.2066   -1.8046   19.9312 S   0  0  0  0  0  0  0  0  0  0  0  0
   17.0915   -0.8950   19.8766 O   0  0  0  0  0  0  0  0  0  0  0  0
   19.4320   -1.5744   19.2126 O   0  0  0  0  0  0  0  0  0  0  0  0
   18.7178   -1.9503   21.5923 C   0  0  0  0  0  0  0  0  0  0  0  0
   18.8022   -3.0602   22.4130 C   0  0  0  0  0  0  0  0  0  0  0  0
   19.3656   -2.7694   23.6262 N   0  0  0  0  0  0  0  0  0  0  0  0
   19.6277   -1.4830   23.5668 C   0  0  0  0  0  0  0  0  0  0  0  0
   20.2119   -0.6190   24.5246 C   0  0  0  0  0  0  0  0  0  0  0  0
   20.2859    0.6925   24.2692 C   0  0  0  0  0  0  0  0  0  0  0  0
   19.7588    1.1451   22.9635 C   0  0  0  0  0  0  0  0  0  0  0  0
   19.2454    0.3954   22.0416 N   0  0  0  0  0  0  0  0  0  0  0  0
   19.2060   -0.9254   22.3638 N   0  0  0  0  0  0  0  0  0  0  0  0
   17.6048   -3.3078   19.4644 N   0  0  0  0  0  0  0  0  0  0  0  0
   18.3840   -3.9654   19.4374 H   0  0  0  0  0  0  0  0  0  0  0  0
   16.9330   -3.3351   18.1382 C   0  0  0  0  0  0  0  0  0  0  0  0
   16.3350   -5.7592   17.8248 C   0  0  0  0  0  0  0  0  0  0  0  0
   15.4176   -6.7215   17.4210 C   0  0  0  0  0  0  0  0  0  0  0  0
   14.1323   -6.4543   17.0978 N   0  0  0  0  0  0  0  0  0  0  0  0
   13.7562   -5.1610   17.1887 C   0  0  0  0  0  0  0  0  0  0  0  0
   14.6036   -4.1270   17.5593 C   0  0  0  0  0  0  0  0  0  0  0  0
   15.9376   -4.4262   17.8748 C   0  0  0  0  0  0  0  0  0  0  0  0
   17.7505   -7.1019   19.0543 C   0  0  0  0  0  0  0  0  0  0  0  0
   17.6347   -6.0819   18.0688 O   0  0  0  0  0  0  0  0  0  0  0  0
 22 23  1  0  0  0
 23 16  1  0  0  0
 16 17  2  0  0  0
 17 18  1  0  0  0
 18 19  2  0  0  0
 19 20  1  0  0  0
 20 21  2  0  0  0
 21 15  1  0  0  0
 15 13  1  0  0  0
 13  1  1  0  0  0
  1  2  2  0  0  0
  1  3  2  0  0  0
  1  4  1  0  0  0
  4  5  2  0  0  0
  5  6  1  0  0  0
  6  7  2  0  0  0
  7  8  1  0  0  0
  8  9  2  0  0  0
  9 10  1  0  0  0
 10 11  2  0  0  0
 11 12  1  0  0  0
 21 16  1  0  0  0
 12  4  1  0  0  0
 12  7  1  0  0  0
 13 14  1  0  0  0
M  END
> <minimizedAffinity>
-5.25708

> <minimizedRMSD>
0.74779

$$$$
P31267


 22 24  0  0  0  0  0  0  0  0999 V2000
    6.2784   11.7628   26.1363 C   0  0  0  0  0  0  0  0  0  0  0  0
    6.7633   10.6659   25.4381 C   0  0  0  0  0  0  0  0  0  0  0  0
    7.9681   10.6959   24.7213 C   0  0  0  0  0  0  0  0  0  0  0  0
    8.6770   11.8868   24.7376 C   0  0  0  0  0  0  0  0  0  0  0  0
    9.9057   12.2133   24.2094 N   0  0  0  0  0  0  0  0  0  0  0  0
   10.2687   13.4577   24.6716 C   0  0  0  0  0  0  0  0  0  0  0  0
    9.1416   14.0398   25.2093 C   0  0  0  0  0  0  0  0  0  0  0  0
    8.1716   13.0269   25.3625 C   0  0  0  0  0  0  0  0  0  0  0  0
    6.9441   12.9776   26.0489 C   0  0  0  0  0  0  0  0  0  0  0  0
   10.4368   11.6498   23.6015 H   0  0  0  0  0  0  0  0  0  0  0  0
    5.1036   10.6321   27.8128 C   0  0  0  0  0  0  0  0  0  0  0  0
    5.1466   11.7315   26.9060 O   0  0  0  0  0  0  0  0  0  0  0  0
   11.6528   13.9796   24.6159 C   0  0  0  0  0  0  0  0  0  0  0  0
   12.4003   13.5259   23.4736 N   0  0  0  0  0  0  0  0  0  0  0  0
   12.5373   12.5172   23.5379 H   0  0  0  0  0  0  0  0  0  0  0  0
   11.6751   13.8370   22.2530 C   0  0  0  0  0  0  0  0  0  0  0  0
   12.2681   15.0490   21.5513 C   0  0  0  0  0  0  0  0  0  0  0  0
   11.2738   15.4829   20.5775 C   0  0  0  0  0  0  0  0  0  0  0  0
   10.8966   15.0590   19.3396 C   0  0  0  0  0  0  0  0  0  0  0  0
    9.7727   15.7311   18.9680 N   0  0  0  0  0  0  0  0  0  0  0  0
    9.5683   16.5932   19.9372 C   0  0  0  0  0  0  0  0  0  0  0  0
   10.4435   16.4960   20.9594 O   0  0  0  0  0  0  0  0  0  0  0  0
 11 12  1  0  0  0
 12  1  1  0  0  0
  1  2  2  0  0  0
  2  3  1  0  0  0
  3  4  2  0  0  0
  4  5  1  0  0  0
  5  6  1  0  0  0
  6 13  1  0  0  0
 13 14  1  0  0  0
 14 16  1  0  0  0
 16 17  1  0  0  0
 17 18  1  0  0  0
 18 19  2  0  0  0
 19 20  1  0  0  0
 20 21  2  0  0  0
 21 22  1  0  0  0
  6  7  2  0  0  0
  7  8  1  0  0  0
  8  9  2  0  0  0
  9  1  1  0  0  0
  8  4  1  0  0  0
 22 18  1  0  0  0
  5 10  1  0  0  0
 14 15  1  0  0  0
M  END
> <minimizedAffinity>
-6.28112

> <minimizedRMSD>
0.65372

$$$$
P31487


 24 26  0  0  0  0  0  0  0  0999 V2000
   28.3112   12.1657    3.0925 N   0  0  0  0  0  0  0  0  0  0  0  0
   29.7291   11.5440    3.1883 C   0  0  0  0  0  0  0  0  0  0  0  0
   30.1382   10.5308    2.7824 O   0  0  0  0  0  0  0  0  0  0  0  0
   28.1963   13.0088    3.5878 H   0  0  0  0  0  0  0  0  0  0  0  0
   23.7264   13.3741    1.8062 C   0  0  0  0  0  0  0  0  0  0  0  0
   23.1584   13.2953    0.6182 N   0  0  0  0  0  0  0  0  0  0  0  0
   23.9448   12.5106   -0.1891 N   0  0  0  0  0  0  0  0  0  0  0  0
   24.9784   12.1221    0.5206 C   0  0  0  0  0  0  0  0  0  0  0  0
   24.8698   12.6237    1.7870 N   0  0  0  0  0  0  0  0  0  0  0  0
   25.8802   12.5114    2.8121 C   0  0  0  0  0  0  0  0  0  0  0  0
   27.1240   11.7052    2.3898 C   0  0  0  0  0  0  0  0  0  0  0  0
   27.3807   11.7420    0.8742 C   0  0  0  0  0  0  0  0  0  0  0  0
   26.1417   11.3166    0.0930 C   0  0  0  0  0  0  0  0  0  0  0  0
   21.7758   14.5209    2.8225 C   0  0  0  0  0  0  0  0  0  0  0  0
   23.2458   14.1600    2.9742 C   0  0  0  0  0  0  0  0  0  0  0  0
   30.5818   12.5691    3.9421 C   0  0  0  0  0  0  0  0  0  0  0  0
   31.0177   12.0570    5.3184 C   0  0  0  0  0  0  0  0  0  0  0  0
   31.6048   13.1317    6.2566 C   0  0  0  0  0  0  0  0  0  0  0  0
   33.0726   13.4564    5.9610 C   0  0  0  0  0  0  0  0  0  0  0  0
   33.6274   14.4616    6.9796 C   0  0  0  0  0  0  0  0  0  0  0  0
   32.5484   15.3573    7.5967 C   0  0  0  0  0  0  0  0  0  0  0  0
   31.5054   15.6317    6.6223 N   0  0  0  0  0  0  0  0  0  0  0  0
   30.7541   14.4220    6.2798 C   0  0  0  0  0  0  0  0  0  0  0  0
   31.9338   16.0058    5.7756 H   0  0  0  0  0  0  0  0  0  0  0  0
 14 15  1  0  0  0
 15  5  1  0  0  0
  5  6  2  0  0  0
  6  7  1  0  0  0
  7  8  2  0  0  0
  8  9  1  0  0  0
  9 10  1  0  0  0
 10 11  1  0  0  0
 11  1  1  0  0  0
  1  2  1  0  0  0
  2  3  2  0  0  0
  2 16  1  0  0  0
 16 17  1  0  0  0
 18 17  1  0  0  0
 18 19  1  0  0  0
 19 20  1  0  0  0
 20 21  1  0  0  0
 21 22  1  0  0  0
 22 23  1  0  0  0
 11 12  1  0  0  0
 12 13  1  0  0  0
  9  5  1  0  0  0
 23 18  1  0  0  0
 13  8  1  0  0  0
  1  4  1  0  0  0
 22 24  1  0  0  0
M  END
> <minimizedAffinity>
-4.65258

> <minimizedRMSD>
1.57077

$$$$
P31494


 19 20  0  0  0  0  0  0  0  0999 V2000
   22.6721   17.5051    2.7208 C   0  0  0  0  0  0  0  0  0  0  0  0
   22.7502   18.2797    3.8549 N   0  0  0  0  0  0  0  0  0  0  0  0
   23.9183   17.9899    4.4972 C   0  0  0  0  0  0  0  0  0  0  0  0
   24.6189   17.1085    3.8223 N   0  0  0  0  0  0  0  0  0  0  0  0
   23.8560   16.7814    2.7211 C   0  0  0  0  0  0  0  0  0  0  0  0
   22.0766   18.9331    4.1527 H   0  0  0  0  0  0  0  0  0  0  0  0
   24.3078   18.6052    5.8545 C   0  0  0  0  0  0  0  0  0  0  0  0
   25.5675   19.0070    6.2187 C   0  0  0  0  0  0  0  0  0  0  0  0
   25.5075   19.4265    7.5153 O   0  0  0  0  0  0  0  0  0  0  0  0
   24.1933   19.2647    7.8461 C   0  0  0  0  0  0  0  0  0  0  0  0
   23.4238   18.8001    6.8854 N   0  0  0  0  0  0  0  0  0  0  0  0
   21.5704   17.4785    1.8008 C   0  0  0  0  0  0  0  0  0  0  0  0
   21.5560   17.9791    0.6846 O   0  0  0  0  0  0  0  0  0  0  0  0
   20.2892   15.5209    1.7618 C   0  0  0  0  0  0  0  0  0  0  0  0
   20.5310   16.7945    2.3605 O   0  0  0  0  0  0  0  0  0  0  0  0
   24.2989   15.7205    1.7596 C   0  0  0  0  0  0  0  0  0  0  0  0
   24.6274   14.3591    2.4018 C   0  0  0  0  0  0  0  0  0  0  0  0
   23.3651   13.7442    3.0072 C   0  0  0  0  0  0  0  0  0  0  0  0
   25.2515   13.3966    1.3895 C   0  0  0  0  0  0  0  0  0  0  0  0
 14 15  1  0  0  0
 15 12  1  0  0  0
 12 13  2  0  0  0
 12  1  1  0  0  0
  1  2  1  0  0  0
  2  3  1  0  0  0
  3  7  1  0  0  0
  7  8  2  0  0  0
  8  9  1  0  0  0
  9 10  1  0  0  0
 10 11  2  0  0  0
  3  4  2  0  0  0
  4  5  1  0  0  0
  5 16  1  0  0  0
 16 17  1  0  0  0
 17 18  1  0  0  0
 17 19  1  0  0  0
  5  1  2  0  0  0
 11  7  1  0  0  0
  2  6  1  0  0  0
M  END
> <minimizedAffinity>
-3.17560

> <minimizedRMSD>
2.68274

$$$$
P31842


 20 22  0  0  0  0  0  0  0  0999 V2000
   11.0424   13.6823   22.5590 C   0  0  0  0  0  0  0  0  0  0  0  0
   11.9586   14.2579   21.4992 C   0  0  0  0  0  0  0  0  0  0  0  0
   11.8562   13.8531   20.1665 C   0  0  0  0  0  0  0  0  0  0  0  0
   12.3524   14.6197   19.1086 C   0  0  0  0  0  0  0  0  0  0  0  0
   13.0021   15.8228   19.3904 C   0  0  0  0  0  0  0  0  0  0  0  0
   13.5563   16.8617   18.5986 C   0  0  0  0  0  0  0  0  0  0  0  0
   14.0684   17.8052   19.4576 C   0  0  0  0  0  0  0  0  0  0  0  0
   13.8816   17.3471   20.7320 N   0  0  0  0  0  0  0  0  0  0  0  0
   13.1894   16.1671   20.7249 C   0  0  0  0  0  0  0  0  0  0  0  0
   12.7162   15.3944   21.7923 C   0  0  0  0  0  0  0  0  0  0  0  0
   14.2013   17.8037   21.5435 H   0  0  0  0  0  0  0  0  0  0  0  0
   11.5086   12.4447   23.1876 N   0  0  0  0  0  0  0  0  0  0  0  0
   12.4630   12.2403   23.3169 H   0  0  0  0  0  0  0  0  0  0  0  0
    9.6345   13.0752   25.4528 C   0  0  0  0  0  0  0  0  0  0  0  0
    9.5576   11.8471   24.6242 C   0  0  0  0  0  0  0  0  0  0  0  0
    8.5660   10.9178   24.9357 C   0  0  0  0  0  0  0  0  0  0  0  0
    8.4638    9.7052   24.3688 N   0  0  0  0  0  0  0  0  0  0  0  0
    9.4017    9.4133   23.4435 C   0  0  0  0  0  0  0  0  0  0  0  0
   10.3946   10.2900   23.0304 C   0  0  0  0  0  0  0  0  0  0  0  0
   10.4711   11.5619   23.5964 C   0  0  0  0  0  0  0  0  0  0  0  0
 14 15  1  0  0  0
 15 16  2  0  0  0
 16 17  1  0  0  0
 17 18  2  0  0  0
 18 19  1  0  0  0
 19 20  2  0  0  0
 20 12  1  0  0  0
 12  1  1  0  0  0
  1  2  1  0  0  0
  2  3  2  0  0  0
  3  4  1  0  0  0
  4  5  2  0  0  0
  5  6  1  0  0  0
  6  7  2  0  0  0
  7  8  1  0  0  0
  8  9  1  0  0  0
  9 10  2  0  0  0
 20 15  1  0  0  0
 10  2  1  0  0  0
  9  5  1  0  0  0
 12 13  1  0  0  0
  8 11  1  0  0  0
M  END
> <minimizedAffinity>
-6.85387

> <minimizedRMSD>
0.59438

$$$$
P31846


 27 30  0  0  0  0  0  0  0  0999 V2000
   10.8962   14.9257   22.7847 O   0  0  0  0  0  0  0  0  0  0  0  0
   11.1390   13.9972   22.1698 C   0  0  0  0  0  0  0  0  0  0  0  0
   10.6888   12.5192   22.3604 N   0  0  0  0  0  0  0  0  0  0  0  0
   12.0555   13.8274   20.9330 N   0  0  0  0  0  0  0  0  0  0  0  0
   11.0978   11.8785   21.7348 H   0  0  0  0  0  0  0  0  0  0  0  0
   12.1629   12.8993   20.6226 H   0  0  0  0  0  0  0  0  0  0  0  0
    9.8031   11.9602   23.2710 C   0  0  0  0  0  0  0  0  0  0  0  0
    9.8378   10.5867   23.4862 C   0  0  0  0  0  0  0  0  0  0  0  0
    8.9324    9.9852   24.3671 C   0  0  0  0  0  0  0  0  0  0  0  0
    7.9493   10.7684   25.0015 C   0  0  0  0  0  0  0  0  0  0  0  0
    6.8643   10.5015   25.8833 C   0  0  0  0  0  0  0  0  0  0  0  0
    6.1565   11.6633   26.0636 C   0  0  0  0  0  0  0  0  0  0  0  0
    6.7559   12.6113   25.2902 N   0  0  0  0  0  0  0  0  0  0  0  0
    7.9071   12.1277   24.7180 C   0  0  0  0  0  0  0  0  0  0  0  0
    8.8485   12.7650   23.9029 C   0  0  0  0  0  0  0  0  0  0  0  0
    6.4093   13.5233   25.1587 H   0  0  0  0  0  0  0  0  0  0  0  0
   12.7759   14.8089   20.1641 C   0  0  0  0  0  0  0  0  0  0  0  0
   12.2333   15.0681   18.7736 C   0  0  0  0  0  0  0  0  0  0  0  0
   13.1456   16.2025   18.3156 C   0  0  0  0  0  0  0  0  0  0  0  0
   13.2929   17.0271   19.5166 N   0  0  0  0  0  0  0  0  0  0  0  0
   13.1303   16.1912   20.7280 C   0  0  0  0  0  0  0  0  0  0  0  0
   14.2694   18.0054   19.5031 C   0  0  0  0  0  0  0  0  0  0  0  0
   14.6992   18.5865   20.6965 C   0  0  0  0  0  0  0  0  0  0  0  0
   15.6717   19.5856   20.6841 C   0  0  0  0  0  0  0  0  0  0  0  0
   16.1920   20.0033   19.4702 C   0  0  0  0  0  0  0  0  0  0  0  0
   15.7036   19.4060   18.3247 C   0  0  0  0  0  0  0  0  0  0  0  0
   14.7631   18.4377   18.3217 N   0  0  0  0  0  0  0  0  0  0  0  0
  1  2  2  0  0  0
  2  3  1  0  0  0
  3  7  1  0  0  0
  7  8  2  0  0  0
  8  9  1  0  0  0
  9 10  2  0  0  0
 10 11  1  0  0  0
 11 12  2  0  0  0
 12 13  1  0  0  0
 13 14  1  0  0  0
 14 15  2  0  0  0
  2  4  1  0  0  0
 17  4  1  0  0  0
 17 18  1  0  0  0
 18 19  1  0  0  0
 19 20  1  0  0  0
 20 22  1  0  0  0
 22 23  2  0  0  0
 23 24  1  0  0  0
 24 25  2  0  0  0
 25 26  1  0  0  0
 26 27  2  0  0  0
 20 21  1  0  0  0
 15  7  1  0  0  0
 21 17  1  0  0  0
 14 10  1  0  0  0
 27 22  1  0  0  0
  3  5  1  0  0  0
 13 16  1  0  0  0
  4  6  1  0  0  0
M  END
> <minimizedAffinity>
-7.96457

> <minimizedRMSD>
0.47623

$$$$
P33051


 20 22  0  0  0  0  0  0  0  0999 V2000
    5.6164   12.7737   28.5167 O   0  0  0  0  0  0  0  0  0  0  0  0
    5.0070   11.9441   27.9564 C   0  0  0  0  0  0  0  0  0  0  0  0
    5.3493   11.1362   26.6629 N   0  0  0  0  0  0  0  0  0  0  0  0
    4.6314   10.5418   26.3458 H   0  0  0  0  0  0  0  0  0  0  0  0
    6.5040   11.1209   25.8869 C   0  0  0  0  0  0  0  0  0  0  0  0
    7.2123   12.2977   25.6178 C   0  0  0  0  0  0  0  0  0  0  0  0
    8.3924   12.2575   24.8746 C   0  0  0  0  0  0  0  0  0  0  0  0
    8.8626   11.0256   24.4547 C   0  0  0  0  0  0  0  0  0  0  0  0
    8.1691    9.8467   24.7251 C   0  0  0  0  0  0  0  0  0  0  0  0
    6.9662    9.8885   25.4069 C   0  0  0  0  0  0  0  0  0  0  0  0
    8.9029    8.6598   24.1872 C   0  0  0  0  0  0  0  0  0  0  0  0
    8.4108    8.1880   23.0233 F   0  0  0  0  0  0  0  0  0  0  0  0
   10.2935    9.2434   23.9286 C   0  0  0  0  0  0  0  0  0  0  0  0
   10.0900   10.7419   23.6602 C   0  0  0  0  0  0  0  0  0  0  0  0
    3.6034   11.5353   28.4060 C   0  0  0  0  0  0  0  0  0  0  0  0
    3.4817   10.0749   28.6346 C   0  0  0  0  0  0  0  0  0  0  0  0
    4.1493    9.2484   29.5082 C   0  0  0  0  0  0  0  0  0  0  0  0
    3.7155    7.9730   29.2977 O   0  0  0  0  0  0  0  0  0  0  0  0
    2.7914    8.0970   28.3056 C   0  0  0  0  0  0  0  0  0  0  0  0
    2.6138    9.3245   27.8686 N   0  0  0  0  0  0  0  0  0  0  0  0
  1  2  2  0  0  0
  2 15  1  0  0  0
 15 16  1  0  0  0
 16 17  2  0  0  0
 17 18  1  0  0  0
 18 19  1  0  0  0
 19 20  2  0  0  0
  2  3  1  0  0  0
  3  5  1  0  0  0
  5  6  2  0  0  0
  6  7  1  0  0  0
  7  8  2  0  0  0
  8  9  1  0  0  0
  9 10  2  0  0  0
  9 11  1  0  0  0
 11 12  1  0  0  0
 11 13  1  0  0  0
 13 14  1  0  0  0
 20 16  1  0  0  0
 10  5  1  0  0  0
 14  8  1  0  0  0
  3  4  1  0  0  0
M  END
> <minimizedAffinity>
-5.01277

> <minimizedRMSD>
0.71255

$$$$
P33919


 24 26  0  0  0  0  0  0  0  0999 V2000
    7.6643   12.0922   25.8813 C   0  0  0  0  0  0  0  0  0  0  0  0
    8.7529   12.4053   25.0474 C   0  0  0  0  0  0  0  0  0  0  0  0
    9.3733   11.4377   24.2577 C   0  0  0  0  0  0  0  0  0  0  0  0
    8.8003   10.1634   24.2593 C   0  0  0  0  0  0  0  0  0  0  0  0
    9.3490    9.1508   23.5204 O   0  0  0  0  0  0  0  0  0  0  0  0
    7.7330    9.8376   25.0872 C   0  0  0  0  0  0  0  0  0  0  0  0
    7.1760   10.7851   25.9487 C   0  0  0  0  0  0  0  0  0  0  0  0
   10.0706    9.3258   22.9488 H   0  0  0  0  0  0  0  0  0  0  0  0
    6.2211   10.3669   26.9583 C   0  0  0  0  0  0  0  0  0  0  0  0
    6.4035   10.1252   28.2428 N   0  0  0  0  0  0  0  0  0  0  0  0
    5.1741    9.7680   28.7530 N   0  0  0  0  0  0  0  0  0  0  0  0
    4.3426    9.7970   27.7385 C   0  0  0  0  0  0  0  0  0  0  0  0
    4.9188   10.2072   26.5700 O   0  0  0  0  0  0  0  0  0  0  0  0
    6.4504   14.1217   26.0293 C   0  0  0  0  0  0  0  0  0  0  0  0
    7.2527   13.1334   26.6662 O   0  0  0  0  0  0  0  0  0  0  0  0
   10.5820   11.6079   23.5793 N   0  0  0  0  0  0  0  0  0  0  0  0
   10.8710   10.9213   22.9356 H   0  0  0  0  0  0  0  0  0  0  0  0
   11.4290   12.7777   23.7994 C   0  0  0  0  0  0  0  0  0  0  0  0
   11.2743   13.7517   22.7157 C   0  0  0  0  0  0  0  0  0  0  0  0
   12.1081   14.1702   21.7203 C   0  0  0  0  0  0  0  0  0  0  0  0
   11.2111   14.6042   20.7371 C   0  0  0  0  0  0  0  0  0  0  0  0
   11.4691   14.7579   19.3110 C   0  0  0  0  0  0  0  0  0  0  0  0
    9.9781   14.7643   21.2146 N   0  0  0  0  0  0  0  0  0  0  0  0
   10.0144   14.1877   22.4688 O   0  0  0  0  0  0  0  0  0  0  0  0
 14 15  1  0  0  0
 15  1  1  0  0  0
  1  2  2  0  0  0
  2  3  1  0  0  0
  3 16  1  0  0  0
 16 18  1  0  0  0
 18 19  1  0  0  0
 19 20  2  0  0  0
 20 21  1  0  0  0
 21 22  1  0  0  0
 21 23  2  0  0  0
 23 24  1  0  0  0
  3  4  2  0  0  0
  4  5  1  0  0  0
  4  6  1  0  0  0
  6  7  2  0  0  0
  7  9  1  0  0  0
  9 10  2  0  0  0
 10 11  1  0  0  0
 11 12  2  0  0  0
 12 13  1  0  0  0
  7  1  1  0  0  0
 13  9  1  0  0  0
 24 19  1  0  0  0
 16 17  1  0  0  0
  5  8  1  0  0  0
M  END
> <minimizedAffinity>
-6.88531

> <minimizedRMSD>
0.51465

$$$$
P34113


 21 22  0  0  0  0  0  0  0  0999 V2000
    8.4927   10.9114   24.3134 C   0  0  0  0  0  0  0  0  0  0  0  0
    7.6605   10.2438   25.2138 C   0  0  0  0  0  0  0  0  0  0  0  0
    6.8635   10.9553   26.1057 C   0  0  0  0  0  0  0  0  0  0  0  0
    6.8835   12.3519   26.1010 C   0  0  0  0  0  0  0  0  0  0  0  0
    7.7393   13.0336   25.2280 C   0  0  0  0  0  0  0  0  0  0  0  0
    8.5464   12.3177   24.3310 C   0  0  0  0  0  0  0  0  0  0  0  0
    9.3494   13.0628   23.3636 C   0  0  0  0  0  0  0  0  0  0  0  0
    8.7865   13.5460   22.2468 N   0  0  0  0  0  0  0  0  0  0  0  0
    9.8181   14.0746   21.5597 N   0  0  0  0  0  0  0  0  0  0  0  0
   10.9924   14.0508   22.2348 C   0  0  0  0  0  0  0  0  0  0  0  0
   10.7203   13.4386   23.4349 C   0  0  0  0  0  0  0  0  0  0  0  0
    9.7269   14.4437   20.6516 H   0  0  0  0  0  0  0  0  0  0  0  0
   11.6743   13.2127   24.5152 C   0  0  0  0  0  0  0  0  0  0  0  0
   11.3542   14.1410   25.6035 N   0  0  0  0  0  0  0  0  0  0  0  0
   11.4159   15.1000   25.2616 H   0  0  0  0  0  0  0  0  0  0  0  0
   12.0161   14.0094   26.3684 H   0  0  0  0  0  0  0  0  0  0  0  0
    5.9180   13.0562   26.9843 C   0  0  0  0  0  0  0  0  0  0  0  0
    5.6865   14.5312   26.7815 C   0  0  0  0  0  0  0  0  0  0  0  0
    5.3349   12.4334   27.8713 O   0  0  0  0  0  0  0  0  0  0  0  0
    9.3137    8.8403   23.4556 C   0  0  0  0  0  0  0  0  0  0  0  0
    9.2751   10.2646   23.3986 O   0  0  0  0  0  0  0  0  0  0  0  0
 20 21  1  0  0  0
 21  1  1  0  0  0
  1  2  2  0  0  0
  2  3  1  0  0  0
  3  4  2  0  0  0
  4 17  1  0  0  0
 17 18  1  0  0  0
 17 19  2  0  0  0
  4  5  1  0  0  0
  5  6  2  0  0  0
  6  7  1  0  0  0
  7  8  2  0  0  0
  8  9  1  0  0  0
  9 10  1  0  0  0
 10 11  2  0  0  0
 11 13  1  0  0  0
 13 14  1  0  0  0
  6  1  1  0  0  0
 11  7  1  0  0  0
  9 12  1  0  0  0
 14 15  1  0  0  0
 14 16  1  0  0  0
M  END
> <minimizedAffinity>
-6.10400

> <minimizedRMSD>
0.45990

$$$$
P34116


 21 22  0  0  0  0  0  0  0  0999 V2000
    8.3311   11.0625   24.8494 C   0  0  0  0  0  0  0  0  0  0  0  0
    7.2689   10.5434   25.6070 C   0  0  0  0  0  0  0  0  0  0  0  0
    6.5156   11.3593   26.4478 C   0  0  0  0  0  0  0  0  0  0  0  0
    6.8019   12.7171   26.5274 C   0  0  0  0  0  0  0  0  0  0  0  0
    7.8473   13.2555   25.7748 C   0  0  0  0  0  0  0  0  0  0  0  0
    8.6122   12.4390   24.9307 C   0  0  0  0  0  0  0  0  0  0  0  0
    9.6737   13.0224   24.1099 C   0  0  0  0  0  0  0  0  0  0  0  0
   10.9671   12.8613   24.4398 N   0  0  0  0  0  0  0  0  0  0  0  0
   11.6386   13.4392   23.4324 N   0  0  0  0  0  0  0  0  0  0  0  0
   10.8394   13.9970   22.4883 C   0  0  0  0  0  0  0  0  0  0  0  0
   11.4008   14.6940   21.3118 C   0  0  0  0  0  0  0  0  0  0  0  0
    9.5433   13.6903   22.8586 C   0  0  0  0  0  0  0  0  0  0  0  0
   12.6217   13.4570   23.3826 H   0  0  0  0  0  0  0  0  0  0  0  0
    8.3130   13.9363   22.0687 C   0  0  0  0  0  0  0  0  0  0  0  0
    7.2281   14.3876   22.8596 O   0  0  0  0  0  0  0  0  0  0  0  0
    7.0002   13.7084   23.5136 H   0  0  0  0  0  0  0  0  0  0  0  0
    9.0308   10.2688   23.9089 N   0  0  0  0  0  0  0  0  0  0  0  0
    9.8099   10.6243   23.4232 H   0  0  0  0  0  0  0  0  0  0  0  0
    9.6710    8.2086   23.1281 C   0  0  0  0  0  0  0  0  0  0  0  0
    8.5808    8.9683   23.6934 N   0  0  0  0  0  0  0  0  0  0  0  0
    8.2899    8.5514   24.5777 H   0  0  0  0  0  0  0  0  0  0  0  0
 19 20  1  0  0  0
 20 17  1  0  0  0
 17  1  1  0  0  0
  1  2  2  0  0  0
  2  3  1  0  0  0
  3  4  2  0  0  0
  4  5  1  0  0  0
  5  6  2  0  0  0
  6  7  1  0  0  0
  7  8  2  0  0  0
  8  9  1  0  0  0
  9 10  1  0  0  0
 10 11  1  0  0  0
 10 12  2  0  0  0
 12 14  1  0  0  0
 14 15  1  0  0  0
  6  1  1  0  0  0
 12  7  1  0  0  0
 20 21  1  0  0  0
 17 18  1  0  0  0
  9 13  1  0  0  0
 15 16  1  0  0  0
M  END
> <minimizedAffinity>
-6.42654

> <minimizedRMSD>
0.27808

$$$$
P34239


 14 15  0  0  0  0  0  0  0  0999 V2000
    9.2471   11.2456   24.3267 C   0  0  0  0  0  0  0  0  0  0  0  0
    9.3007   12.5805   24.7080 C   0  0  0  0  0  0  0  0  0  0  0  0
    8.3287   13.1246   25.5525 C   0  0  0  0  0  0  0  0  0  0  0  0
    7.3234   12.2751   26.0407 C   0  0  0  0  0  0  0  0  0  0  0  0
    5.9760   12.6102   27.0577 S   0  0  0  0  0  0  0  0  0  0  0  0
    5.5207   10.9701   27.0228 C   0  0  0  0  0  0  0  0  0  0  0  0
    4.4548   10.5059   27.6982 N   0  0  0  0  0  0  0  0  0  0  0  0
    6.2749   10.1945   26.2950 N   0  0  0  0  0  0  0  0  0  0  0  0
    7.2837   10.9255   25.7045 C   0  0  0  0  0  0  0  0  0  0  0  0
    8.2469   10.4141   24.8226 C   0  0  0  0  0  0  0  0  0  0  0  0
    3.9079   11.1214   28.2380 H   0  0  0  0  0  0  0  0  0  0  0  0
    4.2212    9.5506   27.6529 H   0  0  0  0  0  0  0  0  0  0  0  0
   10.1907    9.4627   23.1118 C   0  0  0  0  0  0  0  0  0  0  0  0
   10.2229   10.8401   23.4670 O   0  0  0  0  0  0  0  0  0  0  0  0
 13 14  1  0  0  0
 14  1  1  0  0  0
  1  2  2  0  0  0
  2  3  1  0  0  0
  3  4  2  0  0  0
  4  5  1  0  0  0
  5  6  1  0  0  0
  6  7  1  0  0  0
  6  8  2  0  0  0
  8  9  1  0  0  0
  9 10  2  0  0  0
 10  1  1  0  0  0
  9  4  1  0  0  0
  7 11  1  0  0  0
  7 12  1  0  0  0
M  END
> <minimizedAffinity>
-4.26196

> <minimizedRMSD>
0.64428

$$$$
P34455


 19 20  0  0  0  0  0  0  0  0999 V2000
    8.3383   10.9307   24.5275 C   0  0  0  0  0  0  0  0  0  0  0  0
    7.3675   10.0857   25.0669 C   0  0  0  0  0  0  0  0  0  0  0  0
    6.3192   10.4228   25.8633 N   0  0  0  0  0  0  0  0  0  0  0  0
    6.2434   11.7451   26.1030 C   0  0  0  0  0  0  0  0  0  0  0  0
    5.0139   12.4390   27.0542 S   0  0  0  0  0  0  0  0  0  0  0  0
    5.7239   13.9840   26.8165 C   0  0  0  0  0  0  0  0  0  0  0  0
    5.1790   15.0988   27.3331 N   0  0  0  0  0  0  0  0  0  0  0  0
    6.8185   14.0049   26.0996 N   0  0  0  0  0  0  0  0  0  0  0  0
    7.1142   12.7263   25.6536 C   0  0  0  0  0  0  0  0  0  0  0  0
    8.1730   12.2932   24.8362 C   0  0  0  0  0  0  0  0  0  0  0  0
    4.3541   15.0414   27.8675 H   0  0  0  0  0  0  0  0  0  0  0  0
    5.6047   15.9727   27.1772 H   0  0  0  0  0  0  0  0  0  0  0  0
    9.5336    9.0909   23.3418 C   0  0  0  0  0  0  0  0  0  0  0  0
    9.3017   10.5059   23.6116 N   0  0  0  0  0  0  0  0  0  0  0  0
    9.8392   11.1790   23.1348 H   0  0  0  0  0  0  0  0  0  0  0  0
    9.1770   13.2771   24.4277 C   0  0  0  0  0  0  0  0  0  0  0  0
   10.3065   13.1846   24.8997 O   0  0  0  0  0  0  0  0  0  0  0  0
    8.8354   14.2513   23.5570 O   0  0  0  0  0  0  0  0  0  0  0  0
    8.1631   14.0207   22.3065 C   0  0  0  0  0  0  0  0  0  0  0  0
 13 14  1  0  0  0
 14  1  1  0  0  0
  1  2  2  0  0  0
  2  3  1  0  0  0
  3  4  2  0  0  0
  4  5  1  0  0  0
  5  6  1  0  0  0
  6  7  1  0  0  0
  6  8  2  0  0  0
  8  9  1  0  0  0
  9 10  2  0  0  0
 10 16  1  0  0  0
 16 17  2  0  0  0
 16 18  1  0  0  0
 18 19  1  0  0  0
 10  1  1  0  0  0
  9  4  1  0  0  0
 14 15  1  0  0  0
  7 11  1  0  0  0
  7 12  1  0  0  0
M  END
> <minimizedAffinity>
-4.92512

> <minimizedRMSD>
0.33386

$$$$
P34458


 16 16  0  0  0  0  0  0  0  0999 V2000
    8.1193   12.3324   24.9441 C   0  0  0  0  0  0  0  0  0  0  0  0
    8.8837   11.4194   24.2234 C   0  0  0  0  0  0  0  0  0  0  0  0
    8.5072   10.0979   24.2341 C   0  0  0  0  0  0  0  0  0  0  0  0
    9.3293    9.1393   23.4358 C   0  0  0  0  0  0  0  0  0  0  0  0
    7.4213    9.6587   24.9109 N   0  0  0  0  0  0  0  0  0  0  0  0
    6.7212   10.5829   25.6288 C   0  0  0  0  0  0  0  0  0  0  0  0
    7.0293   11.9419   25.7333 C   0  0  0  0  0  0  0  0  0  0  0  0
    6.3102   12.8551   26.5374 N   0  0  0  0  0  0  0  0  0  0  0  0
    4.8574   12.6869   26.5934 C   0  0  0  0  0  0  0  0  0  0  0  0
    6.9328   13.2411   27.7611 N   0  0  0  0  0  0  0  0  0  0  0  0
    7.9386   13.3311   27.6173 H   0  0  0  0  0  0  0  0  0  0  0  0
    6.7532   12.5324   28.4724 H   0  0  0  0  0  0  0  0  0  0  0  0
    8.4965   13.7356   24.7718 C   0  0  0  0  0  0  0  0  0  0  0  0
    9.1117   14.3772   25.6060 O   0  0  0  0  0  0  0  0  0  0  0  0
    7.0839   15.1262   23.5181 C   0  0  0  0  0  0  0  0  0  0  0  0
    8.0924   14.1179   23.5342 O   0  0  0  0  0  0  0  0  0  0  0  0
 15 16  1  0  0  0
 16 13  1  0  0  0
 13 14  2  0  0  0
 13  1  1  0  0  0
  1  2  2  0  0  0
  2  3  1  0  0  0
  3  4  1  0  0  0
  3  5  2  0  0  0
  5  6  1  0  0  0
  6  7  2  0  0  0
  7  8  1  0  0  0
  8  9  1  0  0  0
  8 10  1  0  0  0
  7  1  1  0  0  0
 10 11  1  0  0  0
 10 12  1  0  0  0
M  END
> <minimizedAffinity>
-4.55380

> <minimizedRMSD>
1.07923

$$$$
P34468


 14 14  0  0  0  0  0  0  0  0999 V2000
    6.5437   12.5007   26.4649 C   0  0  0  0  0  0  0  0  0  0  0  0
    7.5013   13.2848   25.8171 C   0  0  0  0  0  0  0  0  0  0  0  0
    8.3487   12.6975   24.8895 C   0  0  0  0  0  0  0  0  0  0  0  0
    8.2029   11.3473   24.6073 C   0  0  0  0  0  0  0  0  0  0  0  0
    7.2288   10.6297   25.2870 C   0  0  0  0  0  0  0  0  0  0  0  0
    6.4058   11.1722   26.2232 N   0  0  0  0  0  0  0  0  0  0  0  0
    5.5761   13.1679   27.4244 C   0  0  0  0  0  0  0  0  0  0  0  0
    5.0032   14.3889   26.8401 N   0  0  0  0  0  0  0  0  0  0  0  0
    4.6194   14.9643   27.5898 H   0  0  0  0  0  0  0  0  0  0  0  0
    4.0168   15.0581   24.7159 C   0  0  0  0  0  0  0  0  0  0  0  0
    3.9442   14.0904   25.8871 C   0  0  0  0  0  0  0  0  0  0  0  0
    9.0507   10.8663   23.5947 O   0  0  0  0  0  0  0  0  0  0  0  0
    9.5601    9.5789   23.5805 C   0  0  0  0  0  0  0  0  0  0  0  0
    8.9705    8.5512   23.3157 O   0  0  0  0  0  0  0  0  0  0  0  0
 10 11  1  0  0  0
 11  8  1  0  0  0
  8  7  1  0  0  0
  7  1  1  0  0  0
  1  2  2  0  0  0
  2  3  1  0  0  0
  3  4  2  0  0  0
  4 12  1  0  0  0
 12 13  1  0  0  0
 13 14  2  0  0  0
  4  5  1  0  0  0
  5  6  2  0  0  0
  6  1  1  0  0  0
  8  9  1  0  0  0
M  END
> <minimizedAffinity>
-3.75140

> <minimizedRMSD>
1.54962

$$$$
P34471


 13 13  0  0  0  0  0  0  0  0999 V2000
    7.5886   11.2441   25.0729 C   0  0  0  0  0  0  0  0  0  0  0  0
    6.7479   10.3785   25.7833 C   0  0  0  0  0  0  0  0  0  0  0  0
    5.8196   10.9156   26.6500 C   0  0  0  0  0  0  0  0  0  0  0  0
    5.6536   12.2366   26.8246 N   0  0  0  0  0  0  0  0  0  0  0  0
    6.4435   13.0543   26.0829 C   0  0  0  0  0  0  0  0  0  0  0  0
    7.4679   12.6324   25.2350 C   0  0  0  0  0  0  0  0  0  0  0  0
    8.1629   13.5548   24.4458 N   0  0  0  0  0  0  0  0  0  0  0  0
    8.0450   14.5203   24.5979 H   0  0  0  0  0  0  0  0  0  0  0  0
    8.7700   13.2385   23.7382 H   0  0  0  0  0  0  0  0  0  0  0  0
    8.6469   10.6901   24.1874 C   0  0  0  0  0  0  0  0  0  0  0  0
    9.6460   11.3100   23.8576 O   0  0  0  0  0  0  0  0  0  0  0  0
    9.4489    8.6661   23.3181 C   0  0  0  0  0  0  0  0  0  0  0  0
    8.3554    9.4122   23.8521 O   0  0  0  0  0  0  0  0  0  0  0  0
 12 13  1  0  0  0
 13 10  1  0  0  0
 10 11  2  0  0  0
 10  1  1  0  0  0
  1  2  2  0  0  0
  2  3  1  0  0  0
  3  4  2  0  0  0
  4  5  1  0  0  0
  5  6  2  0  0  0
  6  7  1  0  0  0
  6  1  1  0  0  0
  7  8  1  0  0  0
  7  9  1  0  0  0
M  END
> <minimizedAffinity>
-4.17803

> <minimizedRMSD>
0.15850

$$$$
P34950


 16 17  0  0  0  0  0  0  0  0999 V2000
   10.2109   13.9213   22.0075 O   0  0  0  0  0  0  0  0  0  0  0  0
    9.7338   13.2145   23.0660 C   0  0  0  0  0  0  0  0  0  0  0  0
    8.8468   13.8062   23.9632 C   0  0  0  0  0  0  0  0  0  0  0  0
    8.1723   13.0052   24.8793 C   0  0  0  0  0  0  0  0  0  0  0  0
    8.3860   11.6320   24.8654 C   0  0  0  0  0  0  0  0  0  0  0  0
    7.6927   10.8673   25.7103 F   0  0  0  0  0  0  0  0  0  0  0  0
    9.2823   11.0530   23.9778 C   0  0  0  0  0  0  0  0  0  0  0  0
    9.4552    9.7262   23.9520 F   0  0  0  0  0  0  0  0  0  0  0  0
    9.9716   11.8434   23.0793 C   0  0  0  0  0  0  0  0  0  0  0  0
   13.4904   16.7290   20.0788 C   0  0  0  0  0  0  0  0  0  0  0  0
   12.8145   15.8960   21.0359 N   0  0  0  0  0  0  0  0  0  0  0  0
   13.3901   15.5696   22.3086 C   0  0  0  0  0  0  0  0  0  0  0  0
   12.4672   14.4833   22.8102 C   0  0  0  0  0  0  0  0  0  0  0  0
   11.0892   14.9741   22.3563 C   0  0  0  0  0  0  0  0  0  0  0  0
   11.4337   15.7397   21.0725 C   0  0  0  0  0  0  0  0  0  0  0  0
   10.6526   16.1624   20.2332 O   0  0  0  0  0  0  0  0  0  0  0  0
 10 11  1  0  0  0
 11 12  1  0  0  0
 12 13  1  0  0  0
 13 14  1  0  0  0
 14  1  1  0  0  0
  1  2  1  0  0  0
  2  3  2  0  0  0
  3  4  1  0  0  0
  4  5  2  0  0  0
  5  6  1  0  0  0
  5  7  1  0  0  0
  7  8  1  0  0  0
  7  9  2  0  0  0
 14 15  1  0  0  0
 15 16  2  0  0  0
 15 11  1  0  0  0
  9  2  1  0  0  0
M  END
> <minimizedAffinity>
-6.66041

> <minimizedRMSD>
0.75391

$$$$
P35200


 20 21  0  0  0  0  0  0  0  0999 V2000
    8.8818   12.9518   25.1275 C   0  0  0  0  0  0  0  0  0  0  0  0
    8.7228   11.6171   24.6806 C   0  0  0  0  0  0  0  0  0  0  0  0
    7.7652   10.7962   25.2408 C   0  0  0  0  0  0  0  0  0  0  0  0
    6.9434   11.3669   26.1849 C   0  0  0  0  0  0  0  0  0  0  0  0
    7.0425   12.6796   26.6284 C   0  0  0  0  0  0  0  0  0  0  0  0
    8.0939   13.4626   26.1921 C   0  0  0  0  0  0  0  0  0  0  0  0
    5.9935   12.9641   27.6471 N   0  0  0  0  0  0  0  0  0  0  0  0
    5.0343   13.7958   27.1952 O   0  0  0  0  0  0  0  0  0  0  0  0
    5.3658   11.6282   27.7627 C   0  0  0  0  0  0  0  0  0  0  0  0
    5.9044   10.7360   26.9246 C   0  0  0  0  0  0  0  0  0  0  0  0
    6.2742   13.8423   27.9924 H   0  0  0  0  0  0  0  0  0  0  0  0
    8.4200   14.6280   26.8928 N   0  0  0  0  0  0  0  0  0  0  0  0
    8.5345   14.8888   28.4260 C   0  0  0  0  0  0  0  0  0  0  0  0
    8.7713   16.3630   28.6346 C   0  0  0  0  0  0  0  0  0  0  0  0
    8.4484   14.1480   29.3313 O   0  0  0  0  0  0  0  0  0  0  0  0
    8.6079   15.4108   26.3261 H   0  0  0  0  0  0  0  0  0  0  0  0
    9.9176   13.7853   24.4691 C   0  0  0  0  0  0  0  0  0  0  0  0
    9.7419   14.9964   24.3845 O   0  0  0  0  0  0  0  0  0  0  0  0
   11.9172   14.0404   22.9695 C   0  0  0  0  0  0  0  0  0  0  0  0
   11.1491   13.1102   23.8899 C   0  0  0  0  0  0  0  0  0  0  0  0
 19 20  1  0  0  0
 20 17  1  0  0  0
 17 18  2  0  0  0
 17  1  1  0  0  0
  1  2  2  0  0  0
  2  3  1  0  0  0
  3  4  2  0  0  0
  4  5  1  0  0  0
  5  6  2  0  0  0
  6 12  1  0  0  0
 12 13  1  0  0  0
 13 14  1  0  0  0
 13 15  2  0  0  0
  5  7  1  0  0  0
  7  8  1  0  0  0
  7  9  1  0  0  0
  9 10  2  0  0  0
  6  1  1  0  0  0
 10  4  1  0  0  0
 12 16  1  0  0  0
  7 11  1  0  0  0
M  CHG 1   7   1
M  CHG 1   8  -1
M  END
> <minimizedAffinity>
-4.53969

> <minimizedRMSD>
1.66377

$$$$
P36471


 14 14  0  0  0  0  0  0  0  0999 V2000
    9.3484   22.4247   27.0818 C   0  0  0  0  0  0  0  0  0  0  0  0
   10.5469   21.6637   27.6502 C   0  0  0  0  0  0  0  0  0  0  0  0
   11.8669   22.2286   27.1451 C   0  0  0  0  0  0  0  0  0  0  0  0
   11.8545   22.2634   25.6632 N   0  0  0  0  0  0  0  0  0  0  0  0
   10.7664   23.0955   25.1173 C   0  0  0  0  0  0  0  0  0  0  0  0
    9.4345   22.5181   25.5616 C   0  0  0  0  0  0  0  0  0  0  0  0
   13.3480   22.2936   24.8684 S   0  0  0  0  0  0  0  0  0  0  0  0
   14.0210   23.8545   25.3945 C   0  0  0  0  0  0  0  0  0  0  0  0
   13.0925   22.3949   23.4475 O   0  0  0  0  0  0  0  0  0  0  0  0
   14.1876   21.2530   25.4157 O   0  0  0  0  0  0  0  0  0  0  0  0
    8.1145   21.7536   27.3767 O   0  0  0  0  0  0  0  0  0  0  0  0
    7.3569   22.3995   29.4658 C   0  0  0  0  0  0  0  0  0  0  0  0
    8.1009   21.3437   28.7796 N   0  0  0  0  0  0  0  0  0  0  0  0
    7.3218   20.1041   28.7713 C   0  0  0  0  0  0  0  0  0  0  0  0
 12 13  1  0  0  0
 13 14  1  0  0  0
 13 11  1  0  0  0
 11  1  1  0  0  0
  1  2  1  0  0  0
  2  3  1  0  0  0
  3  4  1  0  0  0
  4  7  1  0  0  0
  7  8  1  0  0  0
  7  9  2  0  0  0
  7 10  2  0  0  0
  4  5  1  0  0  0
  5  6  1  0  0  0
  6  1  1  0  0  0
M  END
> <minimizedAffinity>
-2.60644

> <minimizedRMSD>
0.43975

$$$$
P36501


 17 19  0  0  0  0  0  0  0  0999 V2000
    8.6339   11.3887    1.4562 C   0  0  0  0  0  0  0  0  0  0  0  0
    8.2473   10.3134    2.3041 C   0  0  0  0  0  0  0  0  0  0  0  0
    7.7023   10.5277    3.5807 C   0  0  0  0  0  0  0  0  0  0  0  0
    7.5300   11.8241    4.0135 C   0  0  0  0  0  0  0  0  0  0  0  0
    7.8853   12.8497    3.1860 C   0  0  0  0  0  0  0  0  0  0  0  0
    7.5868   14.0167    3.8267 C   0  0  0  0  0  0  0  0  0  0  0  0
    7.8592   15.2188    3.2006 C   0  0  0  0  0  0  0  0  0  0  0  0
    8.4385   15.1875    1.9217 C   0  0  0  0  0  0  0  0  0  0  0  0
    8.7282   13.9634    1.2772 C   0  0  0  0  0  0  0  0  0  0  0  0
    8.4420   12.7264    1.9083 C   0  0  0  0  0  0  0  0  0  0  0  0
    6.9569   13.7073    5.1531 C   0  0  0  0  0  0  0  0  0  0  0  0
    7.0544   12.2382    5.2936 N   0  0  0  0  0  0  0  0  0  0  0  0
    6.8430   11.6822    6.0781 H   0  0  0  0  0  0  0  0  0  0  0  0
    8.2466   10.6922   -0.8676 N   0  0  0  0  0  0  0  0  0  0  0  0
    9.2558   11.0586    0.1217 C   0  0  0  0  0  0  0  0  0  0  0  0
    8.7023   10.4763   -1.7542 H   0  0  0  0  0  0  0  0  0  0  0  0
    7.6002   11.4703   -0.9981 H   0  0  0  0  0  0  0  0  0  0  0  0
 14 15  1  0  0  0
 15  1  1  0  0  0
  1  2  2  0  0  0
  2  3  1  0  0  0
  3  4  2  0  0  0
  4  5  1  0  0  0
  5  6  2  0  0  0
  6  7  1  0  0  0
  7  8  2  0  0  0
  8  9  1  0  0  0
  9 10  2  0  0  0
  6 11  1  0  0  0
 11 12  1  0  0  0
 10  1  1  0  0  0
 12  4  1  0  0  0
 10  5  1  0  0  0
 14 16  1  0  0  0
 14 17  1  0  0  0
 12 13  1  0  0  0
M  END
> <minimizedAffinity>
-3.14961

> <minimizedRMSD>
0.69555

$$$$
P36503


 19 19  0  0  0  0  0  0  0  0999 V2000
    7.7153   11.9103    3.6024 C   0  0  0  0  0  0  0  0  0  0  0  0
    7.9382   12.5107    2.3586 C   0  0  0  0  0  0  0  0  0  0  0  0
    8.3758   11.7423    1.2739 C   0  0  0  0  0  0  0  0  0  0  0  0
    8.6019   10.3680    1.4145 C   0  0  0  0  0  0  0  0  0  0  0  0
    8.3127    9.7588    2.6402 C   0  0  0  0  0  0  0  0  0  0  0  0
    7.8731   10.5227    3.7227 C   0  0  0  0  0  0  0  0  0  0  0  0
    9.1450    9.5559    0.2680 C   0  0  0  0  0  0  0  0  0  0  0  0
   10.1455    8.6033    0.7231 N   0  0  0  0  0  0  0  0  0  0  0  0
   10.9250    9.1058    1.1477 H   0  0  0  0  0  0  0  0  0  0  0  0
   10.4834    8.0597   -0.0710 H   0  0  0  0  0  0  0  0  0  0  0  0
    7.3551   12.6705    4.8289 C   0  0  0  0  0  0  0  0  0  0  0  0
    7.2047   12.0812    5.8973 O   0  0  0  0  0  0  0  0  0  0  0  0
    7.1015   14.4356    4.8665 S   0  0  0  0  0  0  0  0  0  0  0  0
    8.2132   15.0743    4.1855 O   0  0  0  0  0  0  0  0  0  0  0  0
    6.8189   14.7775    6.2544 O   0  0  0  0  0  0  0  0  0  0  0  0
    5.5736   14.6449    3.9132 C   0  0  0  0  0  0  0  0  0  0  0  0
    3.7304   13.0752    4.0008 C   0  0  0  0  0  0  0  0  0  0  0  0
    4.3113   14.2702    4.5950 N   0  0  0  0  0  0  0  0  0  0  0  0
    4.5050   14.0920    5.5804 H   0  0  0  0  0  0  0  0  0  0  0  0
 17 18  1  0  0  0
 18 16  1  0  0  0
 16 13  1  0  0  0
 13 14  2  0  0  0
 13 15  2  0  0  0
 13 11  1  0  0  0
 11 12  2  0  0  0
 11  1  1  0  0  0
  1  2  2  0  0  0
  2  3  1  0  0  0
  3  4  2  0  0  0
  4  7  1  0  0  0
  7  8  1  0  0  0
  4  5  1  0  0  0
  5  6  2  0  0  0
  6  1  1  0  0  0
 18 19  1  0  0  0
  8  9  1  0  0  0
  8 10  1  0  0  0
M  END
> <minimizedAffinity>
-3.91338

> <minimizedRMSD>
1.59445

$$$$
P36508


 24 26  0  0  0  0  0  0  0  0999 V2000
    9.6116    9.1223   23.2741 C   0  0  0  0  0  0  0  0  0  0  0  0
    8.7028    9.9468   24.1429 C   0  0  0  0  0  0  0  0  0  0  0  0
    7.6988    9.2947   24.7902 N   0  0  0  0  0  0  0  0  0  0  0  0
    6.8730   10.0188   25.5779 C   0  0  0  0  0  0  0  0  0  0  0  0
    6.9630   11.3855   25.7429 C   0  0  0  0  0  0  0  0  0  0  0  0
    7.9592   12.0341   25.0062 C   0  0  0  0  0  0  0  0  0  0  0  0
    8.9048   11.3187   24.2720 C   0  0  0  0  0  0  0  0  0  0  0  0
    6.0119   12.1813   26.5881 C   0  0  0  0  0  0  0  0  0  0  0  0
    5.4530   11.4385   27.6901 N   0  0  0  0  0  0  0  0  0  0  0  0
    5.9051   11.3357   29.1611 C   0  0  0  0  0  0  0  0  0  0  0  0
    6.7564   11.8964   29.7327 O   0  0  0  0  0  0  0  0  0  0  0  0
    4.6523   10.9108   27.4674 H   0  0  0  0  0  0  0  0  0  0  0  0
    4.9892   10.3097   29.8926 C   0  0  0  0  0  0  0  0  0  0  0  0
    4.5053    9.0234   29.1634 C   0  0  0  0  0  0  0  0  0  0  0  0
    4.6101    8.3038   30.5230 C   0  0  0  0  0  0  0  0  0  0  0  0
    5.6901    9.3360   30.8901 C   0  0  0  0  0  0  0  0  0  0  0  0
   10.0151   11.8428   23.6749 O   0  0  0  0  0  0  0  0  0  0  0  0
   10.1996   13.2432   23.7113 C   0  0  0  0  0  0  0  0  0  0  0  0
   11.5846   13.5575   23.1288 C   0  0  0  0  0  0  0  0  0  0  0  0
   12.4970   13.4630   24.3375 C   0  0  0  0  0  0  0  0  0  0  0  0
   11.6834   13.9594   25.4157 N   0  0  0  0  0  0  0  0  0  0  0  0
   12.1511   14.8160   26.4704 C   0  0  0  0  0  0  0  0  0  0  0  0
   10.3452   13.9100   25.0859 C   0  0  0  0  0  0  0  0  0  0  0  0
    9.4557   14.4115   25.7601 O   0  0  0  0  0  0  0  0  0  0  0  0
  1  2  1  0  0  0
  2  3  2  0  0  0
  3  4  1  0  0  0
  4  5  2  0  0  0
  5  8  1  0  0  0
  8  9  1  0  0  0
  9 10  1  0  0  0
 10 11  2  0  0  0
 10 13  1  0  0  0
 13 14  1  0  0  0
 14 15  1  0  0  0
 15 16  1  0  0  0
  5  6  1  0  0  0
  6  7  2  0  0  0
  7 17  1  0  0  0
 18 17  1  0  0  0
 18 19  1  0  0  0
 19 20  1  0  0  0
 20 21  1  0  0  0
 21 22  1  0  0  0
 21 23  1  0  0  0
 23 24  2  0  0  0
  7  2  1  0  0  0
 23 18  1  0  0  0
 16 13  1  0  0  0
  9 12  1  0  0  0
M  END
> <minimizedAffinity>
-6.11231

> <minimizedRMSD>
0.73681

$$$$
P36509


 24 25  0  0  0  0  0  0  0  0999 V2000
    9.6527    9.2013   23.2441 C   0  0  0  0  0  0  0  0  0  0  0  0
    8.7557   10.0780   24.0769 C   0  0  0  0  0  0  0  0  0  0  0  0
    7.8344    9.4442   24.8312 N   0  0  0  0  0  0  0  0  0  0  0  0
    7.0854   10.1993   25.6545 C   0  0  0  0  0  0  0  0  0  0  0  0
    7.1899   11.5803   25.7922 C   0  0  0  0  0  0  0  0  0  0  0  0
    8.0964   12.2482   24.9443 C   0  0  0  0  0  0  0  0  0  0  0  0
    8.0981   13.7544   24.9209 C   0  0  0  0  0  0  0  0  0  0  0  0
    8.9187   11.4715   24.1008 C   0  0  0  0  0  0  0  0  0  0  0  0
    9.8525   12.0122   23.2201 N   0  0  0  0  0  0  0  0  0  0  0  0
   11.0845   12.9254   23.4887 C   0  0  0  0  0  0  0  0  0  0  0  0
   11.5451   13.2977   24.4955 O   0  0  0  0  0  0  0  0  0  0  0  0
    9.7105   11.7790   22.2742 H   0  0  0  0  0  0  0  0  0  0  0  0
   11.5353   13.3425   22.1111 C   0  0  0  0  0  0  0  0  0  0  0  0
   12.2908   14.5660   22.1382 C   0  0  0  0  0  0  0  0  0  0  0  0
   12.8956   15.5485   22.1226 N   0  0  0  0  0  0  0  0  0  0  0  0
    6.2888   12.2847   26.7761 C   0  0  0  0  0  0  0  0  0  0  0  0
    6.0310   11.4351   27.9068 N   0  0  0  0  0  0  0  0  0  0  0  0
    6.4686   11.5658   29.3745 C   0  0  0  0  0  0  0  0  0  0  0  0
    7.0431   12.4227   29.9188 O   0  0  0  0  0  0  0  0  0  0  0  0
    5.4854   10.6399   27.7088 H   0  0  0  0  0  0  0  0  0  0  0  0
    6.0926   10.2268   30.0704 C   0  0  0  0  0  0  0  0  0  0  0  0
    4.8170   10.1859   30.9416 C   0  0  0  0  0  0  0  0  0  0  0  0
    5.5705    9.2173   31.8731 C   0  0  0  0  0  0  0  0  0  0  0  0
    6.8774    9.8384   31.3496 C   0  0  0  0  0  0  0  0  0  0  0  0
  1  2  1  0  0  0
  2  3  2  0  0  0
  3  4  1  0  0  0
  4  5  2  0  0  0
  5 16  1  0  0  0
 16 17  1  0  0  0
 17 18  1  0  0  0
 18 19  2  0  0  0
 18 21  1  0  0  0
 21 22  1  0  0  0
 22 23  1  0  0  0
 23 24  1  0  0  0
  5  6  1  0  0  0
  6  7  1  0  0  0
  6  8  2  0  0  0
  8  9  1  0  0  0
  9 10  1  0  0  0
 10 11  2  0  0  0
 10 13  1  0  0  0
 13 14  1  0  0  0
 14 15  3  0  0  0
  8  2  1  0  0  0
 24 21  1  0  0  0
 17 20  1  0  0  0
  9 12  1  0  0  0
M  END
> <minimizedAffinity>
-5.94464

> <minimizedRMSD>
0.47191

$$$$
P36514


 25 26  0  0  0  0  0  0  0  0999 V2000
    9.8297    9.8751   23.2896 C   0  0  0  0  0  0  0  0  0  0  0  0
    8.7979   10.4042   24.2420 C   0  0  0  0  0  0  0  0  0  0  0  0
    8.7403   11.7581   24.5790 C   0  0  0  0  0  0  0  0  0  0  0  0
    7.7007   12.2322   25.4039 C   0  0  0  0  0  0  0  0  0  0  0  0
    6.8260   11.2829   25.9713 C   0  0  0  0  0  0  0  0  0  0  0  0
    6.9697    9.9656   25.5623 C   0  0  0  0  0  0  0  0  0  0  0  0
    7.9172    9.5086   24.7278 N   0  0  0  0  0  0  0  0  0  0  0  0
    7.3830   13.7228   25.5472 C   0  0  0  0  0  0  0  0  0  0  0  0
    7.2220   14.4687   24.2145 C   0  0  0  0  0  0  0  0  0  0  0  0
    8.3458   14.4864   26.4671 C   0  0  0  0  0  0  0  0  0  0  0  0
    7.4253   15.3675   27.7600 S   0  0  0  0  0  0  0  0  0  0  0  0
    7.2886   16.9038   27.1293 N   0  0  0  0  0  0  0  0  0  0  0  0
    8.2563   15.5359   28.9307 O   0  0  0  0  0  0  0  0  0  0  0  0
    6.0797   14.8632   27.8760 O   0  0  0  0  0  0  0  0  0  0  0  0
    8.2173   17.3123   27.0248 H   0  0  0  0  0  0  0  0  0  0  0  0
    6.7319   17.4816   27.7591 H   0  0  0  0  0  0  0  0  0  0  0  0
    5.6850   11.6224   26.8890 C   0  0  0  0  0  0  0  0  0  0  0  0
    5.7543   10.8955   28.1238 N   0  0  0  0  0  0  0  0  0  0  0  0
    6.4017   11.2689   29.4680 C   0  0  0  0  0  0  0  0  0  0  0  0
    6.9156   12.2588   29.8111 O   0  0  0  0  0  0  0  0  0  0  0  0
    5.3161   10.0141   28.1083 H   0  0  0  0  0  0  0  0  0  0  0  0
    6.3559    9.9954   30.3558 C   0  0  0  0  0  0  0  0  0  0  0  0
    5.2823    9.9260   31.4664 C   0  0  0  0  0  0  0  0  0  0  0  0
    6.3207    9.1800   32.3253 C   0  0  0  0  0  0  0  0  0  0  0  0
    7.4105    9.8689   31.4855 C   0  0  0  0  0  0  0  0  0  0  0  0
  1  2  1  0  0  0
  2  3  2  0  0  0
  3  4  1  0  0  0
  4  8  1  0  0  0
  8  9  1  0  0  0
  8 10  1  0  0  0
 10 11  1  0  0  0
 11 12  1  0  0  0
 11 13  2  0  0  0
 11 14  2  0  0  0
  4  5  2  0  0  0
  5 17  1  0  0  0
 17 18  1  0  0  0
 18 19  1  0  0  0
 19 20  2  0  0  0
 19 22  1  0  0  0
 22 23  1  0  0  0
 23 24  1  0  0  0
 24 25  1  0  0  0
  5  6  1  0  0  0
  6  7  2  0  0  0
  7  2  1  0  0  0
 25 22  1  0  0  0
 12 15  1  0  0  0
 12 16  1  0  0  0
 18 21  1  0  0  0
M  END
> <minimizedAffinity>
-5.21966

> <minimizedRMSD>
1.13624

$$$$
P36519


 26 27  0  0  0  0  0  0  0  0999 V2000
    6.1013   12.0880   26.4960 C   0  0  0  0  0  0  0  0  0  0  0  0
    7.1970   11.4662   25.6624 C   0  0  0  0  0  0  0  0  0  0  0  0
    8.2395   12.1470   25.0338 C   0  0  0  0  0  0  0  0  0  0  0  0
    9.1345   11.4473   24.2142 C   0  0  0  0  0  0  0  0  0  0  0  0
    8.9589   10.0780   24.0251 C   0  0  0  0  0  0  0  0  0  0  0  0
    9.8704    9.2960   23.1255 C   0  0  0  0  0  0  0  0  0  0  0  0
    7.9725    9.3925   24.6427 N   0  0  0  0  0  0  0  0  0  0  0  0
    7.1278   10.0949   25.4230 C   0  0  0  0  0  0  0  0  0  0  0  0
    5.9073   11.3200   27.6919 N   0  0  0  0  0  0  0  0  0  0  0  0
    6.4211   11.5507   29.1210 C   0  0  0  0  0  0  0  0  0  0  0  0
    7.0209   12.4430   29.5742 O   0  0  0  0  0  0  0  0  0  0  0  0
    5.3546   10.5132   27.5782 H   0  0  0  0  0  0  0  0  0  0  0  0
    6.0790   10.2476   29.9234 C   0  0  0  0  0  0  0  0  0  0  0  0
    4.7817   10.2257   30.7581 C   0  0  0  0  0  0  0  0  0  0  0  0
    5.6367   10.5438   31.9962 C   0  0  0  0  0  0  0  0  0  0  0  0
    6.8515    9.9859   31.2400 C   0  0  0  0  0  0  0  0  0  0  0  0
    6.2206   13.4918   26.8278 N   0  0  0  0  0  0  0  0  0  0  0  0
    7.1004   13.9337   26.8378 H   0  0  0  0  0  0  0  0  0  0  0  0
    4.9587   15.2521   26.5451 C   0  0  0  0  0  0  0  0  0  0  0  0
    5.0916   14.1858   27.1252 N   0  0  0  0  0  0  0  0  0  0  0  0
    5.8513   15.9345   25.4246 N   0  0  0  0  0  0  0  0  0  0  0  0
    6.9399   15.4596   24.7394 O   0  0  0  0  0  0  0  0  0  0  0  0
    5.5789   16.8488   25.1815 H   0  0  0  0  0  0  0  0  0  0  0  0
    7.1412   14.5585   25.0367 H   0  0  0  0  0  0  0  0  0  0  0  0
    3.7206   16.3462   28.4156 C   0  0  0  0  0  0  0  0  0  0  0  0
    3.7429   16.0951   26.9190 C   0  0  0  0  0  0  0  0  0  0  0  0
 25 26  1  0  0  0
 26 19  1  0  0  0
 19 20  2  0  0  0
 20 17  1  0  0  0
  1 17  1  0  0  0
  1  9  1  0  0  0
  9 10  1  0  0  0
 10 11  2  0  0  0
 10 13  1  0  0  0
 13 14  1  0  0  0
 14 15  1  0  0  0
 15 16  1  0  0  0
  1  2  1  0  0  0
  2  3  2  0  0  0
  3  4  1  0  0  0
  4  5  2  0  0  0
  5  6  1  0  0  0
  5  7  1  0  0  0
  7  8  2  0  0  0
 19 21  1  0  0  0
 21 22  1  0  0  0
 16 13  1  0  0  0
  8  2  1  0  0  0
 17 18  1  0  0  0
  9 12  1  0  0  0
 21 23  1  0  0  0
 22 24  1  0  0  0
M  END
> <minimizedAffinity>
-5.01559

> <minimizedRMSD>
0.75811

$$$$
P36522


 26 28  0  0  0  0  0  0  0  0999 V2000
    6.4111   13.3622   26.5584 C   0  0  0  0  0  0  0  0  0  0  0  0
    7.5902   14.0168   25.7854 C   0  0  0  0  0  0  0  0  0  0  0  0
    8.2318   12.8262   25.1817 C   0  0  0  0  0  0  0  0  0  0  0  0
    9.4353   12.7561   24.5172 C   0  0  0  0  0  0  0  0  0  0  0  0
    9.8029   11.5261   24.0006 C   0  0  0  0  0  0  0  0  0  0  0  0
    8.9496   10.4249   24.1594 C   0  0  0  0  0  0  0  0  0  0  0  0
    7.7392   10.5118   24.8035 N   0  0  0  0  0  0  0  0  0  0  0  0
    7.4121   11.7135   25.2965 C   0  0  0  0  0  0  0  0  0  0  0  0
    6.0915   12.0956   25.8069 N   0  0  0  0  0  0  0  0  0  0  0  0
    5.2247   11.6438   25.6896 H   0  0  0  0  0  0  0  0  0  0  0  0
    9.3402    9.0916   23.5549 C   0  0  0  0  0  0  0  0  0  0  0  0
   10.0536    9.2406   22.3380 O   0  0  0  0  0  0  0  0  0  0  0  0
    9.4932    9.6924   21.6879 H   0  0  0  0  0  0  0  0  0  0  0  0
    6.8148   12.9911   28.0221 C   0  0  0  0  0  0  0  0  0  0  0  0
    7.6786   13.6527   28.6202 O   0  0  0  0  0  0  0  0  0  0  0  0
    6.0329   11.8920   28.7728 C   0  0  0  0  0  0  0  0  0  0  0  0
    6.2493   10.3839   28.4992 C   0  0  0  0  0  0  0  0  0  0  0  0
    5.8800   10.1572   29.9839 C   0  0  0  0  0  0  0  0  0  0  0  0
    6.4547   11.5652   30.2378 C   0  0  0  0  0  0  0  0  0  0  0  0
    5.2754   14.4242   26.7039 C   0  0  0  0  0  0  0  0  0  0  0  0
    2.7340   14.4508   26.7392 C   0  0  0  0  0  0  0  0  0  0  0  0
    3.9884   14.2452   25.8851 C   0  0  0  0  0  0  0  0  0  0  0  0
    3.9828   15.2474   24.7372 C   0  0  0  0  0  0  0  0  0  0  0  0
    2.8627   15.1196   24.0002 F   0  0  0  0  0  0  0  0  0  0  0  0
    5.0359   15.0358   23.9215 F   0  0  0  0  0  0  0  0  0  0  0  0
    4.0557   16.5187   25.1804 F   0  0  0  0  0  0  0  0  0  0  0  0
 22 21  1  0  0  0
 22 20  1  0  0  0
  1 20  1  0  0  0
  1 14  1  0  0  0
 14 15  2  0  0  0
 14 16  1  0  0  0
 16 17  1  0  0  0
 17 18  1  0  0  0
 18 19  1  0  0  0
  1  2  1  0  0  0
  2  3  1  0  0  0
  3  4  2  0  0  0
  4  5  1  0  0  0
  5  6  2  0  0  0
  6 11  1  0  0  0
 11 12  1  0  0  0
  6  7  1  0  0  0
  7  8  2  0  0  0
  8  9  1  0  0  0
 22 23  1  0  0  0
 23 24  1  0  0  0
 23 25  1  0  0  0
 23 26  1  0  0  0
  9  1  1  0  0  0
 19 16  1  0  0  0
  8  3  1  0  0  0
 12 13  1  0  0  0
  9 10  1  0  0  0
M  END
> <minimizedAffinity>
-5.45211

> <minimizedRMSD>
1.72448

$$$$
P36817


 25 28  0  0  0  0  0  0  0  0999 V2000
   19.2166   18.5195   -0.0948 C   0  0  0  0  0  0  0  0  0  0  0  0
   18.9758   17.3218    0.7542 C   0  0  0  0  0  0  0  0  0  0  0  0
   19.6800   16.2440    0.6256 N   0  0  0  0  0  0  0  0  0  0  0  0
   19.2583   15.2673    1.6907 C   0  0  0  0  0  0  0  0  0  0  0  0
   18.1990   16.0183    2.4750 C   0  0  0  0  0  0  0  0  0  0  0  0
   17.6027   15.6260    3.4691 O   0  0  0  0  0  0  0  0  0  0  0  0
   17.9182   17.3209    1.8032 C   0  0  0  0  0  0  0  0  0  0  0  0
   18.7068   13.9637    1.1004 C   0  0  0  0  0  0  0  0  0  0  0  0
   18.4869   12.8284    1.9042 C   0  0  0  0  0  0  0  0  0  0  0  0
   17.9928   11.6384    1.3633 C   0  0  0  0  0  0  0  0  0  0  0  0
   17.7259   11.5524    0.0012 C   0  0  0  0  0  0  0  0  0  0  0  0
   17.9414   12.6572   -0.8174 C   0  0  0  0  0  0  0  0  0  0  0  0
   18.4209   13.8518   -0.2732 C   0  0  0  0  0  0  0  0  0  0  0  0
   20.5302   15.0203    2.3842 C   0  0  0  0  0  0  0  0  0  0  0  0
   21.6619   14.6214    2.4058 C   0  0  0  0  0  0  0  0  0  0  0  0
   22.7073   13.9319    1.7461 C   0  0  0  0  0  0  0  0  0  0  0  0
   22.5624   13.5945    0.4254 N   0  0  0  0  0  0  0  0  0  0  0  0
   23.5286   12.8180   -0.0816 N   0  0  0  0  0  0  0  0  0  0  0  0
   24.3782   12.6500    0.9431 C   0  0  0  0  0  0  0  0  0  0  0  0
   25.5630   11.9027    0.9878 C   0  0  0  0  0  0  0  0  0  0  0  0
   26.2134   11.9524    2.2355 C   0  0  0  0  0  0  0  0  0  0  0  0
   25.7159   12.6861    3.3578 C   0  0  0  0  0  0  0  0  0  0  0  0
   24.5266   13.4466    3.3459 C   0  0  0  0  0  0  0  0  0  0  0  0
   23.9051   13.3814    2.1040 C   0  0  0  0  0  0  0  0  0  0  0  0
   21.7989   13.9024   -0.1145 H   0  0  0  0  0  0  0  0  0  0  0  0
  1  2  1  0  0  0
  2  3  2  0  0  0
  3  4  1  0  0  0
  4 14  1  0  0  0
 14 15  3  0  0  0
 15 16  1  0  0  0
 16 17  1  0  0  0
 17 18  1  0  0  0
 18 19  2  0  0  0
 19 20  1  0  0  0
 20 21  2  0  0  0
 21 22  1  0  0  0
 22 23  2  0  0  0
 23 24  1  0  0  0
  4  8  1  0  0  0
  8  9  2  0  0  0
  9 10  1  0  0  0
 10 11  2  0  0  0
 11 12  1  0  0  0
 12 13  2  0  0  0
  4  5  1  0  0  0
  5  6  2  0  0  0
  5  7  1  0  0  0
  7  2  1  0  0  0
 24 16  2  0  0  0
 13  8  1  0  0  0
 24 19  1  0  0  0
 17 25  1  0  0  0
M  END
> <minimizedAffinity>
-5.61895

> <minimizedRMSD>
0.95444

$$$$
P36843


 24 25  0  0  0  0  0  0  0  0999 V2000
    6.3810   15.0580   25.1776 C   0  0  0  0  0  0  0  0  0  0  0  0
    7.6802   14.4649   24.6667 C   0  0  0  0  0  0  0  0  0  0  0  0
    7.6680   13.8833   23.3881 C   0  0  0  0  0  0  0  0  0  0  0  0
    8.7576   13.2377   22.8661 C   0  0  0  0  0  0  0  0  0  0  0  0
    9.9313   13.3365   23.5384 C   0  0  0  0  0  0  0  0  0  0  0  0
   10.0290   13.9826   24.7389 C   0  0  0  0  0  0  0  0  0  0  0  0
    8.9123   14.5330   25.3499 C   0  0  0  0  0  0  0  0  0  0  0  0
   11.3198   14.0076   25.1658 O   0  0  0  0  0  0  0  0  0  0  0  0
   11.9965   13.3327   24.0681 C   0  0  0  0  0  0  0  0  0  0  0  0
   11.1044   12.9010   23.0382 O   0  0  0  0  0  0  0  0  0  0  0  0
    6.5062   16.3293   25.9010 N   0  0  0  0  0  0  0  0  0  0  0  0
    7.3746   16.7401   25.5584 H   0  0  0  0  0  0  0  0  0  0  0  0
    6.5498   16.5524   27.5391 S   0  0  0  0  0  0  0  0  0  0  0  0
    6.7783   17.9687   27.6962 O   0  0  0  0  0  0  0  0  0  0  0  0
    7.4604   15.5959   28.1097 O   0  0  0  0  0  0  0  0  0  0  0  0
    3.8130   17.0096   27.4342 C   0  0  0  0  0  0  0  0  0  0  0  0
    4.8929   16.1933   28.1094 C   0  0  0  0  0  0  0  0  0  0  0  0
    5.3496   14.0655   25.7333 C   0  0  0  0  0  0  0  0  0  0  0  0
    5.9285   12.7156   26.7845 S   0  0  0  0  0  0  0  0  0  0  0  0
    6.3602   11.5477   25.6553 N   0  0  0  0  0  0  0  0  0  0  0  0
    4.7974   12.1012   27.4428 O   0  0  0  0  0  0  0  0  0  0  0  0
    7.1720   12.9511   27.4649 O   0  0  0  0  0  0  0  0  0  0  0  0
    5.5434   11.2936   25.0997 H   0  0  0  0  0  0  0  0  0  0  0  0
    6.7131   10.7216   26.1384 H   0  0  0  0  0  0  0  0  0  0  0  0
 16 17  1  0  0  0
 17 13  1  0  0  0
 13 14  2  0  0  0
 13 15  2  0  0  0
 13 11  1  0  0  0
 11  1  1  0  0  0
  1 18  1  0  0  0
 18 19  1  0  0  0
 19 20  1  0  0  0
 19 21  2  0  0  0
 19 22  2  0  0  0
  1  2  1  0  0  0
  2  3  2  0  0  0
  3  4  1  0  0  0
  4  5  2  0  0  0
  5  6  1  0  0  0
  6  7  2  0  0  0
  6  8  1  0  0  0
  8  9  1  0  0  0
  9 10  1  0  0  0
  7  2  1  0  0  0
 10  5  1  0  0  0
 11 12  1  0  0  0
 20 23  1  0  0  0
 20 24  1  0  0  0
M  END
> <minimizedAffinity>
-4.79297

> <minimizedRMSD>
2.60063

$$$$
P36852


 29 30  0  0  0  0  0  0  0  0999 V2000
    6.5456   14.0387   25.5428 C   0  0  0  0  0  0  0  0  0  0  0  0
    7.5016   13.8814   24.5049 C   0  0  0  0  0  0  0  0  0  0  0  0
    8.0777   12.6419   24.3246 C   0  0  0  0  0  0  0  0  0  0  0  0
    7.6905   11.5789   25.0949 C   0  0  0  0  0  0  0  0  0  0  0  0
    6.7854   11.6948   26.1154 C   0  0  0  0  0  0  0  0  0  0  0  0
    6.2786   12.9505   26.4130 C   0  0  0  0  0  0  0  0  0  0  0  0
    8.3111   10.4222   24.7556 O   0  0  0  0  0  0  0  0  0  0  0  0
    8.9365   10.8310   23.5378 C   0  0  0  0  0  0  0  0  0  0  0  0
   10.2290   10.1110   23.3137 C   0  0  0  0  0  0  0  0  0  0  0  0
    9.0069   12.2676   23.3986 O   0  0  0  0  0  0  0  0  0  0  0  0
    5.6907   13.1138   27.6714 N   0  0  0  0  0  0  0  0  0  0  0  0
    4.6192   12.2498   28.4092 C   0  0  0  0  0  0  0  0  0  0  0  0
    4.0130   11.3178   28.0426 O   0  0  0  0  0  0  0  0  0  0  0  0
    6.0029   13.9010   28.1735 H   0  0  0  0  0  0  0  0  0  0  0  0
    4.5076   12.7407   29.8489 C   0  0  0  0  0  0  0  0  0  0  0  0
    5.6243   12.1631   30.7541 C   0  0  0  0  0  0  0  0  0  0  0  0
    6.1535   10.8137   30.2694 C   0  0  0  0  0  0  0  0  0  0  0  0
    6.7533   13.1540   30.9361 C   0  0  0  0  0  0  0  0  0  0  0  0
    7.7436   12.9168   30.0646 F   0  0  0  0  0  0  0  0  0  0  0  0
    7.2590   13.0998   32.1835 F   0  0  0  0  0  0  0  0  0  0  0  0
    6.2862   14.4040   30.7275 F   0  0  0  0  0  0  0  0  0  0  0  0
    5.7360   15.3079   25.5948 C   0  0  0  0  0  0  0  0  0  0  0  0
    6.4103   16.5136   26.0690 N   0  0  0  0  0  0  0  0  0  0  0  0
    7.3326   16.5204   25.6335 H   0  0  0  0  0  0  0  0  0  0  0  0
    6.6532   16.7778   27.6991 S   0  0  0  0  0  0  0  0  0  0  0  0
    7.0244   18.1678   27.8043 O   0  0  0  0  0  0  0  0  0  0  0  0
    7.5140   15.7302   28.1920 O   0  0  0  0  0  0  0  0  0  0  0  0
    4.0417   17.6475   28.0126 C   0  0  0  0  0  0  0  0  0  0  0  0
    5.0374   16.5980   28.4493 C   0  0  0  0  0  0  0  0  0  0  0  0
 28 29  1  0  0  0
 29 25  1  0  0  0
 25 26  2  0  0  0
 25 27  2  0  0  0
 25 23  1  0  0  0
 23 22  1  0  0  0
 22  1  1  0  0  0
  1  2  2  0  0  0
  2  3  1  0  0  0
  3  4  2  0  0  0
  4  5  1  0  0  0
  5  6  2  0  0  0
  6 11  1  0  0  0
 11 12  1  0  0  0
 12 13  2  0  0  0
 12 15  1  0  0  0
 15 16  1  0  0  0
 16 17  1  0  0  0
 16 18  1  0  0  0
 18 19  1  0  0  0
 18 20  1  0  0  0
 18 21  1  0  0  0
  4  7  1  0  0  0
  7  8  1  0  0  0
  8  9  1  0  0  0
  8 10  1  0  0  0
  6  1  1  0  0  0
 10  3  1  0  0  0
 23 24  1  0  0  0
 11 14  1  0  0  0
M  END
> <minimizedAffinity>
-3.78354

> <minimizedRMSD>
1.19588

$$$$
P37022


 25 27  0  0  0  0  0  0  0  0999 V2000
    7.5836   13.6739   24.8221 C   0  0  0  0  0  0  0  0  0  0  0  0
    6.9110   12.7273   25.6304 C   0  0  0  0  0  0  0  0  0  0  0  0
    7.1940   11.3664   25.5353 C   0  0  0  0  0  0  0  0  0  0  0  0
    8.1940   10.9690   24.6782 C   0  0  0  0  0  0  0  0  0  0  0  0
    8.9050   11.8674   23.9346 C   0  0  0  0  0  0  0  0  0  0  0  0
    8.6025   13.2220   23.9533 C   0  0  0  0  0  0  0  0  0  0  0  0
    9.8050   11.2410   23.1261 O   0  0  0  0  0  0  0  0  0  0  0  0
    9.5935    9.8655   23.4297 C   0  0  0  0  0  0  0  0  0  0  0  0
    8.5301    9.6849   24.3895 O   0  0  0  0  0  0  0  0  0  0  0  0
    9.2289   14.0785   22.9111 C   0  0  0  0  0  0  0  0  0  0  0  0
    8.5818   14.8968   22.3690 O   0  0  0  0  0  0  0  0  0  0  0  0
   10.6477   13.6408   22.6679 N   0  0  0  0  0  0  0  0  0  0  0  0
   11.6406   14.4584   23.5085 C   0  0  0  0  0  0  0  0  0  0  0  0
   11.8258   15.3386   22.2997 C   0  0  0  0  0  0  0  0  0  0  0  0
   13.0837   15.9922   22.1842 O   0  0  0  0  0  0  0  0  0  0  0  0
   11.6353   14.0451   21.5946 C   0  0  0  0  0  0  0  0  0  0  0  0
   13.7957   15.3549   22.3504 H   0  0  0  0  0  0  0  0  0  0  0  0
    7.1055   15.1008   24.8736 C   0  0  0  0  0  0  0  0  0  0  0  0
    7.2488   15.7956   26.1570 N   0  0  0  0  0  0  0  0  0  0  0  0
    7.9843   15.3044   26.6653 H   0  0  0  0  0  0  0  0  0  0  0  0
    5.9798   15.9656   27.2255 S   0  0  0  0  0  0  0  0  0  0  0  0
    5.9002   17.3848   27.4853 O   0  0  0  0  0  0  0  0  0  0  0  0
    6.1674   15.0276   28.3085 O   0  0  0  0  0  0  0  0  0  0  0  0
    3.7105   16.6461   25.8017 C   0  0  0  0  0  0  0  0  0  0  0  0
    4.5105   15.4758   26.3283 C   0  0  0  0  0  0  0  0  0  0  0  0
 24 25  1  0  0  0
 25 21  1  0  0  0
 21 22  2  0  0  0
 21 23  2  0  0  0
 21 19  1  0  0  0
 19 18  1  0  0  0
 18  1  1  0  0  0
  1  2  2  0  0  0
  2  3  1  0  0  0
  3  4  2  0  0  0
  4  5  1  0  0  0
  5  6  2  0  0  0
  6 10  1  0  0  0
 10 11  2  0  0  0
 10 12  1  0  0  0
 12 13  1  0  0  0
 13 14  1  0  0  0
 14 15  1  0  0  0
 14 16  1  0  0  0
  5  7  1  0  0  0
  7  8  1  0  0  0
  8  9  1  0  0  0
  6  1  1  0  0  0
 16 12  1  0  0  0
  9  4  1  0  0  0
 19 20  1  0  0  0
 15 17  1  0  0  0
M  END
> <minimizedAffinity>
-5.16672

> <minimizedRMSD>
1.12596

$$$$
P37149


 20 21  0  0  0  0  0  0  0  0999 V2000
    7.7472   23.4595   26.0737 N   0  0  0  0  0  0  0  0  0  0  0  0
    8.7213   22.3821   25.9505 C   0  0  0  0  0  0  0  0  0  0  0  0
    6.9004   23.1032   26.5170 H   0  0  0  0  0  0  0  0  0  0  0  0
    7.5199   23.8200   25.1470 H   0  0  0  0  0  0  0  0  0  0  0  0
   10.0347   22.8189   25.2930 C   0  0  0  0  0  0  0  0  0  0  0  0
   11.1344   21.9467   25.3509 C   0  0  0  0  0  0  0  0  0  0  0  0
   12.3598   22.2752   24.7690 C   0  0  0  0  0  0  0  0  0  0  0  0
   12.5169   23.4960   24.1254 C   0  0  0  0  0  0  0  0  0  0  0  0
   11.4503   24.3891   24.0757 C   0  0  0  0  0  0  0  0  0  0  0  0
   10.2175   24.0512   24.6438 C   0  0  0  0  0  0  0  0  0  0  0  0
    8.9726   21.5598   27.1124 N   0  0  0  0  0  0  0  0  0  0  0  0
    9.7508   20.9571   27.0909 H   0  0  0  0  0  0  0  0  0  0  0  0
    8.2098   21.5655   28.2231 C   0  0  0  0  0  0  0  0  0  0  0  0
    8.6168   21.8775   29.5377 C   0  0  0  0  0  0  0  0  0  0  0  0
    7.4896   21.7341   30.3116 C   0  0  0  0  0  0  0  0  0  0  0  0
    6.4992   21.3483   29.4565 N   0  0  0  0  0  0  0  0  0  0  0  0
    6.9208   21.2254   28.1815 N   0  0  0  0  0  0  0  0  0  0  0  0
    5.1158   21.0204   29.7744 C   0  0  0  0  0  0  0  0  0  0  0  0
    4.7648   21.4916   31.0743 O   0  0  0  0  0  0  0  0  0  0  0  0
    5.3348   21.0696   31.7360 H   0  0  0  0  0  0  0  0  0  0  0  0
  2  1  1  0  0  0
  2 11  1  0  0  0
 11 13  1  0  0  0
 13 14  1  0  0  0
 14 15  2  0  0  0
 15 16  1  0  0  0
 16 18  1  0  0  0
 18 19  1  0  0  0
 16 17  1  0  0  0
  2  5  1  0  0  0
  5  6  2  0  0  0
  6  7  1  0  0  0
  7  8  2  0  0  0
  8  9  1  0  0  0
  9 10  2  0  0  0
 17 13  2  0  0  0
 10  5  1  0  0  0
  1  3  1  0  0  0
  1  4  1  0  0  0
 11 12  1  0  0  0
 19 20  1  0  0  0
M  END
> <minimizedAffinity>
-2.82332

> <minimizedRMSD>
3.22529

$$$$
P37158


 29 32  0  0  0  0  0  0  0  0999 V2000
   10.3945   14.8441   22.4455 C   0  0  0  0  0  0  0  0  0  0  0  0
   11.2457   14.1758   23.5171 C   0  0  0  0  0  0  0  0  0  0  0  0
   10.8262   12.7084   23.6460 C   0  0  0  0  0  0  0  0  0  0  0  0
    9.3349   12.3975   24.0494 C   0  0  0  0  0  0  0  0  0  0  0  0
    8.9471   12.4494   25.5141 C   0  0  0  0  0  0  0  0  0  0  0  0
    7.8762   11.4086   25.8115 C   0  0  0  0  0  0  0  0  0  0  0  0
    8.0954   10.4269   24.7866 N   0  0  0  0  0  0  0  0  0  0  0  0
    8.9684   10.9866   23.7581 N   0  0  0  0  0  0  0  0  0  0  0  0
   10.0243    9.9952   23.5013 C   0  0  0  0  0  0  0  0  0  0  0  0
    8.5086   13.5542   23.5007 C   0  0  0  0  0  0  0  0  0  0  0  0
    8.9935   14.6255   22.8474 C   0  0  0  0  0  0  0  0  0  0  0  0
    7.8667   15.5651   22.7097 C   0  0  0  0  0  0  0  0  0  0  0  0
    7.8630   16.6379   22.1627 O   0  0  0  0  0  0  0  0  0  0  0  0
    6.6872   14.9311   23.4443 C   0  0  0  0  0  0  0  0  0  0  0  0
    5.6146   15.4345   23.6840 O   0  0  0  0  0  0  0  0  0  0  0  0
    7.1874   13.7106   23.7912 N   0  0  0  0  0  0  0  0  0  0  0  0
    7.2022   10.1651   24.3694 H   0  0  0  0  0  0  0  0  0  0  0  0
    6.6430   13.0070   24.2129 H   0  0  0  0  0  0  0  0  0  0  0  0
   10.6962   15.1266   20.1128 C   0  0  0  0  0  0  0  0  0  0  0  0
   10.5911   14.2049   21.1901 O   0  0  0  0  0  0  0  0  0  0  0  0
    6.4600   11.6830   25.7960 N   0  0  0  0  0  0  0  0  0  0  0  0
    5.9941   10.8529   25.4296 H   0  0  0  0  0  0  0  0  0  0  0  0
    5.8142   12.0207   27.0609 C   0  0  0  0  0  0  0  0  0  0  0  0
    6.3114   11.3129   28.2936 C   0  0  0  0  0  0  0  0  0  0  0  0
    6.0911    9.9455   28.5025 C   0  0  0  0  0  0  0  0  0  0  0  0
    6.5363    9.3354   29.6778 C   0  0  0  0  0  0  0  0  0  0  0  0
    7.2032   10.0813   30.6497 C   0  0  0  0  0  0  0  0  0  0  0  0
    7.4205   11.4422   30.4552 C   0  0  0  0  0  0  0  0  0  0  0  0
    6.9735   12.0548   29.2862 C   0  0  0  0  0  0  0  0  0  0  0  0
 19 20  1  0  0  0
  1 20  1  0  0  0
  1  2  1  0  0  0
  2  3  1  0  0  0
  4  3  1  0  0  0
  4  5  1  0  0  0
  5  6  1  0  0  0
  6 21  1  0  0  0
 21 23  1  0  0  0
 23 24  1  0  0  0
 24 25  2  0  0  0
 25 26  1  0  0  0
 26 27  2  0  0  0
 27 28  1  0  0  0
 28 29  2  0  0  0
  6  7  1  0  0  0
  7  8  1  0  0  0
  8  9  1  0  0  0
  4 10  1  0  0  0
 10 11  2  0  0  0
 11 12  1  0  0  0
 12 13  2  0  0  0
 12 14  1  0  0  0
 14 15  2  0  0  0
 14 16  1  0  0  0
 11  1  1  0  0  0
  8  4  1  0  0  0
 16 10  1  0  0  0
 29 24  1  0  0  0
 21 22  1  0  0  0
  7 17  1  0  0  0
 16 18  1  0  0  0
M  END
> <minimizedAffinity>
-5.84998

> <minimizedRMSD>
0.69133

$$$$
P37352


 18 20  0  0  0  0  0  0  0  0999 V2000
    6.8341    9.6941   25.7492 N   0  0  0  0  0  0  0  0  0  0  0  0
    6.5857    8.7432   25.8078 H   0  0  0  0  0  0  0  0  0  0  0  0
    7.8987   10.0066   24.9843 C   0  0  0  0  0  0  0  0  0  0  0  0
    8.5005    9.0579   24.2524 N   0  0  0  0  0  0  0  0  0  0  0  0
    9.5189    9.6808   23.6143 N   0  0  0  0  0  0  0  0  0  0  0  0
    9.5833   10.9963   23.9336 C   0  0  0  0  0  0  0  0  0  0  0  0
    8.5422   11.2361   24.7778 C   0  0  0  0  0  0  0  0  0  0  0  0
    8.4549   12.8954   25.2502 S   0  0  0  0  0  0  0  0  0  0  0  0
    9.8453   13.3719   24.1060 C   0  0  0  0  0  0  0  0  0  0  0  0
   10.5310   12.0763   23.6002 C   0  0  0  0  0  0  0  0  0  0  0  0
   10.1377    9.2325   22.9935 H   0  0  0  0  0  0  0  0  0  0  0  0
    6.0264   10.6342   26.4903 C   0  0  0  0  0  0  0  0  0  0  0  0
    7.2453   10.9112   30.6251 C   0  0  0  0  0  0  0  0  0  0  0  0
    6.8879    9.6772   30.0844 C   0  0  0  0  0  0  0  0  0  0  0  0
    6.4942    9.5853   28.7477 C   0  0  0  0  0  0  0  0  0  0  0  0
    6.4518   10.7299   27.9367 C   0  0  0  0  0  0  0  0  0  0  0  0
    6.7954   11.9672   28.5012 C   0  0  0  0  0  0  0  0  0  0  0  0
    7.1979   12.0564   29.8344 C   0  0  0  0  0  0  0  0  0  0  0  0
 13 14  2  0  0  0
 14 15  1  0  0  0
 15 16  2  0  0  0
 16 12  1  0  0  0
 12  1  1  0  0  0
  1  3  1  0  0  0
  3  4  2  0  0  0
  4  5  1  0  0  0
  5  6  1  0  0  0
  6  7  2  0  0  0
  7  8  1  0  0  0
  8  9  1  0  0  0
  9 10  1  0  0  0
 16 17  1  0  0  0
 17 18  2  0  0  0
 18 13  1  0  0  0
  7  3  1  0  0  0
 10  6  1  0  0  0
  1  2  1  0  0  0
  5 11  1  0  0  0
M  END
> <minimizedAffinity>
-5.55453

> <minimizedRMSD>
0.57210

$$$$
P37435


 24 25  0  0  0  0  0  0  0  0999 V2000
    5.5439   11.0449   27.3137 C   0  0  0  0  0  0  0  0  0  0  0  0
    7.1050   12.1242   29.1023 C   0  0  0  0  0  0  0  0  0  0  0  0
    7.7828   11.9895   30.3221 C   0  0  0  0  0  0  0  0  0  0  0  0
    7.8212   10.7654   30.9908 C   0  0  0  0  0  0  0  0  0  0  0  0
    7.1901    9.6574   30.4450 C   0  0  0  0  0  0  0  0  0  0  0  0
    6.5008    9.7831   29.2416 C   0  0  0  0  0  0  0  0  0  0  0  0
    6.4269   11.0194   28.5560 C   0  0  0  0  0  0  0  0  0  0  0  0
    7.4597   14.4866   29.0623 C   0  0  0  0  0  0  0  0  0  0  0  0
    7.1173   13.2832   28.3720 O   0  0  0  0  0  0  0  0  0  0  0  0
    6.0859   10.1913   26.1600 C   0  0  0  0  0  0  0  0  0  0  0  0
    5.3430    9.2783   25.7661 O   0  0  0  0  0  0  0  0  0  0  0  0
    7.3885   10.4305   25.4884 C   0  0  0  0  0  0  0  0  0  0  0  0
    7.9861    9.3957   24.8525 N   0  0  0  0  0  0  0  0  0  0  0  0
    8.9913    9.9368   24.1442 N   0  0  0  0  0  0  0  0  0  0  0  0
    9.7245    9.1492   23.1824 C   0  0  0  0  0  0  0  0  0  0  0  0
    9.1524   11.2643   24.3808 C   0  0  0  0  0  0  0  0  0  0  0  0
    8.1661   11.6052   25.2662 C   0  0  0  0  0  0  0  0  0  0  0  0
    8.0412   12.8656   25.7068 N   0  0  0  0  0  0  0  0  0  0  0  0
    8.6954   13.5492   25.4348 H   0  0  0  0  0  0  0  0  0  0  0  0
    7.2953   13.1072   26.3022 H   0  0  0  0  0  0  0  0  0  0  0  0
    4.8863   12.3376   26.8229 C   0  0  0  0  0  0  0  0  0  0  0  0
    3.6611   12.8057   27.5891 C   0  0  0  0  0  0  0  0  0  0  0  0
    3.7418   14.6103   27.7924 S   0  0  0  0  0  0  0  0  0  0  0  0
    4.8688   14.9392   28.4789 H   0  0  0  0  0  0  0  0  0  0  0  0
  8  9  1  0  0  0
  9  2  1  0  0  0
  2  3  2  0  0  0
  3  4  1  0  0  0
  4  5  2  0  0  0
  5  6  1  0  0  0
  6  7  2  0  0  0
  7  1  1  0  0  0
  1 21  1  0  0  0
 21 22  1  0  0  0
 22 23  1  0  0  0
  1 10  1  0  0  0
 10 11  2  0  0  0
 10 12  1  0  0  0
 12 13  2  0  0  0
 13 14  1  0  0  0
 14 15  1  0  0  0
 14 16  1  0  0  0
 16 17  2  0  0  0
 17 18  1  0  0  0
  7  2  1  0  0  0
 17 12  1  0  0  0
 23 24  1  0  0  0
 18 19  1  0  0  0
 18 20  1  0  0  0
M  END
> <minimizedAffinity>
-4.45593

> <minimizedRMSD>
0.89520

$$$$
P38313


 25 26  0  0  0  0  0  0  0  0999 V2000
    7.7795   12.3034   24.9588 C   0  0  0  0  0  0  0  0  0  0  0  0
    7.1863   11.0462   25.2566 C   0  0  0  0  0  0  0  0  0  0  0  0
    6.0788   10.9111   26.2764 C   0  0  0  0  0  0  0  0  0  0  0  0
    7.6808    9.8652   24.6860 C   0  0  0  0  0  0  0  0  0  0  0  0
    8.7306    9.8989   23.7866 C   0  0  0  0  0  0  0  0  0  0  0  0
    9.2909    8.6481   23.1840 C   0  0  0  0  0  0  0  0  0  0  0  0
    9.3573   11.1178   23.5630 C   0  0  0  0  0  0  0  0  0  0  0  0
    8.9804   12.3116   24.2236 C   0  0  0  0  0  0  0  0  0  0  0  0
    7.4420   14.6324   26.2725 C   0  0  0  0  0  0  0  0  0  0  0  0
    8.4575   14.8792   26.7984 O   0  0  0  0  0  0  0  0  0  0  0  0
    7.0234   13.4031   25.4128 N   0  0  0  0  0  0  0  0  0  0  0  0
    6.0769   13.3923   25.1424 H   0  0  0  0  0  0  0  0  0  0  0  0
    6.2199   15.5620   26.3793 C   0  0  0  0  0  0  0  0  0  0  0  0
    4.5465   14.6044   27.7471 C   0  0  0  0  0  0  0  0  0  0  0  0
    5.0018   14.8323   26.4181 O   0  0  0  0  0  0  0  0  0  0  0  0
   10.0811   13.3415   24.3122 C   0  0  0  0  0  0  0  0  0  0  0  0
   10.6003   13.9229   23.1070 N   0  0  0  0  0  0  0  0  0  0  0  0
   10.2729   14.8876   23.0550 H   0  0  0  0  0  0  0  0  0  0  0  0
   12.0531   13.9331   23.0019 C   0  0  0  0  0  0  0  0  0  0  0  0
   12.4947   15.0206   22.0433 C   0  0  0  0  0  0  0  0  0  0  0  0
   11.5579   15.1782   20.9216 C   0  0  0  0  0  0  0  0  0  0  0  0
   11.6618   14.7472   19.6270 C   0  0  0  0  0  0  0  0  0  0  0  0
   10.6664   15.3495   18.9096 O   0  0  0  0  0  0  0  0  0  0  0  0
    9.9914   16.0743   19.8518 C   0  0  0  0  0  0  0  0  0  0  0  0
   10.4127   15.9020   21.0733 N   0  0  0  0  0  0  0  0  0  0  0  0
 14 15  1  0  0  0
 15 13  1  0  0  0
 13  9  1  0  0  0
  9 10  2  0  0  0
  9 11  1  0  0  0
 11  1  1  0  0  0
  1  2  2  0  0  0
  2  3  1  0  0  0
  2  4  1  0  0  0
  4  5  2  0  0  0
  5  6  1  0  0  0
  5  7  1  0  0  0
  7  8  2  0  0  0
  8 16  1  0  0  0
 16 17  1  0  0  0
 17 19  1  0  0  0
 19 20  1  0  0  0
 20 21  1  0  0  0
 21 22  2  0  0  0
 22 23  1  0  0  0
 23 24  1  0  0  0
 24 25  2  0  0  0
  8  1  1  0  0  0
 25 21  1  0  0  0
 11 12  1  0  0  0
 17 18  1  0  0  0
M  END
> <minimizedAffinity>
-6.17774

> <minimizedRMSD>
1.01285

$$$$
P38543


 22 23  0  0  0  0  0  0  0  0999 V2000
    7.3595   14.6112   25.8595 C   0  0  0  0  0  0  0  0  0  0  0  0
    8.7431   14.8301   26.0382 O   0  0  0  0  0  0  0  0  0  0  0  0
    9.0450   14.3606   26.8315 H   0  0  0  0  0  0  0  0  0  0  0  0
    6.6919   15.3016   24.6126 C   0  0  0  0  0  0  0  0  0  0  0  0
    5.1885   15.0852   24.4665 C   0  0  0  0  0  0  0  0  0  0  0  0
    4.9485   15.4935   23.0419 C   0  0  0  0  0  0  0  0  0  0  0  0
    6.2012   15.0410   22.3553 C   0  0  0  0  0  0  0  0  0  0  0  0
    7.2028   14.8351   23.3424 O   0  0  0  0  0  0  0  0  0  0  0  0
    7.2127   13.1575   25.8560 N   0  0  0  0  0  0  0  0  0  0  0  0
    6.5367   12.7972   26.4745 H   0  0  0  0  0  0  0  0  0  0  0  0
    7.9054   12.2019   25.0895 C   0  0  0  0  0  0  0  0  0  0  0  0
    7.3706   10.8788   25.1708 C   0  0  0  0  0  0  0  0  0  0  0  0
    6.1745   10.5699   26.0407 C   0  0  0  0  0  0  0  0  0  0  0  0
    7.9296    9.8197   24.4387 C   0  0  0  0  0  0  0  0  0  0  0  0
    9.0437   10.0105   23.6393 C   0  0  0  0  0  0  0  0  0  0  0  0
    9.6404    8.8951   22.8431 C   0  0  0  0  0  0  0  0  0  0  0  0
    9.6345   11.2651   23.6332 C   0  0  0  0  0  0  0  0  0  0  0  0
    9.1060   12.3626   24.3511 C   0  0  0  0  0  0  0  0  0  0  0  0
    9.9655   13.5968   24.2368 C   0  0  0  0  0  0  0  0  0  0  0  0
    6.7175   15.2211   27.1542 C   0  0  0  0  0  0  0  0  0  0  0  0
    7.1073   14.3846   29.3562 C   0  0  0  0  0  0  0  0  0  0  0  0
    6.3768   14.2335   28.1464 O   0  0  0  0  0  0  0  0  0  0  0  0
 21 22  1  0  0  0
 22 20  1  0  0  0
 20  1  1  0  0  0
  1  2  1  0  0  0
  1  9  1  0  0  0
  9 11  1  0  0  0
 11 12  2  0  0  0
 12 13  1  0  0  0
 12 14  1  0  0  0
 14 15  2  0  0  0
 15 16  1  0  0  0
 15 17  1  0  0  0
 17 18  2  0  0  0
 18 19  1  0  0  0
  1  4  1  0  0  0
  4  5  1  0  0  0
  5  6  1  0  0  0
  6  7  1  0  0  0
  7  8  1  0  0  0
 18 11  1  0  0  0
  8  4  1  0  0  0
  2  3  1  0  0  0
  9 10  1  0  0  0
M  END
> <minimizedAffinity>
-5.57175

> <minimizedRMSD>
0.90268

$$$$
P39158


 13 14  0  0  0  0  0  0  0  0999 V2000
    7.2008   14.2669   27.1099 C   0  0  0  0  0  0  0  0  0  0  0  0
    7.4323   12.9436   26.4553 C   0  0  0  0  0  0  0  0  0  0  0  0
    6.5921   11.8269   26.8797 C   0  0  0  0  0  0  0  0  0  0  0  0
    6.7407   10.5968   26.3571 C   0  0  0  0  0  0  0  0  0  0  0  0
    7.7460   10.3604   25.3812 C   0  0  0  0  0  0  0  0  0  0  0  0
    8.1218    9.2489   24.7969 N   0  0  0  0  0  0  0  0  0  0  0  0
    9.1260    9.6069   23.9229 C   0  0  0  0  0  0  0  0  0  0  0  0
    9.7470    8.5442   23.0919 C   0  0  0  0  0  0  0  0  0  0  0  0
    9.3731   10.9748   23.9844 C   0  0  0  0  0  0  0  0  0  0  0  0
   10.2053   11.7854   23.3252 O   0  0  0  0  0  0  0  0  0  0  0  0
    8.5034   11.4463   24.9573 N   0  0  0  0  0  0  0  0  0  0  0  0
    8.3532   12.7264   25.4941 C   0  0  0  0  0  0  0  0  0  0  0  0
   10.7808   11.4364   22.6733 H   0  0  0  0  0  0  0  0  0  0  0  0
  1  2  1  0  0  0
  2  3  1  0  0  0
  3  4  2  0  0  0
  4  5  1  0  0  0
  5  6  2  0  0  0
  6  7  1  0  0  0
  7  8  1  0  0  0
  7  9  2  0  0  0
  9 10  1  0  0  0
  9 11  1  0  0  0
 11 12  1  0  0  0
 12  2  2  0  0  0
 11  5  1  0  0  0
 10 13  1  0  0  0
M  END
> <minimizedAffinity>
-5.39949

> <minimizedRMSD>
1.28528

$$$$
P39163


 15 16  0  0  0  0  0  0  0  0999 V2000
    7.2411   12.6796   26.7360 C   0  0  0  0  0  0  0  0  0  0  0  0
    6.1174   11.6240   26.7923 C   0  0  0  0  0  0  0  0  0  0  0  0
    6.4604   10.3050   26.0879 C   0  0  0  0  0  0  0  0  0  0  0  0
    7.8899   10.2832   25.5907 C   0  0  0  0  0  0  0  0  0  0  0  0
    8.2439    9.1752   24.7269 N   0  0  0  0  0  0  0  0  0  0  0  0
    9.4475    9.6629   24.0126 C   0  0  0  0  0  0  0  0  0  0  0  0
    9.8274    8.8600   22.7926 C   0  0  0  0  0  0  0  0  0  0  0  0
    9.2332   11.1736   23.9113 C   0  0  0  0  0  0  0  0  0  0  0  0
    9.8478   11.9865   23.2450 O   0  0  0  0  0  0  0  0  0  0  0  0
    8.2596   11.4437   24.8633 N   0  0  0  0  0  0  0  0  0  0  0  0
    7.8740   12.7580   25.3378 C   0  0  0  0  0  0  0  0  0  0  0  0
    7.4900    8.9685   24.0717 H   0  0  0  0  0  0  0  0  0  0  0  0
    6.7297   14.0524   27.1817 C   0  0  0  0  0  0  0  0  0  0  0  0
    7.6907   13.8841   29.3505 C   0  0  0  0  0  0  0  0  0  0  0  0
    6.5092   14.1043   28.5922 O   0  0  0  0  0  0  0  0  0  0  0  0
 14 15  1  0  0  0
 15 13  1  0  0  0
  1 13  1  0  0  0
  1  2  1  0  0  0
  2  3  1  0  0  0
  4  3  1  0  0  0
  4  5  1  0  0  0
  5  6  1  0  0  0
  6  7  1  0  0  0
  6  8  1  0  0  0
  8  9  2  0  0  0
  8 10  1  0  0  0
 10 11  1  0  0  0
 11  1  1  0  0  0
 10  4  1  0  0  0
  5 12  1  0  0  0
M  END
> <minimizedAffinity>
-4.45585

> <minimizedRMSD>
1.22103

$$$$
P39709


 10 10  0  0  0  0  0  0  0  0999 V2000
    9.9088    9.5647   23.3263 C   0  0  0  0  0  0  0  0  0  0  0  0
    9.3901   10.7726   24.0244 C   0  0  0  0  0  0  0  0  0  0  0  0
    8.2766   10.7403   24.8628 C   0  0  0  0  0  0  0  0  0  0  0  0
    7.7616   11.9191   25.3946 C   0  0  0  0  0  0  0  0  0  0  0  0
    8.4135   13.1249   25.1526 C   0  0  0  0  0  0  0  0  0  0  0  0
    9.5922   13.1552   24.3933 C   0  0  0  0  0  0  0  0  0  0  0  0
   10.0365   11.9801   23.8045 C   0  0  0  0  0  0  0  0  0  0  0  0
   10.4064   14.4226   24.2968 C   0  0  0  0  0  0  0  0  0  0  0  0
   11.0820   14.6429   25.6466 C   0  0  0  0  0  0  0  0  0  0  0  0
   11.4635   14.4576   23.1870 C   0  0  0  0  0  0  0  0  0  0  0  0
  1  2  1  0  0  0
  2  3  2  0  0  0
  3  4  1  0  0  0
  4  5  2  0  0  0
  5  6  1  0  0  0
  6  8  1  0  0  0
  8  9  1  0  0  0
  8 10  1  0  0  0
  6  7  2  0  0  0
  7  2  1  0  0  0
M  END
> <minimizedAffinity>
-4.09148

> <minimizedRMSD>
0.45290

$$$$
P42916


 19 21  0  0  0  0  0  0  0  0999 V2000
    7.5824   13.6412   23.4863 F   0  0  0  0  0  0  0  0  0  0  0  0
    8.7748   13.0757   23.6978 C   0  0  0  0  0  0  0  0  0  0  0  0
    8.9098   11.9140   24.4327 C   0  0  0  0  0  0  0  0  0  0  0  0
   10.1829   11.4207   24.7423 C   0  0  0  0  0  0  0  0  0  0  0  0
   11.3800   12.1076   24.3834 C   0  0  0  0  0  0  0  0  0  0  0  0
   11.2079   13.1862   23.5112 C   0  0  0  0  0  0  0  0  0  0  0  0
   12.1468   13.9485   22.8838 N   0  0  0  0  0  0  0  0  0  0  0  0
   11.4655   14.7124   22.0658 C   0  0  0  0  0  0  0  0  0  0  0  0
   10.1259   14.6352   22.2898 N   0  0  0  0  0  0  0  0  0  0  0  0
    9.9296   13.6266   23.1831 C   0  0  0  0  0  0  0  0  0  0  0  0
    9.4305   15.2011   21.8832 H   0  0  0  0  0  0  0  0  0  0  0  0
   12.6871   11.6668   25.0181 C   0  0  0  0  0  0  0  0  0  0  0  0
   13.9144   12.5351   25.3231 C   0  0  0  0  0  0  0  0  0  0  0  0
   15.1787   11.9037   24.7072 C   0  0  0  0  0  0  0  0  0  0  0  0
   15.8068   10.8680   25.6245 C   0  0  0  0  0  0  0  0  0  0  0  0
   16.2685   11.5144   26.9296 C   0  0  0  0  0  0  0  0  0  0  0  0
   15.5442   12.7474   27.2605 N   0  0  0  0  0  0  0  0  0  0  0  0
   14.1415   12.6631   26.8559 C   0  0  0  0  0  0  0  0  0  0  0  0
   15.9832   13.5308   26.7768 H   0  0  0  0  0  0  0  0  0  0  0  0
  1  2  1  0  0  0
  2  3  2  0  0  0
  3  4  1  0  0  0
  4  5  2  0  0  0
  5 12  1  0  0  0
 13 12  1  0  0  0
 13 14  1  0  0  0
 14 15  1  0  0  0
 15 16  1  0  0  0
 16 17  1  0  0  0
 17 18  1  0  0  0
  5  6  1  0  0  0
  6  7  1  0  0  0
  7  8  2  0  0  0
  8  9  1  0  0  0
  9 10  1  0  0  0
 10  2  1  0  0  0
 18 13  1  0  0  0
 10  6  2  0  0  0
 17 19  1  0  0  0
  9 11  1  0  0  0
M  END
> <minimizedAffinity>
-6.31427

> <minimizedRMSD>
1.25742

$$$$
P44243


 43 46  0  0  0  0  0  0  0  0999 V2000
    5.5456   15.2688   23.9677 C   0  0  0  0  0  0  0  0  0  0  0  0
    4.4083   15.6127   24.9433 C   0  0  0  0  0  0  0  0  0  0  0  0
    4.2281   16.8713   25.5179 C   0  0  0  0  0  0  0  0  0  0  0  0
    3.1736   17.1271   26.4044 C   0  0  0  0  0  0  0  0  0  0  0  0
    2.3051   16.1068   26.8073 C   0  0  0  0  0  0  0  0  0  0  0  0
    1.2539   16.3453   27.7076 C   0  0  0  0  0  0  0  0  0  0  0  0
    0.4419   15.3003   28.1481 C   0  0  0  0  0  0  0  0  0  0  0  0
    0.6835   14.0039   27.7099 C   0  0  0  0  0  0  0  0  0  0  0  0
    1.7166   13.7585   26.8062 C   0  0  0  0  0  0  0  0  0  0  0  0
    2.5181   14.8054   26.3214 C   0  0  0  0  0  0  0  0  0  0  0  0
    3.5389   14.5899   25.3765 C   0  0  0  0  0  0  0  0  0  0  0  0
    7.2740   14.5786   25.9339 C   0  0  0  0  0  0  0  0  0  0  0  0
    7.4413   15.5350   26.5795 O   0  0  0  0  0  0  0  0  0  0  0  0
    6.4367   14.3686   24.6650 N   0  0  0  0  0  0  0  0  0  0  0  0
    6.5199   13.4752   24.2597 H   0  0  0  0  0  0  0  0  0  0  0  0
    8.0456   13.3328   26.2806 C   0  0  0  0  0  0  0  0  0  0  0  0
    5.7908   11.1346   27.2245 C   0  0  0  0  0  0  0  0  0  0  0  0
    6.8361   10.9917   26.1867 C   0  0  0  0  0  0  0  0  0  0  0  0
    7.0445    9.7991   25.6129 N   0  0  0  0  0  0  0  0  0  0  0  0
    8.0944    9.9913   24.7962 N   0  0  0  0  0  0  0  0  0  0  0  0
    8.6915    8.8730   24.0963 C   0  0  0  0  0  0  0  0  0  0  0  0
    8.5076   11.2908   24.7940 C   0  0  0  0  0  0  0  0  0  0  0  0
    9.5667   11.8000   23.9257 C   0  0  0  0  0  0  0  0  0  0  0  0
    7.7618   11.9681   25.7396 C   0  0  0  0  0  0  0  0  0  0  0  0
    6.3235   16.4861   23.3778 C   0  0  0  0  0  0  0  0  0  0  0  0
    7.6979   16.2500   22.9757 N   0  0  0  0  0  0  0  0  0  0  0  0
    8.3466   15.0277   22.2546 C   0  0  0  0  0  0  0  0  0  0  0  0
    7.8561   14.0630   21.8087 O   0  0  0  0  0  0  0  0  0  0  0  0
    8.3223   16.9795   23.1931 H   0  0  0  0  0  0  0  0  0  0  0  0
    9.9580   15.2875   22.3273 C   0  0  0  0  0  0  0  0  0  0  0  0
   10.6981   13.6742   22.2125 Cl  0  0  0  0  0  0  0  0  0  0  0  0
   10.1810   15.7348   23.7383 N   0  0  0  0  0  0  0  0  0  0  0  0
   11.5425   15.9982   24.1490 C   0  0  0  0  0  0  0  0  0  0  0  0
   12.5593   15.9243   23.0319 C   0  0  0  0  0  0  0  0  0  0  0  0
   12.0860   16.6130   21.7615 C   0  0  0  0  0  0  0  0  0  0  0  0
   10.6374   16.2686   21.3657 C   0  0  0  0  0  0  0  0  0  0  0  0
    9.8124   15.0074   24.3510 H   0  0  0  0  0  0  0  0  0  0  0  0
   10.5567   15.7191   19.6622 S   0  0  0  0  0  0  0  0  0  0  0  0
   11.9999   14.9696   19.3144 N   0  0  0  0  0  0  0  0  0  0  0  0
   10.4826   16.8281   18.7612 O   0  0  0  0  0  0  0  0  0  0  0  0
    9.5476   14.7207   19.5842 O   0  0  0  0  0  0  0  0  0  0  0  0
   12.7568   15.6520   19.3588 H   0  0  0  0  0  0  0  0  0  0  0  0
   11.9578   14.5692   18.3772 H   0  0  0  0  0  0  0  0  0  0  0  0
 17 18  1  0  0  0
 18 19  2  0  0  0
 19 20  1  0  0  0
 20 21  1  0  0  0
 20 22  1  0  0  0
 22 23  1  0  0  0
 22 24  2  0  0  0
 24 16  1  0  0  0
 16 12  1  0  0  0
 12 13  2  0  0  0
 12 14  1  0  0  0
 14  1  1  0  0  0
  1 25  1  0  0  0
 25 26  1  0  0  0
 26 27  1  0  0  0
 27 28  2  0  0  0
 27 30  1  0  0  0
 30 31  1  0  0  0
 30 32  1  0  0  0
 32 33  1  0  0  0
 33 34  1  0  0  0
 34 35  1  0  0  0
 35 36  1  0  0  0
 36 38  1  0  0  0
 38 39  1  0  0  0
 38 40  2  0  0  0
 38 41  2  0  0  0
  1  2  1  0  0  0
  2  3  2  0  0  0
  3  4  1  0  0  0
  4  5  2  0  0  0
  5  6  1  0  0  0
  6  7  2  0  0  0
  7  8  1  0  0  0
  8  9  2  0  0  0
  9 10  1  0  0  0
 10 11  2  0  0  0
 24 18  1  0  0  0
 36 30  1  0  0  0
 11  2  1  0  0  0
 10  5  1  0  0  0
 14 15  1  0  0  0
 26 29  1  0  0  0
 32 37  1  0  0  0
 39 42  1  0  0  0
 39 43  1  0  0  0
M  END
> <minimizedAffinity>
-7.71330

> <minimizedRMSD>
0.47640

$$$$
P44244


 41 44  0  0  0  0  0  0  0  0999 V2000
    5.3600   15.5368   25.2364 C   0  0  0  0  0  0  0  0  0  0  0  0
    3.9316   15.8420   25.6248 C   0  0  0  0  0  0  0  0  0  0  0  0
    3.3983   17.1057   25.3348 C   0  0  0  0  0  0  0  0  0  0  0  0
    2.1160   17.4520   25.7564 C   0  0  0  0  0  0  0  0  0  0  0  0
    1.3590   16.5570   26.5224 C   0  0  0  0  0  0  0  0  0  0  0  0
    0.1066   16.9180   27.0350 C   0  0  0  0  0  0  0  0  0  0  0  0
   -0.5989   16.0402   27.8565 C   0  0  0  0  0  0  0  0  0  0  0  0
   -0.0699   14.7891   28.1640 C   0  0  0  0  0  0  0  0  0  0  0  0
    1.1576   14.4017   27.6337 C   0  0  0  0  0  0  0  0  0  0  0  0
    1.8825   15.2775   26.8151 C   0  0  0  0  0  0  0  0  0  0  0  0
    3.1397   14.9195   26.3183 C   0  0  0  0  0  0  0  0  0  0  0  0
    6.5308   14.5895   27.5019 C   0  0  0  0  0  0  0  0  0  0  0  0
    6.4996   15.4586   28.2806 O   0  0  0  0  0  0  0  0  0  0  0  0
    5.9819   14.5172   26.0603 N   0  0  0  0  0  0  0  0  0  0  0  0
    6.0678   13.6357   25.6303 H   0  0  0  0  0  0  0  0  0  0  0  0
    7.2930   13.3195   27.8236 C   0  0  0  0  0  0  0  0  0  0  0  0
    4.9290   11.0914   27.6737 C   0  0  0  0  0  0  0  0  0  0  0  0
    6.1663   11.1688   26.8675 C   0  0  0  0  0  0  0  0  0  0  0  0
    6.4515   10.1935   26.0063 N   0  0  0  0  0  0  0  0  0  0  0  0
    7.6591   10.5131   25.5013 N   0  0  0  0  0  0  0  0  0  0  0  0
    8.1369   11.6870   26.0166 C   0  0  0  0  0  0  0  0  0  0  0  0
    9.4201   12.2625   25.5983 C   0  0  0  0  0  0  0  0  0  0  0  0
    7.1887   12.1453   26.9156 C   0  0  0  0  0  0  0  0  0  0  0  0
    8.3112    9.5269   24.6532 C   0  0  0  0  0  0  0  0  0  0  0  0
    9.5317   10.0201   23.4976 S   0  0  0  0  0  0  0  0  0  0  0  0
    8.9591   10.7916   22.5350 H   0  0  0  0  0  0  0  0  0  0  0  0
    5.4859   15.2567   23.7342 C   0  0  0  0  0  0  0  0  0  0  0  0
    6.8607   15.2486   23.3012 N   0  0  0  0  0  0  0  0  0  0  0  0
    7.7575   14.0925   22.8713 C   0  0  0  0  0  0  0  0  0  0  0  0
    7.5154   12.9694   22.7220 O   0  0  0  0  0  0  0  0  0  0  0  0
    9.0022   14.6194   22.5611 N   0  0  0  0  0  0  0  0  0  0  0  0
   10.1240   14.7135   23.4677 C   0  0  0  0  0  0  0  0  0  0  0  0
   11.3233   13.9247   22.9858 C   0  0  0  0  0  0  0  0  0  0  0  0
   11.7349   14.5029   21.6354 C   0  0  0  0  0  0  0  0  0  0  0  0
   10.5305   14.5829   20.6908 C   0  0  0  0  0  0  0  0  0  0  0  0
    9.2246   15.1195   21.2405 C   0  0  0  0  0  0  0  0  0  0  0  0
    9.1171   16.8914   21.3461 Cl  0  0  0  0  0  0  0  0  0  0  0  0
    7.2910   16.1338   23.2794 H   0  0  0  0  0  0  0  0  0  0  0  0
   10.8130   15.1899   19.3564 C   0  0  0  0  0  0  0  0  0  0  0  0
    9.6000   15.3631   18.7732 F   0  0  0  0  0  0  0  0  0  0  0  0
   11.5306   14.2705   18.6568 F   0  0  0  0  0  0  0  0  0  0  0  0
 17 18  1  0  0  0
 18 19  2  0  0  0
 19 20  1  0  0  0
 20 24  1  0  0  0
 24 25  1  0  0  0
 20 21  1  0  0  0
 21 22  1  0  0  0
 21 23  2  0  0  0
 23 16  1  0  0  0
 16 12  1  0  0  0
 12 13  2  0  0  0
 12 14  1  0  0  0
 14  1  1  0  0  0
  1 27  1  0  0  0
 27 28  1  0  0  0
 28 29  1  0  0  0
 29 30  2  0  0  0
 29 31  1  0  0  0
 31 32  1  0  0  0
 32 33  1  0  0  0
 33 34  1  0  0  0
 34 35  1  0  0  0
 35 39  1  0  0  0
 39 40  1  0  0  0
 39 41  1  0  0  0
 35 36  1  0  0  0
 36 37  1  0  0  0
  1  2  1  0  0  0
  2  3  2  0  0  0
  3  4  1  0  0  0
  4  5  2  0  0  0
  5  6  1  0  0  0
  6  7  2  0  0  0
  7  8  1  0  0  0
  8  9  2  0  0  0
  9 10  1  0  0  0
 10 11  2  0  0  0
 23 18  1  0  0  0
 36 31  1  0  0  0
 11  2  1  0  0  0
 10  5  1  0  0  0
 25 26  1  0  0  0
 14 15  1  0  0  0
 28 38  1  0  0  0
M  END
> <minimizedAffinity>
-6.54457

> <minimizedRMSD>
0.85377

$$$$
P44246


 41 44  0  0  0  0  0  0  0  0999 V2000
    5.7642   15.6237   24.3408 C   0  0  0  0  0  0  0  0  0  0  0  0
    4.3953   15.5783   25.0190 C   0  0  0  0  0  0  0  0  0  0  0  0
    3.6787   16.7617   25.2208 C   0  0  0  0  0  0  0  0  0  0  0  0
    2.4990   16.7674   25.9695 C   0  0  0  0  0  0  0  0  0  0  0  0
    2.0416   15.5976   26.5914 C   0  0  0  0  0  0  0  0  0  0  0  0
    0.9184   15.6011   27.4307 C   0  0  0  0  0  0  0  0  0  0  0  0
    0.5329   14.4424   28.1046 C   0  0  0  0  0  0  0  0  0  0  0  0
    1.2599   13.2674   27.9442 C   0  0  0  0  0  0  0  0  0  0  0  0
    2.3503   13.2362   27.0792 C   0  0  0  0  0  0  0  0  0  0  0  0
    2.7489   14.3946   26.3966 C   0  0  0  0  0  0  0  0  0  0  0  0
    3.8701   14.3886   25.5585 C   0  0  0  0  0  0  0  0  0  0  0  0
    7.2653   15.2822   26.5811 C   0  0  0  0  0  0  0  0  0  0  0  0
    7.1261   16.2460   27.2242 O   0  0  0  0  0  0  0  0  0  0  0  0
    6.7014   14.9166   25.1937 N   0  0  0  0  0  0  0  0  0  0  0  0
    7.0307   14.0645   24.8265 H   0  0  0  0  0  0  0  0  0  0  0  0
    8.0218   14.0748   27.1182 C   0  0  0  0  0  0  0  0  0  0  0  0
    5.5858   12.0507   27.7520 C   0  0  0  0  0  0  0  0  0  0  0  0
    6.7081   11.8601   26.8073 C   0  0  0  0  0  0  0  0  0  0  0  0
    6.8062   10.7202   26.1318 N   0  0  0  0  0  0  0  0  0  0  0  0
    7.9619   10.8148   25.4496 N   0  0  0  0  0  0  0  0  0  0  0  0
    8.5617   12.0366   25.6202 C   0  0  0  0  0  0  0  0  0  0  0  0
    9.7913   12.4612   24.9349 C   0  0  0  0  0  0  0  0  0  0  0  0
    7.7764   12.7411   26.5121 C   0  0  0  0  0  0  0  0  0  0  0  0
    8.3936    9.6259   24.7350 C   0  0  0  0  0  0  0  0  0  0  0  0
    9.5106    9.7976   23.4039 S   0  0  0  0  0  0  0  0  0  0  0  0
    8.9141   10.4921   22.3982 H   0  0  0  0  0  0  0  0  0  0  0  0
    5.7223   15.2182   22.8609 C   0  0  0  0  0  0  0  0  0  0  0  0
    6.9793   15.4062   22.1688 N   0  0  0  0  0  0  0  0  0  0  0  0
    8.1141   14.4056   21.8627 C   0  0  0  0  0  0  0  0  0  0  0  0
    8.1789   13.2619   22.0519 O   0  0  0  0  0  0  0  0  0  0  0  0
    7.1361   16.3207   21.8398 H   0  0  0  0  0  0  0  0  0  0  0  0
    9.3989   15.2180   21.2823 C   0  0  0  0  0  0  0  0  0  0  0  0
    9.0888   16.9417   21.5632 Cl  0  0  0  0  0  0  0  0  0  0  0  0
   10.4315   14.6755   22.1698 N   0  0  0  0  0  0  0  0  0  0  0  0
   11.8228   14.8015   21.8544 C   0  0  0  0  0  0  0  0  0  0  0  0
   12.0676   14.1256   20.5498 C   0  0  0  0  0  0  0  0  0  0  0  0
   11.3165   14.9206   19.5126 C   0  0  0  0  0  0  0  0  0  0  0  0
    9.7950   14.9653   19.8079 C   0  0  0  0  0  0  0  0  0  0  0  0
   10.2438   13.6765   22.2548 H   0  0  0  0  0  0  0  0  0  0  0  0
    9.1897   15.9006   18.7697 C   0  0  0  0  0  0  0  0  0  0  0  0
   10.1043   16.8978   18.5790 F   0  0  0  0  0  0  0  0  0  0  0  0
 17 18  1  0  0  0
 18 19  2  0  0  0
 19 20  1  0  0  0
 20 24  1  0  0  0
 24 25  1  0  0  0
 20 21  1  0  0  0
 21 22  1  0  0  0
 21 23  2  0  0  0
 23 16  1  0  0  0
 16 12  1  0  0  0
 12 13  2  0  0  0
 12 14  1  0  0  0
 14  1  1  0  0  0
  1 27  1  0  0  0
 27 28  1  0  0  0
 28 29  1  0  0  0
 29 30  2  0  0  0
 29 32  1  0  0  0
 32 33  1  0  0  0
 32 34  1  0  0  0
 34 35  1  0  0  0
 35 36  1  0  0  0
 36 37  1  0  0  0
 37 38  1  0  0  0
 38 40  1  0  0  0
 40 41  1  0  0  0
  1  2  1  0  0  0
  2  3  2  0  0  0
  3  4  1  0  0  0
  4  5  2  0  0  0
  5  6  1  0  0  0
  6  7  2  0  0  0
  7  8  1  0  0  0
  8  9  2  0  0  0
  9 10  1  0  0  0
 10 11  2  0  0  0
 23 18  1  0  0  0
 38 32  1  0  0  0
 11  2  1  0  0  0
 10  5  1  0  0  0
 25 26  1  0  0  0
 14 15  1  0  0  0
 28 31  1  0  0  0
 34 39  1  0  0  0
M  END
> <minimizedAffinity>
-6.60571

> <minimizedRMSD>
1.02905

$$$$
P44248


 42 45  0  0  0  0  0  0  0  0999 V2000
    5.9416   15.3503   24.6240 C   0  0  0  0  0  0  0  0  0  0  0  0
    4.5656   15.1405   25.2368 C   0  0  0  0  0  0  0  0  0  0  0  0
    3.6004   16.1485   25.1328 C   0  0  0  0  0  0  0  0  0  0  0  0
    2.3708   16.0460   25.7886 C   0  0  0  0  0  0  0  0  0  0  0  0
    2.0957   14.9517   26.6172 C   0  0  0  0  0  0  0  0  0  0  0  0
    0.8984   14.8667   27.3436 C   0  0  0  0  0  0  0  0  0  0  0  0
    0.6746   13.8046   28.2183 C   0  0  0  0  0  0  0  0  0  0  0  0
    1.6421   12.8170   28.3772 C   0  0  0  0  0  0  0  0  0  0  0  0
    2.8239   12.8745   27.6415 C   0  0  0  0  0  0  0  0  0  0  0  0
    3.0616   13.9315   26.7498 C   0  0  0  0  0  0  0  0  0  0  0  0
    4.2585   14.0163   26.0191 C   0  0  0  0  0  0  0  0  0  0  0  0
    6.8871   14.3155   25.0413 N   0  0  0  0  0  0  0  0  0  0  0  0
    7.6298   14.1162   26.3814 C   0  0  0  0  0  0  0  0  0  0  0  0
    7.5450   14.7025   27.3887 O   0  0  0  0  0  0  0  0  0  0  0  0
    7.0822   13.6353   24.3568 H   0  0  0  0  0  0  0  0  0  0  0  0
    8.6905   13.0335   26.2676 C   0  0  0  0  0  0  0  0  0  0  0  0
    8.4353   11.7540   25.5581 C   0  0  0  0  0  0  0  0  0  0  0  0
    7.3951   10.8145   25.7693 C   0  0  0  0  0  0  0  0  0  0  0  0
    6.2669   10.9128   26.7228 C   0  0  0  0  0  0  0  0  0  0  0  0
    7.5712    9.6978   25.0519 N   0  0  0  0  0  0  0  0  0  0  0  0
    8.6876    9.9222   24.3399 N   0  0  0  0  0  0  0  0  0  0  0  0
    9.2394    8.9600   23.4050 C   0  0  0  0  0  0  0  0  0  0  0  0
    9.2841   11.0914   24.6962 C   0  0  0  0  0  0  0  0  0  0  0  0
   10.6217   11.3705   24.1973 C   0  0  0  0  0  0  0  0  0  0  0  0
    5.9513   15.6463   23.0917 C   0  0  0  0  0  0  0  0  0  0  0  0
    8.0293   14.1321   22.2722 C   0  0  0  0  0  0  0  0  0  0  0  0
    7.6791   13.0281   22.3460 O   0  0  0  0  0  0  0  0  0  0  0  0
    7.2810   15.4249   22.5566 N   0  0  0  0  0  0  0  0  0  0  0  0
    7.7807   16.2456   22.3425 H   0  0  0  0  0  0  0  0  0  0  0  0
   10.1181   15.2151   20.7894 C   0  0  0  0  0  0  0  0  0  0  0  0
   10.0390   14.4304   19.6702 F   0  0  0  0  0  0  0  0  0  0  0  0
   11.6205   15.3920   21.0709 C   0  0  0  0  0  0  0  0  0  0  0  0
   12.2406   14.3028   21.9048 C   0  0  0  0  0  0  0  0  0  0  0  0
   11.6211   14.2673   23.2735 C   0  0  0  0  0  0  0  0  0  0  0  0
   10.1870   14.4944   23.2712 N   0  0  0  0  0  0  0  0  0  0  0  0
    9.5281   14.3733   21.9293 C   0  0  0  0  0  0  0  0  0  0  0  0
   10.0152   15.4358   23.6243 H   0  0  0  0  0  0  0  0  0  0  0  0
    9.4887   16.8538   19.0735 C   0  0  0  0  0  0  0  0  0  0  0  0
    9.5440   16.5547   20.3801 C   0  0  0  0  0  0  0  0  0  0  0  0
    9.1417   17.4445   21.3509 N   0  0  0  0  0  0  0  0  0  0  0  0
    8.7672   18.3179   21.0935 H   0  0  0  0  0  0  0  0  0  0  0  0
    9.2285   17.2073   22.3025 H   0  0  0  0  0  0  0  0  0  0  0  0
 38 39  2  0  0  0
 39 40  1  0  0  0
 39 30  1  0  0  0
 30 31  1  0  0  0
 30 32  1  0  0  0
 32 33  1  0  0  0
 33 34  1  0  0  0
 34 35  1  0  0  0
 35 36  1  0  0  0
 36 26  1  0  0  0
 26 27  2  0  0  0
 26 28  1  0  0  0
 28 25  1  0  0  0
  1 25  1  0  0  0
  1 12  1  0  0  0
 12 13  1  0  0  0
 13 14  2  0  0  0
 13 16  1  0  0  0
 16 17  1  0  0  0
 17 18  1  0  0  0
 18 19  1  0  0  0
 18 20  2  0  0  0
 20 21  1  0  0  0
 21 22  1  0  0  0
 21 23  1  0  0  0
 23 24  1  0  0  0
  1  2  1  0  0  0
  2  3  2  0  0  0
  3  4  1  0  0  0
  4  5  2  0  0  0
  5  6  1  0  0  0
  6  7  2  0  0  0
  7  8  1  0  0  0
  8  9  2  0  0  0
  9 10  1  0  0  0
 10 11  2  0  0  0
 36 30  1  0  0  0
 23 17  2  0  0  0
 11  2  1  0  0  0
 10  5  1  0  0  0
 40 41  1  0  0  0
 40 42  1  0  0  0
 35 37  1  0  0  0
 28 29  1  0  0  0
 12 15  1  0  0  0
M  END
> <minimizedAffinity>
-7.95303

> <minimizedRMSD>
0.67424

$$$$
P44258


 41 44  0  0  0  0  0  0  0  0999 V2000
    6.0090   15.2861   24.4813 C   0  0  0  0  0  0  0  0  0  0  0  0
    4.6940   15.1032   25.2227 C   0  0  0  0  0  0  0  0  0  0  0  0
    3.7224   16.1099   25.1306 C   0  0  0  0  0  0  0  0  0  0  0  0
    2.5076   16.0104   25.8092 C   0  0  0  0  0  0  0  0  0  0  0  0
    2.2514   14.9191   26.6453 C   0  0  0  0  0  0  0  0  0  0  0  0
    1.0520   14.8235   27.3661 C   0  0  0  0  0  0  0  0  0  0  0  0
    0.8328   13.7571   28.2361 C   0  0  0  0  0  0  0  0  0  0  0  0
    1.8087   12.7784   28.3995 C   0  0  0  0  0  0  0  0  0  0  0  0
    2.9988   12.8527   27.6769 C   0  0  0  0  0  0  0  0  0  0  0  0
    3.2308   13.9104   26.7837 C   0  0  0  0  0  0  0  0  0  0  0  0
    4.4234   13.9978   26.0425 C   0  0  0  0  0  0  0  0  0  0  0  0
    7.0285   14.3744   24.9544 N   0  0  0  0  0  0  0  0  0  0  0  0
    7.9352   14.4455   26.1962 C   0  0  0  0  0  0  0  0  0  0  0  0
    8.0599   15.2880   26.9956 O   0  0  0  0  0  0  0  0  0  0  0  0
    7.1643   13.5791   24.3901 H   0  0  0  0  0  0  0  0  0  0  0  0
    8.7041   13.1592   26.4111 C   0  0  0  0  0  0  0  0  0  0  0  0
    8.4560   11.9335   25.6121 C   0  0  0  0  0  0  0  0  0  0  0  0
    7.5029   10.9128   25.8708 C   0  0  0  0  0  0  0  0  0  0  0  0
    6.4102   10.8884   26.8745 C   0  0  0  0  0  0  0  0  0  0  0  0
    7.7182    9.8392   25.1105 N   0  0  0  0  0  0  0  0  0  0  0  0
    8.7506   10.1819   24.3143 N   0  0  0  0  0  0  0  0  0  0  0  0
    9.3029    9.1974   23.4100 C   0  0  0  0  0  0  0  0  0  0  0  0
    9.1936   11.4612   24.5389 C   0  0  0  0  0  0  0  0  0  0  0  0
   10.2965   12.0924   23.7697 C   0  0  0  0  0  0  0  0  0  0  0  0
    5.8621   15.3226   22.9496 C   0  0  0  0  0  0  0  0  0  0  0  0
    8.1979   14.9935   21.6136 C   0  0  0  0  0  0  0  0  0  0  0  0
    8.2943   13.8570   21.3918 O   0  0  0  0  0  0  0  0  0  0  0  0
    7.0708   15.7825   22.3019 N   0  0  0  0  0  0  0  0  0  0  0  0
    7.1919   16.7596   22.3015 H   0  0  0  0  0  0  0  0  0  0  0  0
   10.3072   15.8131   20.1563 C   0  0  0  0  0  0  0  0  0  0  0  0
    9.8639   16.3485   18.8033 C   0  0  0  0  0  0  0  0  0  0  0  0
    9.2716   17.7404   18.8966 C   0  0  0  0  0  0  0  0  0  0  0  0
    8.4907   18.0236   20.1628 C   0  0  0  0  0  0  0  0  0  0  0  0
    8.9340   17.4321   21.4282 N   0  0  0  0  0  0  0  0  0  0  0  0
    9.3358   16.0037   21.3227 C   0  0  0  0  0  0  0  0  0  0  0  0
    8.1691   17.5010   22.0994 H   0  0  0  0  0  0  0  0  0  0  0  0
   12.0307   14.4264   21.2722 C   0  0  0  0  0  0  0  0  0  0  0  0
   11.3441   14.6994   20.1505 C   0  0  0  0  0  0  0  0  0  0  0  0
   11.7323   14.1179   18.9476 N   0  0  0  0  0  0  0  0  0  0  0  0
   12.4031   13.3973   18.9430 H   0  0  0  0  0  0  0  0  0  0  0  0
   11.3361   14.4269   18.1010 H   0  0  0  0  0  0  0  0  0  0  0  0
 37 38  2  0  0  0
 38 39  1  0  0  0
 30 38  1  0  0  0
 30 31  1  0  0  0
 31 32  1  0  0  0
 32 33  1  0  0  0
 33 34  1  0  0  0
 34 35  1  0  0  0
 35 26  1  0  0  0
 26 27  2  0  0  0
 26 28  1  0  0  0
 28 25  1  0  0  0
  1 25  1  0  0  0
  1 12  1  0  0  0
 12 13  1  0  0  0
 13 14  2  0  0  0
 13 16  1  0  0  0
 16 17  1  0  0  0
 17 18  1  0  0  0
 18 19  1  0  0  0
 18 20  2  0  0  0
 20 21  1  0  0  0
 21 22  1  0  0  0
 21 23  1  0  0  0
 23 24  1  0  0  0
  1  2  1  0  0  0
  2  3  2  0  0  0
  3  4  1  0  0  0
  4  5  2  0  0  0
  5  6  1  0  0  0
  6  7  2  0  0  0
  7  8  1  0  0  0
  8  9  2  0  0  0
  9 10  1  0  0  0
 10 11  2  0  0  0
 35 30  1  0  0  0
 23 17  2  0  0  0
 11  2  1  0  0  0
 10  5  1  0  0  0
 39 40  1  0  0  0
 39 41  1  0  0  0
 34 36  1  0  0  0
 28 29  1  0  0  0
 12 15  1  0  0  0
M  END
> <minimizedAffinity>
-8.72324

> <minimizedRMSD>
0.49109

$$$$
P44331


 42 45  0  0  0  0  0  0  0  0999 V2000
    4.9263   15.1798   23.3146 C   0  0  0  0  0  0  0  0  0  0  0  0
    3.5944   15.3838   24.0196 C   0  0  0  0  0  0  0  0  0  0  0  0
    2.6907   16.4087   23.7361 C   0  0  0  0  0  0  0  0  0  0  0  0
    1.4984   16.5182   24.4611 C   0  0  0  0  0  0  0  0  0  0  0  0
    1.2116   15.6421   25.5225 C   0  0  0  0  0  0  0  0  0  0  0  0
    0.0240   15.7295   26.2650 C   0  0  0  0  0  0  0  0  0  0  0  0
   -0.2171   14.8630   27.3338 C   0  0  0  0  0  0  0  0  0  0  0  0
    0.7278   13.9048   27.6820 C   0  0  0  0  0  0  0  0  0  0  0  0
    1.9065   13.7988   26.9494 C   0  0  0  0  0  0  0  0  0  0  0  0
    2.1495   14.6506   25.8627 C   0  0  0  0  0  0  0  0  0  0  0  0
    3.3101   14.5289   25.0972 C   0  0  0  0  0  0  0  0  0  0  0  0
    5.8275   14.5902   24.2896 N   0  0  0  0  0  0  0  0  0  0  0  0
    6.7506   15.2566   25.3362 C   0  0  0  0  0  0  0  0  0  0  0  0
    6.9892   16.3855   25.5263 O   0  0  0  0  0  0  0  0  0  0  0  0
    5.8551   13.6061   24.2830 H   0  0  0  0  0  0  0  0  0  0  0  0
    7.3365   14.2119   26.3094 C   0  0  0  0  0  0  0  0  0  0  0  0
    7.3318   12.7579   25.9620 C   0  0  0  0  0  0  0  0  0  0  0  0
    6.3586   11.7929   26.3347 C   0  0  0  0  0  0  0  0  0  0  0  0
    5.1551   12.0088   27.1729 C   0  0  0  0  0  0  0  0  0  0  0  0
    6.6650   10.5713   25.8877 N   0  0  0  0  0  0  0  0  0  0  0  0
    7.8332   10.7337   25.2487 N   0  0  0  0  0  0  0  0  0  0  0  0
    8.4559    9.6372   24.5439 C   0  0  0  0  0  0  0  0  0  0  0  0
    8.3348   11.9914   25.3967 C   0  0  0  0  0  0  0  0  0  0  0  0
    9.7246   12.2903   25.0297 C   0  0  0  0  0  0  0  0  0  0  0  0
    5.4397   16.3700   22.4600 C   0  0  0  0  0  0  0  0  0  0  0  0
    7.8926   15.3885   21.8395 C   0  0  0  0  0  0  0  0  0  0  0  0
    7.7466   14.2608   21.5753 O   0  0  0  0  0  0  0  0  0  0  0  0
    6.8621   16.4541   22.3114 N   0  0  0  0  0  0  0  0  0  0  0  0
    7.2503   17.3279   22.5459 H   0  0  0  0  0  0  0  0  0  0  0  0
   10.4453   15.2374   21.3635 C   0  0  0  0  0  0  0  0  0  0  0  0
   11.7449   15.5755   22.1172 C   0  0  0  0  0  0  0  0  0  0  0  0
   11.5629   15.4950   23.6345 C   0  0  0  0  0  0  0  0  0  0  0  0
   12.3290   14.3262   24.2286 C   0  0  0  0  0  0  0  0  0  0  0  0
   10.1131   15.5298   24.0685 C   0  0  0  0  0  0  0  0  0  0  0  0
    9.4335   16.5562   23.3061 N   0  0  0  0  0  0  0  0  0  0  0  0
    9.2674   16.1263   21.8864 C   0  0  0  0  0  0  0  0  0  0  0  0
    9.9826   17.4153   23.3350 H   0  0  0  0  0  0  0  0  0  0  0  0
   10.2364   16.2832   19.0946 C   0  0  0  0  0  0  0  0  0  0  0  0
   10.7631   15.3462   19.8791 C   0  0  0  0  0  0  0  0  0  0  0  0
   11.7190   14.5097   19.3413 N   0  0  0  0  0  0  0  0  0  0  0  0
   11.9385   14.5649   18.3832 H   0  0  0  0  0  0  0  0  0  0  0  0
   12.1816   13.8575   19.9156 H   0  0  0  0  0  0  0  0  0  0  0  0
 38 39  2  0  0  0
 39 40  1  0  0  0
 30 39  1  0  0  0
 30 31  1  0  0  0
 31 32  1  0  0  0
 32 33  1  0  0  0
 32 34  1  0  0  0
 34 35  1  0  0  0
 35 36  1  0  0  0
 36 26  1  0  0  0
 26 27  2  0  0  0
 26 28  1  0  0  0
 28 25  1  0  0  0
  1 25  1  0  0  0
  1 12  1  0  0  0
 12 13  1  0  0  0
 13 14  2  0  0  0
 13 16  1  0  0  0
 16 17  1  0  0  0
 17 18  1  0  0  0
 18 19  1  0  0  0
 18 20  2  0  0  0
 20 21  1  0  0  0
 21 22  1  0  0  0
 21 23  1  0  0  0
 23 24  1  0  0  0
  1  2  1  0  0  0
  2  3  2  0  0  0
  3  4  1  0  0  0
  4  5  2  0  0  0
  5  6  1  0  0  0
  6  7  2  0  0  0
  7  8  1  0  0  0
  8  9  2  0  0  0
  9 10  1  0  0  0
 10 11  2  0  0  0
 36 30  1  0  0  0
 23 17  2  0  0  0
 11  2  1  0  0  0
 10  5  1  0  0  0
 40 41  1  0  0  0
 40 42  1  0  0  0
 35 37  1  0  0  0
 28 29  1  0  0  0
 12 15  1  0  0  0
M  END
> <minimizedAffinity>
-7.68028

> <minimizedRMSD>
0.81785

$$$$
P44353


 43 46  0  0  0  0  0  0  0  0999 V2000
    6.2396   15.4940   24.6114 C   0  0  0  0  0  0  0  0  0  0  0  0
    4.7852   15.2666   25.0786 C   0  0  0  0  0  0  0  0  0  0  0  0
    3.7833   16.1960   24.7919 C   0  0  0  0  0  0  0  0  0  0  0  0
    2.4995   16.0757   25.3417 C   0  0  0  0  0  0  0  0  0  0  0  0
    2.1920   15.0403   26.2355 C   0  0  0  0  0  0  0  0  0  0  0  0
    0.9377   14.9471   26.8601 C   0  0  0  0  0  0  0  0  0  0  0  0
    0.6834   13.9463   27.7978 C   0  0  0  0  0  0  0  0  0  0  0  0
    1.6764   13.0273   28.1223 C   0  0  0  0  0  0  0  0  0  0  0  0
    2.9147   13.0892   27.4882 C   0  0  0  0  0  0  0  0  0  0  0  0
    3.1830   14.0869   26.5381 C   0  0  0  0  0  0  0  0  0  0  0  0
    4.4375   14.1825   25.9149 C   0  0  0  0  0  0  0  0  0  0  0  0
    7.0142   14.4490   25.2404 N   0  0  0  0  0  0  0  0  0  0  0  0
    7.1652   13.6541   24.6794 H   0  0  0  0  0  0  0  0  0  0  0  0
    7.6555   14.3730   26.6741 C   0  0  0  0  0  0  0  0  0  0  0  0
    8.0477   15.2503   27.4031 N   0  0  0  0  0  0  0  0  0  0  0  0
    8.5394   15.2134   28.7621 C   0  0  0  0  0  0  0  0  0  0  0  0
   10.0550   15.2496   28.7358 C   0  0  0  0  0  0  0  0  0  0  0  0
    7.6869   12.9347   27.2733 C   0  0  0  0  0  0  0  0  0  0  0  0
    7.6867   11.7493   26.3803 C   0  0  0  0  0  0  0  0  0  0  0  0
    6.7543   10.6926   26.3257 C   0  0  0  0  0  0  0  0  0  0  0  0
    5.5434   10.5375   27.1566 C   0  0  0  0  0  0  0  0  0  0  0  0
    7.1129    9.7423   25.4555 N   0  0  0  0  0  0  0  0  0  0  0  0
    8.2746   10.1766   24.9378 N   0  0  0  0  0  0  0  0  0  0  0  0
    8.9823    9.4127   23.9301 C   0  0  0  0  0  0  0  0  0  0  0  0
    8.6747   11.3413   25.5210 C   0  0  0  0  0  0  0  0  0  0  0  0
    9.9182   12.0083   25.1953 C   0  0  0  0  0  0  0  0  0  0  0  0
    6.3619   15.6354   23.0738 C   0  0  0  0  0  0  0  0  0  0  0  0
    8.3473   13.9226   22.3651 C   0  0  0  0  0  0  0  0  0  0  0  0
    7.9829   12.8562   22.6632 O   0  0  0  0  0  0  0  0  0  0  0  0
    7.6450   15.2779   22.4766 N   0  0  0  0  0  0  0  0  0  0  0  0
    8.1393   16.0317   22.0808 H   0  0  0  0  0  0  0  0  0  0  0  0
   10.5743   15.2257   21.1694 C   0  0  0  0  0  0  0  0  0  0  0  0
   12.0784   15.2545   21.6066 C   0  0  0  0  0  0  0  0  0  0  0  0
   12.4986   14.6242   22.9007 C   0  0  0  0  0  0  0  0  0  0  0  0
   11.4248   13.8012   23.4904 C   0  0  0  0  0  0  0  0  0  0  0  0
   10.6825   13.0996   22.4750 N   0  0  0  0  0  0  0  0  0  0  0  0
    9.8056   13.9919   21.6775 C   0  0  0  0  0  0  0  0  0  0  0  0
   10.1023   12.3926   22.9267 H   0  0  0  0  0  0  0  0  0  0  0  0
   11.3035   14.5124   18.8595 C   0  0  0  0  0  0  0  0  0  0  0  0
   10.5145   15.2878   19.6231 C   0  0  0  0  0  0  0  0  0  0  0  0
    9.6689   16.2053   19.0414 N   0  0  0  0  0  0  0  0  0  0  0  0
    9.6098   16.2676   18.0607 H   0  0  0  0  0  0  0  0  0  0  0  0
    9.1232   16.7991   19.6062 H   0  0  0  0  0  0  0  0  0  0  0  0
 39 40  2  0  0  0
 40 41  1  0  0  0
 32 40  1  0  0  0
 32 33  1  0  0  0
 33 34  1  0  0  0
 34 35  1  0  0  0
 35 36  1  0  0  0
 36 37  1  0  0  0
 37 28  1  0  0  0
 28 29  2  0  0  0
 28 30  1  0  0  0
 30 27  1  0  0  0
  1 27  1  0  0  0
  1 12  1  0  0  0
 12 14  1  0  0  0
 14 18  1  0  0  0
 18 19  1  0  0  0
 19 20  1  0  0  0
 20 21  1  0  0  0
 20 22  2  0  0  0
 22 23  1  0  0  0
 23 24  1  0  0  0
 23 25  1  0  0  0
 25 26  1  0  0  0
 14 15  2  0  0  0
 15 16  1  0  0  0
 16 17  1  0  0  0
  1  2  1  0  0  0
  2  3  2  0  0  0
  3  4  1  0  0  0
  4  5  2  0  0  0
  5  6  1  0  0  0
  6  7  2  0  0  0
  7  8  1  0  0  0
  8  9  2  0  0  0
  9 10  1  0  0  0
 10 11  2  0  0  0
 37 32  1  0  0  0
 25 19  2  0  0  0
 11  2  1  0  0  0
 10  5  1  0  0  0
 41 42  1  0  0  0
 41 43  1  0  0  0
 36 38  1  0  0  0
 30 31  1  0  0  0
 12 13  1  0  0  0
M  END
> <minimizedAffinity>
-7.61355

> <minimizedRMSD>
0.58318

$$$$
P44370


 42 45  0  0  0  0  0  0  0  0999 V2000
    5.4427   14.6142   24.0207 C   0  0  0  0  0  0  0  0  0  0  0  0
    4.3109   14.9875   24.9912 C   0  0  0  0  0  0  0  0  0  0  0  0
    3.7639   16.2673   25.1188 C   0  0  0  0  0  0  0  0  0  0  0  0
    2.6632   16.5092   25.9504 C   0  0  0  0  0  0  0  0  0  0  0  0
    2.1043   15.4838   26.7222 C   0  0  0  0  0  0  0  0  0  0  0  0
    0.9901   15.7039   27.5464 C   0  0  0  0  0  0  0  0  0  0  0  0
    0.4742   14.6741   28.3329 C   0  0  0  0  0  0  0  0  0  0  0  0
    1.0756   13.4200   28.3194 C   0  0  0  0  0  0  0  0  0  0  0  0
    2.1768   13.1859   27.4981 C   0  0  0  0  0  0  0  0  0  0  0  0
    2.6889   14.2042   26.6791 C   0  0  0  0  0  0  0  0  0  0  0  0
    3.7690   13.9769   25.8107 C   0  0  0  0  0  0  0  0  0  0  0  0
    7.4052   14.1940   25.8619 C   0  0  0  0  0  0  0  0  0  0  0  0
    7.6505   15.2365   26.3303 O   0  0  0  0  0  0  0  0  0  0  0  0
    6.4155   13.8080   24.7412 N   0  0  0  0  0  0  0  0  0  0  0  0
    6.4483   12.8621   24.4703 H   0  0  0  0  0  0  0  0  0  0  0  0
    8.0584   12.9420   26.4716 C   0  0  0  0  0  0  0  0  0  0  0  0
    7.1451   10.5381   25.9381 C   0  0  0  0  0  0  0  0  0  0  0  0
    7.4565    9.4782   25.1885 N   0  0  0  0  0  0  0  0  0  0  0  0
    8.5502    9.8678   24.5138 N   0  0  0  0  0  0  0  0  0  0  0  0
    9.2141    9.0060   23.5578 C   0  0  0  0  0  0  0  0  0  0  0  0
    8.9648   11.1101   24.8902 C   0  0  0  0  0  0  0  0  0  0  0  0
   10.2323   11.6221   24.3969 C   0  0  0  0  0  0  0  0  0  0  0  0
    8.0295   11.6277   25.7613 C   0  0  0  0  0  0  0  0  0  0  0  0
    5.1397   10.3529   27.6183 C   0  0  0  0  0  0  0  0  0  0  0  0
    6.0515   10.4169   26.8401 C   0  0  0  0  0  0  0  0  0  0  0  0
    5.9697   15.7361   23.0982 C   0  0  0  0  0  0  0  0  0  0  0  0
    7.3252   15.6646   22.6332 N   0  0  0  0  0  0  0  0  0  0  0  0
    8.1440   14.4625   22.1006 C   0  0  0  0  0  0  0  0  0  0  0  0
    7.8191   13.3627   21.8858 O   0  0  0  0  0  0  0  0  0  0  0  0
    7.8145   16.5185   22.6564 H   0  0  0  0  0  0  0  0  0  0  0  0
    9.6627   14.9876   21.9822 C   0  0  0  0  0  0  0  0  0  0  0  0
   10.1423   14.7105   23.3659 N   0  0  0  0  0  0  0  0  0  0  0  0
   11.5693   14.7756   23.5649 C   0  0  0  0  0  0  0  0  0  0  0  0
   12.2632   13.7994   22.6868 C   0  0  0  0  0  0  0  0  0  0  0  0
   12.0375   14.2189   21.2651 C   0  0  0  0  0  0  0  0  0  0  0  0
   10.5359   14.3464   20.8722 C   0  0  0  0  0  0  0  0  0  0  0  0
    9.8340   13.7723   23.6211 H   0  0  0  0  0  0  0  0  0  0  0  0
   10.4966   15.0632   19.5202 C   0  0  0  0  0  0  0  0  0  0  0  0
   11.3677   14.7157   18.5619 C   0  0  0  0  0  0  0  0  0  0  0  0
    9.6296   16.1138   19.2971 N   0  0  0  0  0  0  0  0  0  0  0  0
    8.9859   16.3774   19.9939 H   0  0  0  0  0  0  0  0  0  0  0  0
    9.6549   16.5997   18.4412 H   0  0  0  0  0  0  0  0  0  0  0  0
 24 25  3  0  0  0
 25 17  1  0  0  0
 17 18  2  0  0  0
 18 19  1  0  0  0
 19 20  1  0  0  0
 19 21  1  0  0  0
 21 22  1  0  0  0
 21 23  2  0  0  0
 23 16  1  0  0  0
 16 12  1  0  0  0
 12 13  2  0  0  0
 12 14  1  0  0  0
 14  1  1  0  0  0
  1 26  1  0  0  0
 26 27  1  0  0  0
 27 28  1  0  0  0
 28 29  2  0  0  0
 31 28  1  0  0  0
 31 32  1  0  0  0
 32 33  1  0  0  0
 33 34  1  0  0  0
 34 35  1  0  0  0
 35 36  1  0  0  0
 36 38  1  0  0  0
 38 39  2  0  0  0
 38 40  1  0  0  0
  1  2  1  0  0  0
  2  3  2  0  0  0
  3  4  1  0  0  0
  4  5  2  0  0  0
  5  6  1  0  0  0
  6  7  2  0  0  0
  7  8  1  0  0  0
  8  9  2  0  0  0
  9 10  1  0  0  0
 10 11  2  0  0  0
 23 17  1  0  0  0
 36 31  1  0  0  0
 11  2  1  0  0  0
 10  5  1  0  0  0
 14 15  1  0  0  0
 27 30  1  0  0  0
 32 37  1  0  0  0
 40 41  1  0  0  0
 40 42  1  0  0  0
M  END
> <minimizedAffinity>
-5.83112

> <minimizedRMSD>
0.31255

$$$$
P44377


 51 55  0  0  0  0  0  0  0  0999 V2000
    5.7336   15.4192   25.0745 C   0  0  0  0  0  0  0  0  0  0  0  0
    4.4061   15.5109   25.8216 C   0  0  0  0  0  0  0  0  0  0  0  0
    3.2325   16.0308   25.2729 C   0  0  0  0  0  0  0  0  0  0  0  0
    2.0504   16.0684   26.0185 C   0  0  0  0  0  0  0  0  0  0  0  0
    1.9905   15.4902   27.2910 C   0  0  0  0  0  0  0  0  0  0  0  0
    3.1448   14.9286   27.8377 C   0  0  0  0  0  0  0  0  0  0  0  0
    4.3488   15.0110   27.1377 C   0  0  0  0  0  0  0  0  0  0  0  0
    3.0728   14.1555   29.1311 C   0  0  0  0  0  0  0  0  0  0  0  0
    1.7615   13.3243   29.1921 C   0  0  0  0  0  0  0  0  0  0  0  0
    0.6073   14.3788   29.1554 C   0  0  0  0  0  0  0  0  0  0  0  0
    0.6931   15.4472   28.0483 C   0  0  0  0  0  0  0  0  0  0  0  0
    1.7107   12.3307   27.9844 C   0  0  0  0  0  0  0  0  0  0  0  0
    1.1013   11.0030   28.2158 N   0  0  0  0  0  0  0  0  0  0  0  0
   -0.0245   11.1136   29.1444 C   0  0  0  0  0  0  0  0  0  0  0  0
    0.3883   11.6246   30.5291 C   0  0  0  0  0  0  0  0  0  0  0  0
    1.6480   12.5131   30.5169 C   0  0  0  0  0  0  0  0  0  0  0  0
    1.8021   10.3756   28.6104 H   0  0  0  0  0  0  0  0  0  0  0  0
    2.8246   11.6929   30.8060 N   0  0  0  0  0  0  0  0  0  0  0  0
    3.7644   11.7522   31.8734 C   0  0  0  0  0  0  0  0  0  0  0  0
    3.8828   12.5333   32.7659 O   0  0  0  0  0  0  0  0  0  0  0  0
    2.9954   10.9784   30.1507 H   0  0  0  0  0  0  0  0  0  0  0  0
    6.4724   14.3185   25.6754 N   0  0  0  0  0  0  0  0  0  0  0  0
    7.7017   14.3000   26.3992 C   0  0  0  0  0  0  0  0  0  0  0  0
    8.4877   15.1757   26.6316 O   0  0  0  0  0  0  0  0  0  0  0  0
    6.0517   13.4355   25.5633 H   0  0  0  0  0  0  0  0  0  0  0  0
    7.9232   12.9254   27.0276 C   0  0  0  0  0  0  0  0  0  0  0  0
    7.9624   11.7521   26.1242 C   0  0  0  0  0  0  0  0  0  0  0  0
    7.0452   10.6759   26.0754 C   0  0  0  0  0  0  0  0  0  0  0  0
    5.8360   10.4786   26.9092 C   0  0  0  0  0  0  0  0  0  0  0  0
    7.4063    9.7517   25.1804 N   0  0  0  0  0  0  0  0  0  0  0  0
    8.5534   10.2121   24.6518 N   0  0  0  0  0  0  0  0  0  0  0  0
    9.2603    9.5016   23.6058 C   0  0  0  0  0  0  0  0  0  0  0  0
    8.9385   11.3819   25.2275 C   0  0  0  0  0  0  0  0  0  0  0  0
   10.1834   12.0223   24.8260 C   0  0  0  0  0  0  0  0  0  0  0  0
    5.6652   15.3580   23.5344 C   0  0  0  0  0  0  0  0  0  0  0  0
    7.6810   14.6719   22.0081 C   0  0  0  0  0  0  0  0  0  0  0  0
    7.3736   13.6375   21.4973 O   0  0  0  0  0  0  0  0  0  0  0  0
    6.9509   15.5268   22.9028 N   0  0  0  0  0  0  0  0  0  0  0  0
    7.4058   16.3720   23.1221 H   0  0  0  0  0  0  0  0  0  0  0  0
    9.5876   15.5962   20.3701 C   0  0  0  0  0  0  0  0  0  0  0  0
   11.1054   15.3841   20.1088 C   0  0  0  0  0  0  0  0  0  0  0  0
   11.6623   14.1663   20.7989 C   0  0  0  0  0  0  0  0  0  0  0  0
   11.4256   14.3251   22.2671 C   0  0  0  0  0  0  0  0  0  0  0  0
   10.0049   14.2443   22.4953 N   0  0  0  0  0  0  0  0  0  0  0  0
    9.1576   15.2461   21.8204 C   0  0  0  0  0  0  0  0  0  0  0  0
    9.8491   14.3364   23.4991 H   0  0  0  0  0  0  0  0  0  0  0  0
    9.3794   17.4064   18.6791 C   0  0  0  0  0  0  0  0  0  0  0  0
    9.2469   17.0366   19.9581 C   0  0  0  0  0  0  0  0  0  0  0  0
    8.8686   17.9792   20.8963 N   0  0  0  0  0  0  0  0  0  0  0  0
    8.6541   18.8973   20.6128 H   0  0  0  0  0  0  0  0  0  0  0  0
    8.8138   17.7323   21.8478 H   0  0  0  0  0  0  0  0  0  0  0  0
 47 48  2  0  0  0
 48 49  1  0  0  0
 40 48  1  0  0  0
 40 41  1  0  0  0
 41 42  1  0  0  0
 42 43  1  0  0  0
 43 44  1  0  0  0
 44 45  1  0  0  0
 45 36  1  0  0  0
 36 37  2  0  0  0
 36 38  1  0  0  0
 38 35  1  0  0  0
  1 35  1  0  0  0
  1 22  1  0  0  0
 22 23  1  0  0  0
 23 24  2  0  0  0
 23 26  1  0  0  0
 26 27  1  0  0  0
 27 28  1  0  0  0
 28 29  1  0  0  0
 28 30  2  0  0  0
 30 31  1  0  0  0
 31 32  1  0  0  0
 31 33  1  0  0  0
 33 34  1  0  0  0
  1  2  1  0  0  0
  2  3  2  0  0  0
  3  4  1  0  0  0
  4  5  2  0  0  0
  5  6  1  0  0  0
  6  7  2  0  0  0
  6  8  1  0  0  0
  9  8  1  0  0  0
  9 10  1  0  0  0
 10 11  1  0  0  0
  9 12  1  0  0  0
 12 13  1  0  0  0
 13 14  1  0  0  0
 14 15  1  0  0  0
 15 16  1  0  0  0
 16 18  1  0  0  0
 18 19  1  0  0  0
 19 20  2  0  0  0
 45 40  1  0  0  0
 33 27  2  0  0  0
  7  2  1  0  0  0
 16  9  1  0  0  0
 11  5  1  0  0  0
 49 50  1  0  0  0
 49 51  1  0  0  0
 44 46  1  0  0  0
 38 39  1  0  0  0
 22 25  1  0  0  0
 13 17  1  0  0  0
 18 21  1  0  0  0
M  END
> <minimizedAffinity>
-7.98936

> <minimizedRMSD>
1.00634

$$$$
P44391


 41 45  0  0  0  0  0  0  0  0999 V2000
   10.5606   14.3795   21.3931 C   0  0  0  0  0  0  0  0  0  0  0  0
   11.9158   14.7812   22.0102 C   0  0  0  0  0  0  0  0  0  0  0  0
   12.2753   14.0262   23.2640 C   0  0  0  0  0  0  0  0  0  0  0  0
   11.1544   13.9270   24.2660 C   0  0  0  0  0  0  0  0  0  0  0  0
   11.3910   13.8953   25.4729 O   0  0  0  0  0  0  0  0  0  0  0  0
    9.9125   13.5965   23.7098 N   0  0  0  0  0  0  0  0  0  0  0  0
    9.8035   12.1426   23.5772 C   0  0  0  0  0  0  0  0  0  0  0  0
    8.8891   11.4450   24.5328 C   0  0  0  0  0  0  0  0  0  0  0  0
    8.2288   11.7829   25.7083 C   0  0  0  0  0  0  0  0  0  0  0  0
    7.4230   10.6506   26.0146 C   0  0  0  0  0  0  0  0  0  0  0  0
    6.4014   10.4898   27.0801 C   0  0  0  0  0  0  0  0  0  0  0  0
    7.7051    9.6222   25.2190 N   0  0  0  0  0  0  0  0  0  0  0  0
    8.6180   10.1023   24.3576 N   0  0  0  0  0  0  0  0  0  0  0  0
    9.2253    9.1823   23.4197 C   0  0  0  0  0  0  0  0  0  0  0  0
    8.3308   13.0170   26.5302 C   0  0  0  0  0  0  0  0  0  0  0  0
    7.6115   14.2446   26.0468 C   0  0  0  0  0  0  0  0  0  0  0  0
    7.8451   15.3274   26.5860 O   0  0  0  0  0  0  0  0  0  0  0  0
    6.6926   14.0875   25.0459 N   0  0  0  0  0  0  0  0  0  0  0  0
    5.8839   15.1979   24.5659 C   0  0  0  0  0  0  0  0  0  0  0  0
    5.8426   15.2223   23.0143 C   0  0  0  0  0  0  0  0  0  0  0  0
    7.1961   15.3646   22.4562 N   0  0  0  0  0  0  0  0  0  0  0  0
    7.9896   14.2542   22.2386 C   0  0  0  0  0  0  0  0  0  0  0  0
    7.4656   13.1621   22.0251 O   0  0  0  0  0  0  0  0  0  0  0  0
    9.5079   14.4296   22.5122 C   0  0  0  0  0  0  0  0  0  0  0  0
    6.5751   13.1988   24.6390 H   0  0  0  0  0  0  0  0  0  0  0  0
    7.5403   16.2602   22.2354 H   0  0  0  0  0  0  0  0  0  0  0  0
    4.5240   15.2390   25.2489 C   0  0  0  0  0  0  0  0  0  0  0  0
    3.7701   16.4179   25.1975 C   0  0  0  0  0  0  0  0  0  0  0  0
    2.5421   16.5268   25.8539 C   0  0  0  0  0  0  0  0  0  0  0  0
    2.0575   15.4711   26.6332 C   0  0  0  0  0  0  0  0  0  0  0  0
    0.8473   15.5793   27.3351 C   0  0  0  0  0  0  0  0  0  0  0  0
    0.4084   14.5405   28.1541 C   0  0  0  0  0  0  0  0  0  0  0  0
    1.1754   13.3873   28.2873 C   0  0  0  0  0  0  0  0  0  0  0  0
    2.3714   13.2602   27.5822 C   0  0  0  0  0  0  0  0  0  0  0  0
    2.8197   14.2876   26.7369 C   0  0  0  0  0  0  0  0  0  0  0  0
    4.0221   14.1742   26.0144 C   0  0  0  0  0  0  0  0  0  0  0  0
    9.7804   16.3941   20.0609 C   0  0  0  0  0  0  0  0  0  0  0  0
   10.3967   15.2063   20.1212 C   0  0  0  0  0  0  0  0  0  0  0  0
   10.9821   14.6509   18.9970 N   0  0  0  0  0  0  0  0  0  0  0  0
   10.9255   15.1166   18.1315 H   0  0  0  0  0  0  0  0  0  0  0  0
   11.4551   13.7899   19.0628 H   0  0  0  0  0  0  0  0  0  0  0  0
 37 38  2  0  0  0
 38 39  1  0  0  0
  1 38  1  0  0  0
  1  2  1  0  0  0
  2  3  1  0  0  0
  3  4  1  0  0  0
  4  5  2  0  0  0
  4  6  1  0  0  0
  6  7  1  0  0  0
  7  8  1  0  0  0
  8  9  2  0  0  0
  9 10  1  0  0  0
 10 11  1  0  0  0
 10 12  2  0  0  0
 12 13  1  0  0  0
 13 14  1  0  0  0
  9 15  1  0  0  0
 15 16  1  0  0  0
 16 17  2  0  0  0
 16 18  1  0  0  0
 18 19  1  0  0  0
 19 27  1  0  0  0
 27 28  2  0  0  0
 28 29  1  0  0  0
 29 30  2  0  0  0
 30 31  1  0  0  0
 31 32  2  0  0  0
 32 33  1  0  0  0
 33 34  2  0  0  0
 34 35  1  0  0  0
 35 36  2  0  0  0
 19 20  1  0  0  0
 20 21  1  0  0  0
 21 22  1  0  0  0
 22 23  2  0  0  0
 24 22  1  0  0  0
 24  1  1  0  0  0
 24  6  1  0  0  0
 13  8  1  0  0  0
 36 27  1  0  0  0
 35 30  1  0  0  0
 39 40  1  0  0  0
 39 41  1  0  0  0
 18 25  1  0  0  0
 21 26  1  0  0  0
M  END
> <minimizedAffinity>
-11.45810

> <minimizedRMSD>
0.30079

$$$$
P44672


 36 38  0  0  0  0  0  0  0  0999 V2000
    7.8815   10.4727   24.3218 C   0  0  0  0  0  0  0  0  0  0  0  0
    6.9693    9.6925   25.0147 C   0  0  0  0  0  0  0  0  0  0  0  0
    6.1330   10.5749   25.6691 C   0  0  0  0  0  0  0  0  0  0  0  0
    6.5838   11.8295   25.3024 N   0  0  0  0  0  0  0  0  0  0  0  0
    7.5472   11.7423   24.3528 N   0  0  0  0  0  0  0  0  0  0  0  0
    5.0968   10.2590   26.5089 N   0  0  0  0  0  0  0  0  0  0  0  0
    4.9151   10.5214   28.0271 C   0  0  0  0  0  0  0  0  0  0  0  0
    5.5850   11.1138   28.7780 O   0  0  0  0  0  0  0  0  0  0  0  0
    4.3460    9.7895   26.0789 H   0  0  0  0  0  0  0  0  0  0  0  0
    3.6014    9.8761   28.4637 C   0  0  0  0  0  0  0  0  0  0  0  0
    2.8833   10.8164   29.4484 C   0  0  0  0  0  0  0  0  0  0  0  0
    2.5149   10.1280   30.7694 C   0  0  0  0  0  0  0  0  0  0  0  0
    1.6355   11.4337   28.8532 C   0  0  0  0  0  0  0  0  0  0  0  0
    0.5175   10.7899   29.2434 F   0  0  0  0  0  0  0  0  0  0  0  0
    1.6635   11.4314   27.5043 F   0  0  0  0  0  0  0  0  0  0  0  0
    1.5318   12.7223   29.2452 F   0  0  0  0  0  0  0  0  0  0  0  0
    9.2147    8.8396   23.3696 C   0  0  0  0  0  0  0  0  0  0  0  0
    9.0048   10.2100   23.6382 O   0  0  0  0  0  0  0  0  0  0  0  0
    6.1561   13.1774   25.6928 C   0  0  0  0  0  0  0  0  0  0  0  0
    7.1705   13.7624   26.5955 N   0  0  0  0  0  0  0  0  0  0  0  0
    7.6106   12.9994   27.1098 H   0  0  0  0  0  0  0  0  0  0  0  0
    8.2425   14.5439   25.9324 C   0  0  0  0  0  0  0  0  0  0  0  0
    8.8717   13.9028   24.7060 C   0  0  0  0  0  0  0  0  0  0  0  0
    9.7147   14.6699   23.7310 C   0  0  0  0  0  0  0  0  0  0  0  0
   11.0742   14.3536   23.6856 C   0  0  0  0  0  0  0  0  0  0  0  0
   11.8067   14.6506   22.5521 C   0  0  0  0  0  0  0  0  0  0  0  0
   11.1962   15.2389   21.4629 C   0  0  0  0  0  0  0  0  0  0  0  0
    9.8575   15.6242   21.5350 C   0  0  0  0  0  0  0  0  0  0  0  0
    9.0906   15.3965   22.6850 C   0  0  0  0  0  0  0  0  0  0  0  0
    7.6788   15.7719   22.8631 C   0  0  0  0  0  0  0  0  0  0  0  0
    7.1337   16.5830   23.7551 N   0  0  0  0  0  0  0  0  0  0  0  0
    5.7965   16.2632   23.8516 N   0  0  0  0  0  0  0  0  0  0  0  0
    5.6167   15.2945   22.9928 C   0  0  0  0  0  0  0  0  0  0  0  0
    6.7455   14.9474   22.3310 O   0  0  0  0  0  0  0  0  0  0  0  0
    9.3790   16.1629   20.3804 O   0  0  0  0  0  0  0  0  0  0  0  0
    9.6472   17.5583   20.3546 C   0  0  0  0  0  0  0  0  0  0  0  0
 17 18  1  0  0  0
 18  1  1  0  0  0
  1  2  1  0  0  0
  2  3  2  0  0  0
  3  6  1  0  0  0
  6  7  1  0  0  0
  7  8  2  0  0  0
  7 10  1  0  0  0
 10 11  1  0  0  0
 11 12  1  0  0  0
 11 13  1  0  0  0
 13 14  1  0  0  0
 13 15  1  0  0  0
 13 16  1  0  0  0
  3  4  1  0  0  0
  4 19  1  0  0  0
 19 20  1  0  0  0
 20 22  1  0  0  0
 22 23  1  0  0  0
 23 24  1  0  0  0
 24 25  2  0  0  0
 25 26  1  0  0  0
 26 27  2  0  0  0
 27 28  1  0  0  0
 28 35  1  0  0  0
 35 36  1  0  0  0
 28 29  2  0  0  0
 29 30  1  0  0  0
 30 31  2  0  0  0
 31 32  1  0  0  0
 32 33  2  0  0  0
 33 34  1  0  0  0
  4  5  1  0  0  0
  5  1  2  0  0  0
 29 24  1  0  0  0
 34 30  1  0  0  0
  6  9  1  0  0  0
 20 21  1  0  0  0
M  END
> <minimizedAffinity>
-6.69888

> <minimizedRMSD>
0.92587

$$$$
P44686


 34 35  0  0  0  0  0  0  0  0999 V2000
    7.5879   10.8527   24.6363 C   0  0  0  0  0  0  0  0  0  0  0  0
    6.6100    9.9919   25.1245 C   0  0  0  0  0  0  0  0  0  0  0  0
    5.9721   10.6920   26.1170 C   0  0  0  0  0  0  0  0  0  0  0  0
    6.4787   12.0111   26.0509 N   0  0  0  0  0  0  0  0  0  0  0  0
    7.5691   12.0379   25.2245 N   0  0  0  0  0  0  0  0  0  0  0  0
    5.0736   10.1863   27.0373 N   0  0  0  0  0  0  0  0  0  0  0  0
    5.1672   10.0807   28.5865 C   0  0  0  0  0  0  0  0  0  0  0  0
    5.9835   10.4749   29.3244 O   0  0  0  0  0  0  0  0  0  0  0  0
    4.2392    9.8360   26.6496 H   0  0  0  0  0  0  0  0  0  0  0  0
    3.8952    9.4260   29.1316 C   0  0  0  0  0  0  0  0  0  0  0  0
    2.7013   10.3924   29.0186 C   0  0  0  0  0  0  0  0  0  0  0  0
    3.0301   11.8301   29.4469 C   0  0  0  0  0  0  0  0  0  0  0  0
    1.4998    9.9253   29.8151 C   0  0  0  0  0  0  0  0  0  0  0  0
    1.6403   10.1529   31.1354 F   0  0  0  0  0  0  0  0  0  0  0  0
    1.2716    8.6066   29.6374 F   0  0  0  0  0  0  0  0  0  0  0  0
    0.3913   10.5772   29.3945 F   0  0  0  0  0  0  0  0  0  0  0  0
    8.9867    9.3306   23.5605 C   0  0  0  0  0  0  0  0  0  0  0  0
    8.5667   10.6778   23.7298 O   0  0  0  0  0  0  0  0  0  0  0  0
    6.0407   13.1582   26.7131 C   0  0  0  0  0  0  0  0  0  0  0  0
    4.8166   13.7089   26.7809 C   0  0  0  0  0  0  0  0  0  0  0  0
    3.7091   13.3323   25.8340 C   0  0  0  0  0  0  0  0  0  0  0  0
    3.9553   13.9944   24.5881 O   0  0  0  0  0  0  0  0  0  0  0  0
    3.9784   14.9536   24.7308 H   0  0  0  0  0  0  0  0  0  0  0  0
    4.4397   14.7610   27.6002 N   0  0  0  0  0  0  0  0  0  0  0  0
    3.5065   14.7496   27.9137 H   0  0  0  0  0  0  0  0  0  0  0  0
    5.2230   15.8432   28.0399 C   0  0  0  0  0  0  0  0  0  0  0  0
    6.0045   15.7908   29.2155 C   0  0  0  0  0  0  0  0  0  0  0  0
    5.9697   14.6085   30.1431 C   0  0  0  0  0  0  0  0  0  0  0  0
    6.7130   16.9295   29.6306 C   0  0  0  0  0  0  0  0  0  0  0  0
    6.5691   18.1376   28.9554 C   0  0  0  0  0  0  0  0  0  0  0  0
    7.1801   19.3970   29.4777 C   0  0  0  0  0  0  0  0  0  0  0  0
    5.7490   18.1874   27.8352 C   0  0  0  0  0  0  0  0  0  0  0  0
    5.1373   17.0467   27.3215 C   0  0  0  0  0  0  0  0  0  0  0  0
    4.3087   17.1860   26.0766 C   0  0  0  0  0  0  0  0  0  0  0  0
 17 18  1  0  0  0
 18  1  1  0  0  0
  1  2  1  0  0  0
  2  3  2  0  0  0
  3  6  1  0  0  0
  6  7  1  0  0  0
  7  8  2  0  0  0
  7 10  1  0  0  0
 10 11  1  0  0  0
 11 12  1  0  0  0
 11 13  1  0  0  0
 13 14  1  0  0  0
 13 15  1  0  0  0
 13 16  1  0  0  0
  3  4  1  0  0  0
  4 19  1  0  0  0
 19 20  2  0  0  0
 20 21  1  0  0  0
 21 22  1  0  0  0
 20 24  1  0  0  0
 24 26  1  0  0  0
 26 27  2  0  0  0
 27 28  1  0  0  0
 27 29  1  0  0  0
 29 30  2  0  0  0
 30 31  1  0  0  0
 30 32  1  0  0  0
 32 33  2  0  0  0
 33 34  1  0  0  0
  4  5  1  0  0  0
  5  1  2  0  0  0
 33 26  1  0  0  0
  6  9  1  0  0  0
 22 23  1  0  0  0
 24 25  1  0  0  0
M  END
> <minimizedAffinity>
-5.16273

> <minimizedRMSD>
0.84159

$$$$
P45189


 19 20  0  0  0  0  0  0  0  0999 V2000
    9.8893   12.0794   23.5651 C   0  0  0  0  0  0  0  0  0  0  0  0
   10.3319   10.9047   23.0973 N   0  0  0  0  0  0  0  0  0  0  0  0
    9.4963    9.9980   23.6310 N   0  0  0  0  0  0  0  0  0  0  0  0
    9.5923    8.6343   23.1712 C   0  0  0  0  0  0  0  0  0  0  0  0
    8.6426   10.5212   24.5741 C   0  0  0  0  0  0  0  0  0  0  0  0
    7.7167    9.9411   25.4549 C   0  0  0  0  0  0  0  0  0  0  0  0
    6.9500   10.8029   26.2494 C   0  0  0  0  0  0  0  0  0  0  0  0
    7.0983   12.1822   26.1499 C   0  0  0  0  0  0  0  0  0  0  0  0
    6.3204   12.9848   26.8907 F   0  0  0  0  0  0  0  0  0  0  0  0
    8.0323   12.7524   25.2895 C   0  0  0  0  0  0  0  0  0  0  0  0
    8.8237   11.9000   24.4949 C   0  0  0  0  0  0  0  0  0  0  0  0
   10.5694   13.3947   23.2433 C   0  0  0  0  0  0  0  0  0  0  0  0
   10.9771   14.0291   24.4478 O   0  0  0  0  0  0  0  0  0  0  0  0
    9.6648   14.2298   22.5871 O   0  0  0  0  0  0  0  0  0  0  0  0
   11.5885   13.6047   25.0171 H   0  0  0  0  0  0  0  0  0  0  0  0
    9.2917   13.9656   21.7692 H   0  0  0  0  0  0  0  0  0  0  0  0
   12.3047   14.4762   21.9163 C   0  0  0  0  0  0  0  0  0  0  0  0
   11.6495   13.2457   22.3147 N   0  0  0  0  0  0  0  0  0  0  0  0
   12.3505   12.6407   22.7425 H   0  0  0  0  0  0  0  0  0  0  0  0
 17 18  1  0  0  0
 18 12  1  0  0  0
 12 13  1  0  0  0
 12 14  1  0  0  0
 12  1  1  0  0  0
  1  2  2  0  0  0
  2  3  1  0  0  0
  3  4  1  0  0  0
  3  5  1  0  0  0
  5  6  2  0  0  0
  6  7  1  0  0  0
  7  8  2  0  0  0
  8  9  1  0  0  0
  8 10  1  0  0  0
 10 11  2  0  0  0
 11  1  1  0  0  0
 11  5  1  0  0  0
 18 19  1  0  0  0
 13 15  1  0  0  0
 14 16  1  0  0  0
M  END
> <minimizedAffinity>
-6.00772

> <minimizedRMSD>
0.46551

$$$$
P45193


 26 28  0  0  0  0  0  0  0  0999 V2000
   10.1551   12.0506   24.0141 C   0  0  0  0  0  0  0  0  0  0  0  0
   10.4985   10.9995   23.2507 N   0  0  0  0  0  0  0  0  0  0  0  0
    9.6542   10.0240   23.6274 N   0  0  0  0  0  0  0  0  0  0  0  0
    9.7788    8.7240   23.0141 C   0  0  0  0  0  0  0  0  0  0  0  0
    8.7372   10.4240   24.5642 C   0  0  0  0  0  0  0  0  0  0  0  0
    7.6882    9.7554   25.2056 C   0  0  0  0  0  0  0  0  0  0  0  0
    6.8461   10.4326   26.1087 C   0  0  0  0  0  0  0  0  0  0  0  0
    7.1078   11.7951   26.3218 C   0  0  0  0  0  0  0  0  0  0  0  0
    6.3152   12.5399   27.1574 O   0  0  0  0  0  0  0  0  0  0  0  0
    8.1885   12.4612   25.7094 C   0  0  0  0  0  0  0  0  0  0  0  0
    9.0133   11.7590   24.8123 C   0  0  0  0  0  0  0  0  0  0  0  0
    5.5843   12.1418   27.5879 H   0  0  0  0  0  0  0  0  0  0  0  0
   12.1910   14.6213   21.9878 C   0  0  0  0  0  0  0  0  0  0  0  0
   11.4859   13.5122   22.5556 N   0  0  0  0  0  0  0  0  0  0  0  0
   10.9255   13.3043   23.9719 C   0  0  0  0  0  0  0  0  0  0  0  0
   11.0147   13.9690   24.9246 O   0  0  0  0  0  0  0  0  0  0  0  0
   11.3354   12.7601   21.9384 H   0  0  0  0  0  0  0  0  0  0  0  0
    5.7511    9.7028   26.5650 N   0  0  0  0  0  0  0  0  0  0  0  0
    5.5226    8.8842   26.0680 H   0  0  0  0  0  0  0  0  0  0  0  0
    4.9147   10.0354   27.7045 C   0  0  0  0  0  0  0  0  0  0  0  0
    5.3008    9.4022   28.9903 C   0  0  0  0  0  0  0  0  0  0  0  0
    4.7767    8.3656   29.7248 C   0  0  0  0  0  0  0  0  0  0  0  0
    5.5917    8.3043   30.8742 C   0  0  0  0  0  0  0  0  0  0  0  0
    5.4820    7.3837   32.0272 C   0  0  0  0  0  0  0  0  0  0  0  0
    6.5687    9.2198   30.8292 N   0  0  0  0  0  0  0  0  0  0  0  0
    6.3792    9.9126   29.6422 O   0  0  0  0  0  0  0  0  0  0  0  0
 13 14  1  0  0  0
 14 15  1  0  0  0
 15 16  2  0  0  0
 15  1  1  0  0  0
  1  2  2  0  0  0
  2  3  1  0  0  0
  3  4  1  0  0  0
  3  5  1  0  0  0
  5  6  2  0  0  0
  6  7  1  0  0  0
  7 18  1  0  0  0
 18 20  1  0  0  0
 20 21  1  0  0  0
 21 22  2  0  0  0
 22 23  1  0  0  0
 23 24  1  0  0  0
 23 25  2  0  0  0
 25 26  1  0  0  0
  7  8  2  0  0  0
  8  9  1  0  0  0
  8 10  1  0  0  0
 10 11  2  0  0  0
 11  1  1  0  0  0
 11  5  1  0  0  0
 26 21  1  0  0  0
 14 17  1  0  0  0
 18 19  1  0  0  0
  9 12  1  0  0  0
M  END
> <minimizedAffinity>
-6.90949

> <minimizedRMSD>
0.25711

$$$$
P45194


 22 24  0  0  0  0  0  0  0  0999 V2000
   10.1879   13.4651   24.1755 C   0  0  0  0  0  0  0  0  0  0  0  0
    9.1825   14.4416   24.0127 O   0  0  0  0  0  0  0  0  0  0  0  0
   10.7804   13.7155   25.4428 O   0  0  0  0  0  0  0  0  0  0  0  0
    8.6638   14.4545   23.2324 H   0  0  0  0  0  0  0  0  0  0  0  0
   11.4798   13.1720   25.7486 H   0  0  0  0  0  0  0  0  0  0  0  0
    9.5565   12.0751   24.1959 C   0  0  0  0  0  0  0  0  0  0  0  0
    9.9254   11.0959   23.3560 N   0  0  0  0  0  0  0  0  0  0  0  0
    9.2857   10.0167   23.7941 N   0  0  0  0  0  0  0  0  0  0  0  0
    9.6514    8.7487   23.2242 C   0  0  0  0  0  0  0  0  0  0  0  0
    8.3575   10.2854   24.7641 C   0  0  0  0  0  0  0  0  0  0  0  0
    7.3875    9.5028   25.3934 C   0  0  0  0  0  0  0  0  0  0  0  0
    6.5822   10.1068   26.3609 C   0  0  0  0  0  0  0  0  0  0  0  0
    6.7500   11.4467   26.6969 C   0  0  0  0  0  0  0  0  0  0  0  0
    7.7269   12.2216   26.0654 C   0  0  0  0  0  0  0  0  0  0  0  0
    8.5275   11.6315   25.0694 C   0  0  0  0  0  0  0  0  0  0  0  0
   12.4880   13.0269   23.5561 C   0  0  0  0  0  0  0  0  0  0  0  0
   11.1985   13.5702   23.1340 N   0  0  0  0  0  0  0  0  0  0  0  0
   11.2551   14.8173   22.3465 C   0  0  0  0  0  0  0  0  0  0  0  0
   12.5340   15.0173   21.5831 C   0  0  0  0  0  0  0  0  0  0  0  0
   12.3096   14.3154   20.2811 C   0  0  0  0  0  0  0  0  0  0  0  0
   10.9235   14.4403   19.9901 O   0  0  0  0  0  0  0  0  0  0  0  0
   10.2724   14.9085   21.1807 C   0  0  0  0  0  0  0  0  0  0  0  0
 16 17  1  0  0  0
 18 17  1  0  0  0
 18 19  1  0  0  0
 19 20  1  0  0  0
 20 21  1  0  0  0
 21 22  1  0  0  0
 17  1  1  0  0  0
  1  2  1  0  0  0
  1  3  1  0  0  0
  1  6  1  0  0  0
  6  7  2  0  0  0
  7  8  1  0  0  0
  8  9  1  0  0  0
  8 10  1  0  0  0
 10 11  2  0  0  0
 11 12  1  0  0  0
 12 13  2  0  0  0
 13 14  1  0  0  0
 14 15  2  0  0  0
 22 18  1  0  0  0
 15  6  1  0  0  0
 15 10  1  0  0  0
  2  4  1  0  0  0
  3  5  1  0  0  0
M  END
> <minimizedAffinity>
-5.73002

> <minimizedRMSD>
0.85913

$$$$
P45204


 23 25  0  0  0  0  0  0  0  0999 V2000
   10.5402   11.9606   23.7198 C   0  0  0  0  0  0  0  0  0  0  0  0
   10.5016   10.7632   23.1159 N   0  0  0  0  0  0  0  0  0  0  0  0
    9.5259   10.0874   23.7570 N   0  0  0  0  0  0  0  0  0  0  0  0
    9.2951    8.7075   23.4085 C   0  0  0  0  0  0  0  0  0  0  0  0
    8.8391   10.8417   24.6725 C   0  0  0  0  0  0  0  0  0  0  0  0
    7.7305   10.5919   25.4953 C   0  0  0  0  0  0  0  0  0  0  0  0
    7.2225   11.6597   26.2512 C   0  0  0  0  0  0  0  0  0  0  0  0
    7.8357   12.9138   26.2263 C   0  0  0  0  0  0  0  0  0  0  0  0
    9.0128   13.0889   25.4822 C   0  0  0  0  0  0  0  0  0  0  0  0
    9.4915   12.0666   24.6654 C   0  0  0  0  0  0  0  0  0  0  0  0
   11.6949   14.8523   21.4415 C   0  0  0  0  0  0  0  0  0  0  0  0
   11.1201   13.7233   22.1049 N   0  0  0  0  0  0  0  0  0  0  0  0
   11.5487   12.9942   23.3869 C   0  0  0  0  0  0  0  0  0  0  0  0
   12.4835   13.1476   24.0676 O   0  0  0  0  0  0  0  0  0  0  0  0
   10.3190   13.3530   21.6687 H   0  0  0  0  0  0  0  0  0  0  0  0
    7.1957   14.0606   26.7580 N   0  0  0  0  0  0  0  0  0  0  0  0
    7.4454   14.3823   27.6543 H   0  0  0  0  0  0  0  0  0  0  0  0
    6.2423   14.7243   26.0512 C   0  0  0  0  0  0  0  0  0  0  0  0
    5.0642   15.2630   26.6088 C   0  0  0  0  0  0  0  0  0  0  0  0
    4.3115   15.6654   25.5271 C   0  0  0  0  0  0  0  0  0  0  0  0
    5.0491   15.3358   24.4310 N   0  0  0  0  0  0  0  0  0  0  0  0
    4.6539   15.3037   23.0511 C   0  0  0  0  0  0  0  0  0  0  0  0
    6.2642   14.9035   24.7310 N   0  0  0  0  0  0  0  0  0  0  0  0
 11 12  1  0  0  0
 12 13  1  0  0  0
 13 14  2  0  0  0
 13  1  1  0  0  0
  1  2  2  0  0  0
  2  3  1  0  0  0
  3  4  1  0  0  0
  3  5  1  0  0  0
  5  6  2  0  0  0
  6  7  1  0  0  0
  7  8  2  0  0  0
  8 16  1  0  0  0
 16 18  1  0  0  0
 18 19  1  0  0  0
 19 20  2  0  0  0
 20 21  1  0  0  0
 21 22  1  0  0  0
 21 23  1  0  0  0
  8  9  1  0  0  0
  9 10  2  0  0  0
 10  1  1  0  0  0
 10  5  1  0  0  0
 23 18  2  0  0  0
 12 15  1  0  0  0
 16 17  1  0  0  0
M  END
> <minimizedAffinity>
-6.33241

> <minimizedRMSD>
0.82327

$$$$
P45214


 20 22  0  0  0  0  0  0  0  0999 V2000
    9.5197    8.7114   23.1780 C   0  0  0  0  0  0  0  0  0  0  0  0
    9.4561   10.0068   23.8091 N   0  0  0  0  0  0  0  0  0  0  0  0
   10.3323   10.9404   23.4149 N   0  0  0  0  0  0  0  0  0  0  0  0
   10.0321   12.0218   24.1524 C   0  0  0  0  0  0  0  0  0  0  0  0
    8.9008   11.7864   24.9767 C   0  0  0  0  0  0  0  0  0  0  0  0
    8.1209   12.5524   25.8642 C   0  0  0  0  0  0  0  0  0  0  0  0
    7.0441   11.9488   26.5224 C   0  0  0  0  0  0  0  0  0  0  0  0
    6.7478   10.6046   26.3121 C   0  0  0  0  0  0  0  0  0  0  0  0
    7.5056    9.8323   25.4272 C   0  0  0  0  0  0  0  0  0  0  0  0
    8.5667   10.4516   24.7562 C   0  0  0  0  0  0  0  0  0  0  0  0
   10.8274   13.2497   24.0124 C   0  0  0  0  0  0  0  0  0  0  0  0
   11.0035   13.9761   24.9063 O   0  0  0  0  0  0  0  0  0  0  0  0
   11.2630   13.3531   22.5469 N   0  0  0  0  0  0  0  0  0  0  0  0
   11.0541   12.5627   21.9984 H   0  0  0  0  0  0  0  0  0  0  0  0
   11.9213   14.4068   21.8482 C   0  0  0  0  0  0  0  0  0  0  0  0
   10.9249   14.9995   20.9312 C   0  0  0  0  0  0  0  0  0  0  0  0
   10.8369   14.9373   19.5615 C   0  0  0  0  0  0  0  0  0  0  0  0
    9.8176   15.7521   19.1645 O   0  0  0  0  0  0  0  0  0  0  0  0
    9.3349   16.2603   20.3261 C   0  0  0  0  0  0  0  0  0  0  0  0
    9.9093   15.7908   21.4066 N   0  0  0  0  0  0  0  0  0  0  0  0
  1  2  1  0  0  0
  2  3  1  0  0  0
  3  4  2  0  0  0
  4 11  1  0  0  0
 11 12  2  0  0  0
 11 13  1  0  0  0
 13 15  1  0  0  0
 15 16  1  0  0  0
 16 17  2  0  0  0
 17 18  1  0  0  0
 18 19  1  0  0  0
 19 20  2  0  0  0
  4  5  1  0  0  0
  5  6  2  0  0  0
  6  7  1  0  0  0
  7  8  2  0  0  0
  8  9  1  0  0  0
  9 10  2  0  0  0
 10  2  1  0  0  0
 20 16  1  0  0  0
 10  5  1  0  0  0
 13 14  1  0  0  0
M  END
> <minimizedAffinity>
-6.57798

> <minimizedRMSD>
0.21600

$$$$
P45216


 21 23  0  0  0  0  0  0  0  0999 V2000
   10.6353   13.2900   24.5322 C   0  0  0  0  0  0  0  0  0  0  0  0
   10.5501   14.0038   25.4478 O   0  0  0  0  0  0  0  0  0  0  0  0
   11.4445   13.4237   23.2431 N   0  0  0  0  0  0  0  0  0  0  0  0
   11.2860   12.7119   22.5817 H   0  0  0  0  0  0  0  0  0  0  0  0
    9.5903    8.8121   23.1592 C   0  0  0  0  0  0  0  0  0  0  0  0
    9.4057   10.0544   23.8695 N   0  0  0  0  0  0  0  0  0  0  0  0
   10.2516   11.0620   23.6044 N   0  0  0  0  0  0  0  0  0  0  0  0
    9.8603   12.0492   24.4316 C   0  0  0  0  0  0  0  0  0  0  0  0
    8.6929   11.7010   25.1468 C   0  0  0  0  0  0  0  0  0  0  0  0
    7.8471   12.3535   26.0627 C   0  0  0  0  0  0  0  0  0  0  0  0
    6.7888   11.6447   26.6324 C   0  0  0  0  0  0  0  0  0  0  0  0
    6.5823   10.3083   26.3077 C   0  0  0  0  0  0  0  0  0  0  0  0
    7.4100    9.6541   25.3905 C   0  0  0  0  0  0  0  0  0  0  0  0
    8.4512   10.3750   24.8045 C   0  0  0  0  0  0  0  0  0  0  0  0
   12.3914   14.4105   22.8418 C   0  0  0  0  0  0  0  0  0  0  0  0
   12.4135   14.6308   21.3468 C   0  0  0  0  0  0  0  0  0  0  0  0
   11.0825   14.9468   20.7834 C   0  0  0  0  0  0  0  0  0  0  0  0
   10.7306   15.0811   19.4658 C   0  0  0  0  0  0  0  0  0  0  0  0
    9.4850   15.6241   19.4094 O   0  0  0  0  0  0  0  0  0  0  0  0
    9.1393   15.7770   20.7137 C   0  0  0  0  0  0  0  0  0  0  0  0
   10.0285   15.3324   21.5693 N   0  0  0  0  0  0  0  0  0  0  0  0
  5  6  1  0  0  0
  6  7  1  0  0  0
  7  8  2  0  0  0
  8  1  1  0  0  0
  1  2  2  0  0  0
  1  3  1  0  0  0
  3 15  1  0  0  0
 15 16  1  0  0  0
 16 17  1  0  0  0
 17 18  2  0  0  0
 18 19  1  0  0  0
 19 20  1  0  0  0
 20 21  2  0  0  0
  8  9  1  0  0  0
  9 10  2  0  0  0
 10 11  1  0  0  0
 11 12  2  0  0  0
 12 13  1  0  0  0
 13 14  2  0  0  0
 14  6  1  0  0  0
 21 17  1  0  0  0
 14  9  1  0  0  0
  3  4  1  0  0  0
M  END
> <minimizedAffinity>
-6.56737

> <minimizedRMSD>
0.26754

$$$$
P45418


 29 32  0  0  0  0  0  0  0  0999 V2000
   10.1528   13.8656   22.9281 C   0  0  0  0  0  0  0  0  0  0  0  0
    9.5467   14.8123   23.2295 O   0  0  0  0  0  0  0  0  0  0  0  0
   11.4503   13.7307   22.1219 N   0  0  0  0  0  0  0  0  0  0  0  0
   11.7248   12.8038   21.9352 H   0  0  0  0  0  0  0  0  0  0  0  0
    7.0001   12.3215   26.0398 C   0  0  0  0  0  0  0  0  0  0  0  0
    6.9625   10.9269   26.0798 C   0  0  0  0  0  0  0  0  0  0  0  0
    7.8084   10.1711   25.2726 C   0  0  0  0  0  0  0  0  0  0  0  0
    8.6655   10.8502   24.4078 C   0  0  0  0  0  0  0  0  0  0  0  0
    8.7257   12.2377   24.3546 C   0  0  0  0  0  0  0  0  0  0  0  0
    7.8865   12.9962   25.1930 C   0  0  0  0  0  0  0  0  0  0  0  0
    9.7068   12.5283   23.3675 C   0  0  0  0  0  0  0  0  0  0  0  0
   10.2325   11.3989   22.8596 N   0  0  0  0  0  0  0  0  0  0  0  0
    9.5571   10.4069   23.4675 N   0  0  0  0  0  0  0  0  0  0  0  0
    9.8168    9.0368   23.0864 C   0  0  0  0  0  0  0  0  0  0  0  0
    6.5241   13.5282   28.2585 C   0  0  0  0  0  0  0  0  0  0  0  0
    6.0599   13.0539   26.9118 C   0  0  0  0  0  0  0  0  0  0  0  0
    4.8891   13.1996   26.5603 O   0  0  0  0  0  0  0  0  0  0  0  0
   12.3367   14.7433   21.5910 C   0  0  0  0  0  0  0  0  0  0  0  0
   12.2839   14.8351   20.0564 C   0  0  0  0  0  0  0  0  0  0  0  0
   13.0906   16.0193   19.4952 C   0  0  0  0  0  0  0  0  0  0  0  0
   12.3615   17.3375   19.5759 C   0  0  0  0  0  0  0  0  0  0  0  0
   13.0620   18.5429   19.4250 C   0  0  0  0  0  0  0  0  0  0  0  0
   12.3988   19.7623   19.5523 C   0  0  0  0  0  0  0  0  0  0  0  0
   11.0313   19.7806   19.8122 C   0  0  0  0  0  0  0  0  0  0  0  0
   10.3202   18.5834   19.9130 C   0  0  0  0  0  0  0  0  0  0  0  0
   10.9738   17.3529   19.7850 C   0  0  0  0  0  0  0  0  0  0  0  0
   10.1865   16.0737   19.9452 C   0  0  0  0  0  0  0  0  0  0  0  0
   10.9080   14.8672   19.5632 N   0  0  0  0  0  0  0  0  0  0  0  0
   10.9277   14.8107   18.5449 H   0  0  0  0  0  0  0  0  0  0  0  0
 15 16  1  0  0  0
 16 17  2  0  0  0
 16  5  1  0  0  0
  5  6  2  0  0  0
  6  7  1  0  0  0
  7  8  2  0  0  0
  8  9  1  0  0  0
  9 10  2  0  0  0
  9 11  1  0  0  0
 11  1  1  0  0  0
  1  2  2  0  0  0
  1  3  1  0  0  0
  3 18  1  0  0  0
 19 18  1  0  0  0
 19 20  1  0  0  0
 20 21  1  0  0  0
 21 22  2  0  0  0
 22 23  1  0  0  0
 23 24  2  0  0  0
 24 25  1  0  0  0
 25 26  2  0  0  0
 26 27  1  0  0  0
 27 28  1  0  0  0
 11 12  2  0  0  0
 12 13  1  0  0  0
 13 14  1  0  0  0
 10  5  1  0  0  0
 28 19  1  0  0  0
 13  8  1  0  0  0
 26 21  1  0  0  0
  3  4  1  0  0  0
 28 29  1  0  0  0
M  END
> <minimizedAffinity>
-10.57569

> <minimizedRMSD>
0.38190

$$$$
P45427


 27 30  0  0  0  0  0  0  0  0999 V2000
   10.1654   13.8664   22.9385 C   0  0  0  0  0  0  0  0  0  0  0  0
    9.5796   14.8189   23.2610 O   0  0  0  0  0  0  0  0  0  0  0  0
   11.4959   13.7237   22.1887 N   0  0  0  0  0  0  0  0  0  0  0  0
   11.8227   12.7991   22.1017 H   0  0  0  0  0  0  0  0  0  0  0  0
    9.8029    9.0359   23.1149 C   0  0  0  0  0  0  0  0  0  0  0  0
    9.5223   10.4088   23.4691 N   0  0  0  0  0  0  0  0  0  0  0  0
   10.2024   11.3929   22.8549 N   0  0  0  0  0  0  0  0  0  0  0  0
    9.6805   12.5303   23.3522 C   0  0  0  0  0  0  0  0  0  0  0  0
    8.6900   12.2481   24.3367 C   0  0  0  0  0  0  0  0  0  0  0  0
    7.8605   13.0106   25.1813 C   0  0  0  0  0  0  0  0  0  0  0  0
    6.9834   12.3474   26.0371 C   0  0  0  0  0  0  0  0  0  0  0  0
    6.1665   13.0549   26.8296 F   0  0  0  0  0  0  0  0  0  0  0  0
    6.9336   10.9622   26.0943 C   0  0  0  0  0  0  0  0  0  0  0  0
    7.7602   10.1929   25.2756 C   0  0  0  0  0  0  0  0  0  0  0  0
    8.6220   10.8597   24.3992 C   0  0  0  0  0  0  0  0  0  0  0  0
   12.3465   14.7234   21.5902 C   0  0  0  0  0  0  0  0  0  0  0  0
   12.2483   14.8061   20.0545 C   0  0  0  0  0  0  0  0  0  0  0  0
   13.0701   15.9872   19.4934 C   0  0  0  0  0  0  0  0  0  0  0  0
   12.3541   17.3127   19.5820 C   0  0  0  0  0  0  0  0  0  0  0  0
   13.0604   18.5133   19.4291 C   0  0  0  0  0  0  0  0  0  0  0  0
   12.4016   19.7375   19.5434 C   0  0  0  0  0  0  0  0  0  0  0  0
   11.0333   19.7670   19.7972 C   0  0  0  0  0  0  0  0  0  0  0  0
   10.3188   18.5761   19.9100 C   0  0  0  0  0  0  0  0  0  0  0  0
   10.9685   17.3424   19.7964 C   0  0  0  0  0  0  0  0  0  0  0  0
   10.1731   16.0769   19.9829 C   0  0  0  0  0  0  0  0  0  0  0  0
   10.8597   14.8593   19.5643 N   0  0  0  0  0  0  0  0  0  0  0  0
   10.8696   14.8218   18.5450 H   0  0  0  0  0  0  0  0  0  0  0  0
  5  6  1  0  0  0
  6  7  1  0  0  0
  7  8  2  0  0  0
  8  1  1  0  0  0
  1  2  2  0  0  0
  1  3  1  0  0  0
  3 16  1  0  0  0
 17 16  1  0  0  0
 17 18  1  0  0  0
 18 19  1  0  0  0
 19 20  2  0  0  0
 20 21  1  0  0  0
 21 22  2  0  0  0
 22 23  1  0  0  0
 23 24  2  0  0  0
 24 25  1  0  0  0
 25 26  1  0  0  0
  8  9  1  0  0  0
  9 10  2  0  0  0
 10 11  1  0  0  0
 11 12  1  0  0  0
 11 13  2  0  0  0
 13 14  1  0  0  0
 14 15  2  0  0  0
 15  6  1  0  0  0
 26 17  1  0  0  0
 15  9  1  0  0  0
 24 19  1  0  0  0
  3  4  1  0  0  0
 26 27  1  0  0  0
M  END
> <minimizedAffinity>
-10.54418

> <minimizedRMSD>
0.27244

$$$$
P45445


 29 32  0  0  0  0  0  0  0  0999 V2000
   10.5529   13.7458   23.0646 C   0  0  0  0  0  0  0  0  0  0  0  0
    9.8600    8.9550   22.9063 C   0  0  0  0  0  0  0  0  0  0  0  0
    9.6206   10.3019   23.3832 N   0  0  0  0  0  0  0  0  0  0  0  0
   10.2921   11.2880   22.8006 N   0  0  0  0  0  0  0  0  0  0  0  0
    9.9808   12.3887   23.4952 C   0  0  0  0  0  0  0  0  0  0  0  0
    9.0681   12.0812   24.5718 C   0  0  0  0  0  0  0  0  0  0  0  0
    8.8034   10.7272   24.4093 C   0  0  0  0  0  0  0  0  0  0  0  0
    7.9415    9.7326   25.0899 C   0  0  0  0  0  0  0  0  0  0  0  0
    6.7232   10.1669   25.8734 C   0  0  0  0  0  0  0  0  0  0  0  0
    7.0426   10.8762   27.1698 C   0  0  0  0  0  0  0  0  0  0  0  0
    6.6158   12.3239   27.1324 C   0  0  0  0  0  0  0  0  0  0  0  0
    7.0889   13.0949   25.9020 C   0  0  0  0  0  0  0  0  0  0  0  0
    8.5837   13.0517   25.6121 C   0  0  0  0  0  0  0  0  0  0  0  0
    9.4171   14.6084   22.5843 N   0  0  0  0  0  0  0  0  0  0  0  0
    8.7173   14.0588   21.7245 O   0  0  0  0  0  0  0  0  0  0  0  0
   11.6872   13.5430   22.1432 N   0  0  0  0  0  0  0  0  0  0  0  0
   11.3544   12.9936   21.3509 H   0  0  0  0  0  0  0  0  0  0  0  0
   12.3007   14.7696   21.6179 C   0  0  0  0  0  0  0  0  0  0  0  0
   12.2221   14.8866   20.0717 C   0  0  0  0  0  0  0  0  0  0  0  0
   13.1381   15.9829   19.4841 C   0  0  0  0  0  0  0  0  0  0  0  0
   12.5578   17.3727   19.5355 C   0  0  0  0  0  0  0  0  0  0  0  0
   13.3763   18.4976   19.3651 C   0  0  0  0  0  0  0  0  0  0  0  0
   12.8473   19.7819   19.4984 C   0  0  0  0  0  0  0  0  0  0  0  0
   11.4986   19.9464   19.7987 C   0  0  0  0  0  0  0  0  0  0  0  0
   10.6704   18.8314   19.9083 C   0  0  0  0  0  0  0  0  0  0  0  0
   11.1861   17.5400   19.7484 C   0  0  0  0  0  0  0  0  0  0  0  0
   10.2636   16.3604   19.8969 C   0  0  0  0  0  0  0  0  0  0  0  0
   10.8516   15.0606   19.6031 N   0  0  0  0  0  0  0  0  0  0  0  0
   10.8438   14.9305   18.5915 H   0  0  0  0  0  0  0  0  0  0  0  0
  2  3  1  0  0  0
  3  4  1  0  0  0
  4  5  2  0  0  0
  5  1  1  0  0  0
  1 14  1  0  0  0
 14 15  2  0  0  0
  1 16  1  0  0  0
 16 18  1  0  0  0
 19 18  1  0  0  0
 19 20  1  0  0  0
 20 21  1  0  0  0
 21 22  2  0  0  0
 22 23  1  0  0  0
 23 24  2  0  0  0
 24 25  1  0  0  0
 25 26  2  0  0  0
 26 27  1  0  0  0
 27 28  1  0  0  0
  5  6  1  0  0  0
  6  7  2  0  0  0
  7  8  1  0  0  0
  8  9  1  0  0  0
  9 10  1  0  0  0
 10 11  1  0  0  0
 11 12  1  0  0  0
 12 13  1  0  0  0
  7  3  1  0  0  0
 28 19  1  0  0  0
 13  6  1  0  0  0
 26 21  1  0  0  0
 16 17  1  0  0  0
 28 29  1  0  0  0
M  END
> <minimizedAffinity>
-9.90992

> <minimizedRMSD>
0.20472

$$$$
P45448


 28 31  0  0  0  0  0  0  0  0999 V2000
   10.4967   13.6958   22.9233 C   0  0  0  0  0  0  0  0  0  0  0  0
   10.2718   14.6964   23.4699 O   0  0  0  0  0  0  0  0  0  0  0  0
   11.4546   13.3888   21.7713 N   0  0  0  0  0  0  0  0  0  0  0  0
   11.4070   12.4662   21.4308 H   0  0  0  0  0  0  0  0  0  0  0  0
    9.6178    8.9776   23.2803 C   0  0  0  0  0  0  0  0  0  0  0  0
    9.3827   10.3844   23.4877 N   0  0  0  0  0  0  0  0  0  0  0  0
   10.1122   11.2662   22.7847 N   0  0  0  0  0  0  0  0  0  0  0  0
    9.8087   12.4580   23.3293 C   0  0  0  0  0  0  0  0  0  0  0  0
    8.8009   12.3266   24.3211 C   0  0  0  0  0  0  0  0  0  0  0  0
    8.1055   13.2089   25.1686 C   0  0  0  0  0  0  0  0  0  0  0  0
    7.1288   12.7063   26.0325 C   0  0  0  0  0  0  0  0  0  0  0  0
    6.8449   11.3455   26.0631 C   0  0  0  0  0  0  0  0  0  0  0  0
    7.5391   10.4627   25.2360 C   0  0  0  0  0  0  0  0  0  0  0  0
    7.2489    9.1338   25.2535 O   0  0  0  0  0  0  0  0  0  0  0  0
    8.5174   10.9657   24.3769 C   0  0  0  0  0  0  0  0  0  0  0  0
    6.5905    8.8056   25.8338 H   0  0  0  0  0  0  0  0  0  0  0  0
   12.4107   14.2251   21.1059 C   0  0  0  0  0  0  0  0  0  0  0  0
   11.8535   15.5841   20.7123 C   0  0  0  0  0  0  0  0  0  0  0  0
   12.8746   16.3732   19.8721 C   0  0  0  0  0  0  0  0  0  0  0  0
   12.3354   17.7634   19.6494 C   0  0  0  0  0  0  0  0  0  0  0  0
   13.2026   18.8386   19.4290 C   0  0  0  0  0  0  0  0  0  0  0  0
   12.7067   20.1397   19.4258 C   0  0  0  0  0  0  0  0  0  0  0  0
   11.3500   20.3641   19.6415 C   0  0  0  0  0  0  0  0  0  0  0  0
   10.4758   19.2909   19.7945 C   0  0  0  0  0  0  0  0  0  0  0  0
   10.9501   17.9796   19.7620 C   0  0  0  0  0  0  0  0  0  0  0  0
    9.9734   16.8401   19.9585 C   0  0  0  0  0  0  0  0  0  0  0  0
   10.5780   15.5051   19.9664 N   0  0  0  0  0  0  0  0  0  0  0  0
   10.7553   15.1999   19.0094 H   0  0  0  0  0  0  0  0  0  0  0  0
  5  6  1  0  0  0
  6  7  1  0  0  0
  7  8  2  0  0  0
  8  1  1  0  0  0
  1  2  2  0  0  0
  1  3  1  0  0  0
  3 17  1  0  0  0
 18 17  1  0  0  0
 18 19  1  0  0  0
 19 20  1  0  0  0
 20 21  2  0  0  0
 21 22  1  0  0  0
 22 23  2  0  0  0
 23 24  1  0  0  0
 24 25  2  0  0  0
 25 26  1  0  0  0
 26 27  1  0  0  0
  8  9  1  0  0  0
  9 10  2  0  0  0
 10 11  1  0  0  0
 11 12  2  0  0  0
 12 13  1  0  0  0
 13 14  1  0  0  0
 13 15  2  0  0  0
 15  6  1  0  0  0
 27 18  1  0  0  0
 15  9  1  0  0  0
 25 20  1  0  0  0
  3  4  1  0  0  0
 27 28  1  0  0  0
 14 16  1  0  0  0
M  END
> <minimizedAffinity>
-9.58796

> <minimizedRMSD>
0.32406

$$$$
P45449


 27 30  0  0  0  0  0  0  0  0999 V2000
   11.6334   13.4655   22.1269 N   0  0  0  0  0  0  0  0  0  0  0  0
   11.3732   12.9095   21.3123 H   0  0  0  0  0  0  0  0  0  0  0  0
   10.4436   13.6323   22.9716 C   0  0  0  0  0  0  0  0  0  0  0  0
    9.7192    8.8206   23.1208 C   0  0  0  0  0  0  0  0  0  0  0  0
    9.5259   10.2001   23.4956 N   0  0  0  0  0  0  0  0  0  0  0  0
   10.2473   11.1360   22.8668 N   0  0  0  0  0  0  0  0  0  0  0  0
    9.8836   12.2958   23.4293 C   0  0  0  0  0  0  0  0  0  0  0  0
    8.8745   12.0822   24.4174 C   0  0  0  0  0  0  0  0  0  0  0  0
    8.1099   12.8998   25.2722 C   0  0  0  0  0  0  0  0  0  0  0  0
    7.1453   12.3128   26.0980 C   0  0  0  0  0  0  0  0  0  0  0  0
    6.9457   10.9360   26.0877 C   0  0  0  0  0  0  0  0  0  0  0  0
    7.7017   10.1094   25.2534 C   0  0  0  0  0  0  0  0  0  0  0  0
    8.6551   10.7077   24.4236 C   0  0  0  0  0  0  0  0  0  0  0  0
    9.3063   14.3472   22.3281 N   0  0  0  0  0  0  0  0  0  0  0  0
    9.0238   15.3804   22.9348 O   0  0  0  0  0  0  0  0  0  0  0  0
   12.2160   14.7360   21.6548 C   0  0  0  0  0  0  0  0  0  0  0  0
   12.1983   14.8825   20.1101 C   0  0  0  0  0  0  0  0  0  0  0  0
   13.1111   16.0129   19.5914 C   0  0  0  0  0  0  0  0  0  0  0  0
   12.4821   17.3814   19.6231 C   0  0  0  0  0  0  0  0  0  0  0  0
   13.2785   18.5301   19.5063 C   0  0  0  0  0  0  0  0  0  0  0  0
   12.7052   19.7977   19.5972 C   0  0  0  0  0  0  0  0  0  0  0  0
   11.3329   19.9214   19.7921 C   0  0  0  0  0  0  0  0  0  0  0  0
   10.5299   18.7814   19.8530 C   0  0  0  0  0  0  0  0  0  0  0  0
   11.0930   17.5039   19.7493 C   0  0  0  0  0  0  0  0  0  0  0  0
   10.1999   16.2924   19.8358 C   0  0  0  0  0  0  0  0  0  0  0  0
   10.8505   15.0195   19.5712 N   0  0  0  0  0  0  0  0  0  0  0  0
   10.9019   14.8964   18.5599 H   0  0  0  0  0  0  0  0  0  0  0  0
  4  5  1  0  0  0
  5  6  1  0  0  0
  6  7  2  0  0  0
  7  3  1  0  0  0
  3 14  1  0  0  0
 14 15  2  0  0  0
  3  1  1  0  0  0
  1 16  1  0  0  0
 17 16  1  0  0  0
 17 18  1  0  0  0
 18 19  1  0  0  0
 19 20  2  0  0  0
 20 21  1  0  0  0
 21 22  2  0  0  0
 22 23  1  0  0  0
 23 24  2  0  0  0
 24 25  1  0  0  0
 25 26  1  0  0  0
  7  8  1  0  0  0
  8  9  2  0  0  0
  9 10  1  0  0  0
 10 11  2  0  0  0
 11 12  1  0  0  0
 12 13  2  0  0  0
 13  5  1  0  0  0
 26 17  1  0  0  0
 13  8  1  0  0  0
 24 19  1  0  0  0
  1  2  1  0  0  0
 26 27  1  0  0  0
M  END
> <minimizedAffinity>
-9.62068

> <minimizedRMSD>
0.36412

$$$$
P45479


 31 36  0  0  0  0  0  0  0  0999 V2000
   10.0437    8.4597   23.0065 C   0  0  0  0  0  0  0  0  0  0  0  0
    9.7092    9.8474   23.2005 N   0  0  0  0  0  0  0  0  0  0  0  0
   10.2543   10.7525   22.3788 N   0  0  0  0  0  0  0  0  0  0  0  0
    9.8878   11.9617   22.8492 C   0  0  0  0  0  0  0  0  0  0  0  0
    9.0258   11.7576   23.9584 C   0  0  0  0  0  0  0  0  0  0  0  0
    8.2919   12.6003   24.7873 C   0  0  0  0  0  0  0  0  0  0  0  0
    7.4235   12.1199   25.7627 C   0  0  0  0  0  0  0  0  0  0  0  0
    7.2787   10.7407   25.9011 C   0  0  0  0  0  0  0  0  0  0  0  0
    7.9923    9.8494   25.0827 C   0  0  0  0  0  0  0  0  0  0  0  0
    8.8689   10.3888   24.1287 C   0  0  0  0  0  0  0  0  0  0  0  0
    8.4127   13.9715   24.3525 C   0  0  0  0  0  0  0  0  0  0  0  0
    9.3139   14.6554   24.7961 O   0  0  0  0  0  0  0  0  0  0  0  0
    7.6633   14.1804   23.2173 N   0  0  0  0  0  0  0  0  0  0  0  0
    8.2698   14.7304   22.0301 C   0  0  0  0  0  0  0  0  0  0  0  0
    9.7899   14.6327   21.8756 C   0  0  0  0  0  0  0  0  0  0  0  0
   10.1645   15.1853   20.3808 C   0  0  0  0  0  0  0  0  0  0  0  0
   11.2196   14.4396   19.6950 N   0  0  0  0  0  0  0  0  0  0  0  0
   12.5137   14.6720   20.3239 C   0  0  0  0  0  0  0  0  0  0  0  0
   12.5376   14.4716   21.8591 C   0  0  0  0  0  0  0  0  0  0  0  0
   11.8911   13.2527   22.3608 N   0  0  0  0  0  0  0  0  0  0  0  0
   10.4330   13.2089   22.0999 C   0  0  0  0  0  0  0  0  0  0  0  0
   12.9790   16.0769   19.9414 C   0  0  0  0  0  0  0  0  0  0  0  0
   11.8526   17.0867   19.9731 C   0  0  0  0  0  0  0  0  0  0  0  0
   12.1774   18.4265   19.7016 C   0  0  0  0  0  0  0  0  0  0  0  0
   11.1782   19.3814   19.6390 C   0  0  0  0  0  0  0  0  0  0  0  0
    9.8539   18.9864   19.7978 C   0  0  0  0  0  0  0  0  0  0  0  0
    9.5109   17.6491   20.0558 C   0  0  0  0  0  0  0  0  0  0  0  0
   10.5054   16.6755   20.1813 C   0  0  0  0  0  0  0  0  0  0  0  0
    6.7055   13.9526   23.2156 H   0  0  0  0  0  0  0  0  0  0  0  0
   11.2626   14.7408   18.7214 H   0  0  0  0  0  0  0  0  0  0  0  0
   12.0409   13.1987   23.3683 H   0  0  0  0  0  0  0  0  0  0  0  0
  1  2  1  0  0  0
  2  3  1  0  0  0
  3  4  2  0  0  0
  4  5  1  0  0  0
  5  6  2  0  0  0
  6  7  1  0  0  0
  7  8  2  0  0  0
  8  9  1  0  0  0
  9 10  2  0  0  0
  6 11  1  0  0  0
 11 12  2  0  0  0
 11 13  1  0  0  0
 13 14  1  0  0  0
 15 14  1  0  0  0
 15 16  1  0  0  0
 16 17  1  0  0  0
 17 18  1  0  0  0
 18 19  1  0  0  0
 19 20  1  0  0  0
 21 20  1  0  0  0
 18 22  1  0  0  0
 22 23  1  0  0  0
 23 24  2  0  0  0
 24 25  1  0  0  0
 25 26  2  0  0  0
 26 27  1  0  0  0
 27 28  2  0  0  0
 10  2  1  0  0  0
 21 15  1  0  0  0
 28 23  1  0  0  0
 21  4  1  0  0  0
 10  5  1  0  0  0
 16 28  1  0  0  0
 13 29  1  0  0  0
 17 30  1  0  0  0
 20 31  1  0  0  0
M  END
> <minimizedAffinity>
-11.25625

> <minimizedRMSD>
0.37819

$$$$
P45536


 29 34  0  0  0  0  0  0  0  0999 V2000
   10.8819   13.5255   23.2069 C   0  0  0  0  0  0  0  0  0  0  0  0
   12.0297   13.3878   22.3037 N   0  0  0  0  0  0  0  0  0  0  0  0
   12.5126   14.6835   21.7740 C   0  0  0  0  0  0  0  0  0  0  0  0
   12.2441   15.0144   20.2865 C   0  0  0  0  0  0  0  0  0  0  0  0
   13.3706   15.9262   19.7224 C   0  0  0  0  0  0  0  0  0  0  0  0
   12.7664   17.2861   19.6305 C   0  0  0  0  0  0  0  0  0  0  0  0
   13.4410   18.4883   19.4531 C   0  0  0  0  0  0  0  0  0  0  0  0
   12.7106   19.6743   19.4563 C   0  0  0  0  0  0  0  0  0  0  0  0
   11.3225   19.6317   19.5824 C   0  0  0  0  0  0  0  0  0  0  0  0
   10.6572   18.4051   19.6515 C   0  0  0  0  0  0  0  0  0  0  0  0
   11.3851   17.2275   19.7366 C   0  0  0  0  0  0  0  0  0  0  0  0
   10.9374   15.7887   19.8961 C   0  0  0  0  0  0  0  0  0  0  0  0
    9.5618   15.5112   20.5413 C   0  0  0  0  0  0  0  0  0  0  0  0
    9.0054   16.6177   21.4593 C   0  0  0  0  0  0  0  0  0  0  0  0
    8.1869   16.0991   22.6383 C   0  0  0  0  0  0  0  0  0  0  0  0
    8.9925   15.1016   23.4617 C   0  0  0  0  0  0  0  0  0  0  0  0
    9.9441   14.4308   22.6144 N   0  0  0  0  0  0  0  0  0  0  0  0
    9.4740   14.1868   21.2762 C   0  0  0  0  0  0  0  0  0  0  0  0
   11.7552   12.7982   21.5180 H   0  0  0  0  0  0  0  0  0  0  0  0
    9.7543    8.8013   22.8593 C   0  0  0  0  0  0  0  0  0  0  0  0
    9.6665   10.1505   23.3612 N   0  0  0  0  0  0  0  0  0  0  0  0
   10.4099   11.1007   22.7789 N   0  0  0  0  0  0  0  0  0  0  0  0
   10.2156   12.1966   23.5287 C   0  0  0  0  0  0  0  0  0  0  0  0
    9.2685   11.9359   24.5679 C   0  0  0  0  0  0  0  0  0  0  0  0
    8.6699   12.6761   25.6078 C   0  0  0  0  0  0  0  0  0  0  0  0
    7.6748   12.0840   26.3925 C   0  0  0  0  0  0  0  0  0  0  0  0
    7.2993   10.7628   26.1785 C   0  0  0  0  0  0  0  0  0  0  0  0
    7.9154    9.9975   25.1865 C   0  0  0  0  0  0  0  0  0  0  0  0
    8.8906   10.6088   24.3919 C   0  0  0  0  0  0  0  0  0  0  0  0
 20 21  1  0  0  0
 21 22  1  0  0  0
 22 23  2  0  0  0
  1 23  1  0  0  0
  1  2  1  0  0  0
  2  3  1  0  0  0
  4  3  1  0  0  0
  4  5  1  0  0  0
  5  6  1  0  0  0
  6  7  2  0  0  0
  7  8  1  0  0  0
  8  9  2  0  0  0
  9 10  1  0  0  0
 10 11  2  0  0  0
 12 11  1  0  0  0
 12 13  1  0  0  0
 13 14  1  0  0  0
 14 15  1  0  0  0
 15 16  1  0  0  0
 16 17  1  0  0  0
 17 18  1  0  0  0
 23 24  1  0  0  0
 24 25  2  0  0  0
 25 26  1  0  0  0
 26 27  2  0  0  0
 27 28  1  0  0  0
 28 29  2  0  0  0
 29 21  1  0  0  0
 17  1  1  0  0  0
 29 24  1  0  0  0
 12  4  1  0  0  0
 18 13  1  0  0  0
 11  6  1  0  0  0
  2 19  1  0  0  0
M  END
> <minimizedAffinity>
-11.65396

> <minimizedRMSD>
0.17850

$$$$
P45567


 38 44  0  0  0  0  0  0  0  0999 V2000
   10.6719   13.8452   22.9841 C   0  0  0  0  0  0  0  0  0  0  0  0
   11.8399   13.5385   22.1574 N   0  0  0  0  0  0  0  0  0  0  0  0
   12.6636   14.6282   21.6862 C   0  0  0  0  0  0  0  0  0  0  0  0
   12.2847   15.2986   20.3612 C   0  0  0  0  0  0  0  0  0  0  0  0
   13.4172   16.2640   19.9232 C   0  0  0  0  0  0  0  0  0  0  0  0
   12.7475   17.5798   19.7258 C   0  0  0  0  0  0  0  0  0  0  0  0
   13.3632   18.7781   19.3870 C   0  0  0  0  0  0  0  0  0  0  0  0
   12.5863   19.9340   19.2947 C   0  0  0  0  0  0  0  0  0  0  0  0
   11.2025   19.8735   19.4959 C   0  0  0  0  0  0  0  0  0  0  0  0
   10.5970   18.6566   19.7940 C   0  0  0  0  0  0  0  0  0  0  0  0
    9.2497   18.5982   19.9911 O   0  0  0  0  0  0  0  0  0  0  0  0
   11.3793   17.5111   19.9592 C   0  0  0  0  0  0  0  0  0  0  0  0
   10.9679   16.1157   20.4076 C   0  0  0  0  0  0  0  0  0  0  0  0
    9.9352   15.6214   19.4583 C   0  0  0  0  0  0  0  0  0  0  0  0
    9.3480   14.3350   19.9475 C   0  0  0  0  0  0  0  0  0  0  0  0
    8.7626   14.1651   21.2848 C   0  0  0  0  0  0  0  0  0  0  0  0
    9.6185   14.8046   22.3223 C   0  0  0  0  0  0  0  0  0  0  0  0
   10.2766   16.0844   21.7592 C   0  0  0  0  0  0  0  0  0  0  0  0
   11.5021   13.0400   21.3341 H   0  0  0  0  0  0  0  0  0  0  0  0
    8.7262   19.3673   19.8799 H   0  0  0  0  0  0  0  0  0  0  0  0
    4.1662   10.5214   28.3515 C   0  0  0  0  0  0  0  0  0  0  0  0
    5.2900   11.1578   27.5893 C   0  0  0  0  0  0  0  0  0  0  0  0
    5.6635   12.4782   27.8356 C   0  0  0  0  0  0  0  0  0  0  0  0
    6.7342   13.0446   27.1415 C   0  0  0  0  0  0  0  0  0  0  0  0
    7.4582   12.3024   26.1992 C   0  0  0  0  0  0  0  0  0  0  0  0
    8.5180   12.8900   25.4920 C   0  0  0  0  0  0  0  0  0  0  0  0
    9.1697   12.1755   24.4708 C   0  0  0  0  0  0  0  0  0  0  0  0
   10.0937   12.4806   23.4273 C   0  0  0  0  0  0  0  0  0  0  0  0
   10.3923   11.3685   22.7359 N   0  0  0  0  0  0  0  0  0  0  0  0
    9.7153   10.3841   23.3336 N   0  0  0  0  0  0  0  0  0  0  0  0
    9.9374    9.0260   22.8968 C   0  0  0  0  0  0  0  0  0  0  0  0
    8.8538   10.8304   24.3003 C   0  0  0  0  0  0  0  0  0  0  0  0
    7.8436   10.1974   25.0348 C   0  0  0  0  0  0  0  0  0  0  0  0
    7.1072   10.9619   25.9565 C   0  0  0  0  0  0  0  0  0  0  0  0
    6.0232   10.4103   26.6589 C   0  0  0  0  0  0  0  0  0  0  0  0
    8.5714   15.2418   23.3323 C   0  0  0  0  0  0  0  0  0  0  0  0
    7.6471   16.1589   22.7237 O   0  0  0  0  0  0  0  0  0  0  0  0
    8.1268   16.9419   22.4113 H   0  0  0  0  0  0  0  0  0  0  0  0
 21 22  1  0  0  0
 22 23  2  0  0  0
 23 24  1  0  0  0
 24 25  2  0  0  0
 25 26  1  0  0  0
 26 27  2  0  0  0
 27 28  1  0  0  0
  1 28  1  0  0  0
  1  2  1  0  0  0
  2  3  1  0  0  0
  4  3  1  0  0  0
  4  5  1  0  0  0
  5  6  1  0  0  0
  6  7  2  0  0  0
  7  8  1  0  0  0
  8  9  2  0  0  0
  9 10  1  0  0  0
 10 11  1  0  0  0
 10 12  2  0  0  0
 12 13  1  0  0  0
 13 14  1  0  0  0
 14 15  1  0  0  0
 15 16  1  0  0  0
 16 17  1  0  0  0
 17 36  1  0  0  0
 36 37  1  0  0  0
 17 18  1  0  0  0
 28 29  2  0  0  0
 29 30  1  0  0  0
 30 31  1  0  0  0
 30 32  1  0  0  0
 32 33  2  0  0  0
 33 34  1  0  0  0
 34 35  2  0  0  0
 35 22  1  0  0  0
 34 25  1  0  0  0
 32 27  1  0  0  0
 17  1  1  0  0  0
 13  4  1  0  0  0
 12  6  1  0  0  0
 18 13  1  0  0  0
  2 19  1  0  0  0
 11 20  1  0  0  0
 37 38  1  0  0  0
M  END
> <minimizedAffinity>
-11.15683

> <minimizedRMSD>
0.25371

$$$$
P45653


 36 41  0  0  0  0  0  0  0  0999 V2000
   10.5638   13.2241   23.5158 C   0  0  0  0  0  0  0  0  0  0  0  0
   11.7766   12.8840   22.8049 N   0  0  0  0  0  0  0  0  0  0  0  0
   12.4920   13.8320   21.9926 C   0  0  0  0  0  0  0  0  0  0  0  0
   11.9214   15.1779   21.6082 C   0  0  0  0  0  0  0  0  0  0  0  0
   12.9901   15.8620   20.6407 C   0  0  0  0  0  0  0  0  0  0  0  0
   12.4112   17.0865   19.9910 C   0  0  0  0  0  0  0  0  0  0  0  0
   13.0861   18.3052   19.9093 C   0  0  0  0  0  0  0  0  0  0  0  0
   12.3511   19.4772   19.7576 C   0  0  0  0  0  0  0  0  0  0  0  0
   10.9641   19.4057   19.6810 C   0  0  0  0  0  0  0  0  0  0  0  0
   10.3332   18.1652   19.5616 C   0  0  0  0  0  0  0  0  0  0  0  0
   11.0677   16.9832   19.6328 C   0  0  0  0  0  0  0  0  0  0  0  0
   10.4372   15.5959   19.6588 C   0  0  0  0  0  0  0  0  0  0  0  0
   11.2128   14.5736   18.9859 N   0  0  0  0  0  0  0  0  0  0  0  0
    9.1517   15.6492   19.1053 O   0  0  0  0  0  0  0  0  0  0  0  0
   10.4277   15.1740   21.0985 C   0  0  0  0  0  0  0  0  0  0  0  0
    9.4870   16.0493   21.9178 C   0  0  0  0  0  0  0  0  0  0  0  0
    9.2087   15.2565   23.1699 C   0  0  0  0  0  0  0  0  0  0  0  0
    9.4848   13.8808   22.7966 N   0  0  0  0  0  0  0  0  0  0  0  0
    9.6698   13.8987   21.3607 C   0  0  0  0  0  0  0  0  0  0  0  0
   11.5344   12.1089   22.1877 H   0  0  0  0  0  0  0  0  0  0  0  0
   11.2678   14.7888   17.9904 H   0  0  0  0  0  0  0  0  0  0  0  0
   10.7634   13.6669   19.1135 H   0  0  0  0  0  0  0  0  0  0  0  0
    9.2104   15.9256   18.1774 H   0  0  0  0  0  0  0  0  0  0  0  0
    8.3434   12.3744   25.8814 C   0  0  0  0  0  0  0  0  0  0  0  0
    7.3594   11.7535   26.6592 C   0  0  0  0  0  0  0  0  0  0  0  0
    6.9775   10.4411   26.4142 C   0  0  0  0  0  0  0  0  0  0  0  0
    7.5911    9.7006   25.4044 C   0  0  0  0  0  0  0  0  0  0  0  0
    8.5956   10.3026   24.6515 C   0  0  0  0  0  0  0  0  0  0  0  0
    8.9656   11.6235   24.8658 C   0  0  0  0  0  0  0  0  0  0  0  0
    9.9357   11.8864   23.8722 C   0  0  0  0  0  0  0  0  0  0  0  0
   10.1901   10.7978   23.1241 N   0  0  0  0  0  0  0  0  0  0  0  0
    9.3845    9.8609   23.6229 N   0  0  0  0  0  0  0  0  0  0  0  0
    9.4240    8.5552   23.0207 C   0  0  0  0  0  0  0  0  0  0  0  0
    9.7922   14.0670   26.8442 C   0  0  0  0  0  0  0  0  0  0  0  0
    8.5982   13.7325   26.0775 N   0  0  0  0  0  0  0  0  0  0  0  0
    8.0026   14.4285   25.7168 H   0  0  0  0  0  0  0  0  0  0  0  0
 34 35  1  0  0  0
 35 24  1  0  0  0
 24 25  2  0  0  0
 25 26  1  0  0  0
 26 27  2  0  0  0
 27 28  1  0  0  0
 28 29  2  0  0  0
 29 30  1  0  0  0
  1 30  1  0  0  0
  1  2  1  0  0  0
  2  3  1  0  0  0
  4  3  1  0  0  0
  4  5  1  0  0  0
  5  6  1  0  0  0
  6  7  2  0  0  0
  7  8  1  0  0  0
  8  9  2  0  0  0
  9 10  1  0  0  0
 10 11  2  0  0  0
 11 12  1  0  0  0
 12 13  1  0  0  0
 12 14  1  0  0  0
 12 15  1  0  0  0
 15 16  1  0  0  0
 16 17  1  0  0  0
 17 18  1  0  0  0
 18 19  1  0  0  0
 30 31  2  0  0  0
 31 32  1  0  0  0
 32 33  1  0  0  0
 29 24  1  0  0  0
 18  1  1  0  0  0
 32 28  1  0  0  0
 15  4  1  0  0  0
 11  6  1  0  0  0
 19 15  1  0  0  0
 35 36  1  0  0  0
  2 20  1  0  0  0
 13 21  1  0  0  0
 13 22  1  0  0  0
 14 23  1  0  0  0
M  END
> <minimizedAffinity>
-9.08073

> <minimizedRMSD>
0.27482

$$$$
P45819


 25 27  0  0  0  0  0  0  0  0999 V2000
    9.9820   14.4857   22.2117 N   0  0  0  0  0  0  0  0  0  0  0  0
    9.2489   15.1251   22.0600 H   0  0  0  0  0  0  0  0  0  0  0  0
    7.0162   14.7486   23.2893 C   0  0  0  0  0  0  0  0  0  0  0  0
    7.5859   13.6940   24.1818 C   0  0  0  0  0  0  0  0  0  0  0  0
    6.9218   13.2185   25.3266 C   0  0  0  0  0  0  0  0  0  0  0  0
    7.2705   12.0013   25.9176 C   0  0  0  0  0  0  0  0  0  0  0  0
    8.2465   11.1922   25.3411 C   0  0  0  0  0  0  0  0  0  0  0  0
    8.9711   11.7421   24.2795 C   0  0  0  0  0  0  0  0  0  0  0  0
    8.7489   13.0250   23.7889 C   0  0  0  0  0  0  0  0  0  0  0  0
    9.7852   13.2853   22.8518 C   0  0  0  0  0  0  0  0  0  0  0  0
   10.5021   12.1789   22.6696 N   0  0  0  0  0  0  0  0  0  0  0  0
    9.9127   11.2345   23.4287 N   0  0  0  0  0  0  0  0  0  0  0  0
   10.2747    9.8443   23.2573 C   0  0  0  0  0  0  0  0  0  0  0  0
   11.3433   14.7501   21.7729 C   0  0  0  0  0  0  0  0  0  0  0  0
   11.8129   15.3192   20.4802 N   0  0  0  0  0  0  0  0  0  0  0  0
   12.1788   14.1326   19.7003 C   0  0  0  0  0  0  0  0  0  0  0  0
   11.6168   13.9980   18.4231 O   0  0  0  0  0  0  0  0  0  0  0  0
   10.6550   13.8998   18.5018 H   0  0  0  0  0  0  0  0  0  0  0  0
   12.8761   16.3143   20.6254 C   0  0  0  0  0  0  0  0  0  0  0  0
   12.9773   17.3550   19.5194 C   0  0  0  0  0  0  0  0  0  0  0  0
   13.1059   17.1069   18.1418 C   0  0  0  0  0  0  0  0  0  0  0  0
   13.1415   18.1725   17.3386 N   0  0  0  0  0  0  0  0  0  0  0  0
   13.0075   19.1723   18.2083 N   0  0  0  0  0  0  0  0  0  0  0  0
   12.9250   18.7275   19.4889 C   0  0  0  0  0  0  0  0  0  0  0  0
   12.9725   20.1224   17.9528 H   0  0  0  0  0  0  0  0  0  0  0  0
  3  4  1  0  0  0
  4  5  2  0  0  0
  5  6  1  0  0  0
  6  7  2  0  0  0
  7  8  1  0  0  0
  8  9  2  0  0  0
  9 10  1  0  0  0
 10  1  1  0  0  0
  1 14  1  0  0  0
 14 15  1  0  0  0
 15 16  1  0  0  0
 16 17  1  0  0  0
 15 19  1  0  0  0
 19 20  1  0  0  0
 20 21  1  0  0  0
 21 22  2  0  0  0
 22 23  1  0  0  0
 23 24  1  0  0  0
 10 11  2  0  0  0
 11 12  1  0  0  0
 12 13  1  0  0  0
  9  4  1  0  0  0
 24 20  2  0  0  0
 12  8  1  0  0  0
  1  2  1  0  0  0
 17 18  1  0  0  0
 23 25  1  0  0  0
M  END
> <minimizedAffinity>
-6.00449

> <minimizedRMSD>
1.15879

$$$$
P45862


 21 22  0  0  0  0  0  0  0  0999 V2000
    5.8413   10.4289   27.2192 C   0  0  0  0  0  0  0  0  0  0  0  0
    6.9046   11.0429   26.3632 C   0  0  0  0  0  0  0  0  0  0  0  0
    7.6407   10.2670   25.4592 C   0  0  0  0  0  0  0  0  0  0  0  0
    8.6105   10.9148   24.6799 C   0  0  0  0  0  0  0  0  0  0  0  0
    8.8746   12.2823   24.7877 C   0  0  0  0  0  0  0  0  0  0  0  0
    8.1405   13.0468   25.7094 C   0  0  0  0  0  0  0  0  0  0  0  0
    7.1750   12.4048   26.4857 C   0  0  0  0  0  0  0  0  0  0  0  0
    6.5013   13.1150   27.4012 F   0  0  0  0  0  0  0  0  0  0  0  0
    9.9288   12.5343   23.8666 C   0  0  0  0  0  0  0  0  0  0  0  0
   10.2544   11.4129   23.1983 N   0  0  0  0  0  0  0  0  0  0  0  0
    9.4736   10.4546   23.7182 N   0  0  0  0  0  0  0  0  0  0  0  0
    9.6376    9.0986   23.2449 C   0  0  0  0  0  0  0  0  0  0  0  0
   10.6877   13.8265   23.6000 C   0  0  0  0  0  0  0  0  0  0  0  0
    9.8690   14.9596   23.6509 O   0  0  0  0  0  0  0  0  0  0  0  0
   11.7348   13.9986   24.5241 O   0  0  0  0  0  0  0  0  0  0  0  0
    9.1154   15.0183   23.0971 H   0  0  0  0  0  0  0  0  0  0  0  0
   12.3847   13.3312   24.6254 H   0  0  0  0  0  0  0  0  0  0  0  0
   11.3442   13.7367   22.3118 N   0  0  0  0  0  0  0  0  0  0  0  0
   11.4942   12.8258   21.9699 H   0  0  0  0  0  0  0  0  0  0  0  0
   11.7708   14.7260   21.5306 C   0  0  0  0  0  0  0  0  0  0  0  0
   12.1517   15.5728   20.8457 N   0  0  0  0  0  0  0  0  0  0  0  0
  1  2  1  0  0  0
  2  3  2  0  0  0
  3  4  1  0  0  0
  4  5  2  0  0  0
  5  6  1  0  0  0
  6  7  2  0  0  0
  7  8  1  0  0  0
  5  9  1  0  0  0
  9 13  1  0  0  0
 13 14  1  0  0  0
 13 15  1  0  0  0
 13 18  1  0  0  0
 18 20  1  0  0  0
 20 21  3  0  0  0
  9 10  2  0  0  0
 10 11  1  0  0  0
 11 12  1  0  0  0
  7  2  1  0  0  0
 11  4  1  0  0  0
 14 16  1  0  0  0
 15 17  1  0  0  0
 18 19  1  0  0  0
M  END
> <minimizedAffinity>
-7.04460

> <minimizedRMSD>
0.43568

$$$$
P46636


 10 10  0  0  0  0  0  0  0  0999 V2000
    9.9316   13.4925   22.4736 N   0  0  0  0  0  0  0  0  0  0  0  0
   11.1630   14.1257   22.9621 C   0  0  0  0  0  0  0  0  0  0  0  0
   11.9155   14.8375   21.8302 C   0  0  0  0  0  0  0  0  0  0  0  0
   11.1114   15.8642   21.2592 O   0  0  0  0  0  0  0  0  0  0  0  0
    9.9560   15.2661   20.6576 C   0  0  0  0  0  0  0  0  0  0  0  0
    9.1323   14.4611   21.6841 C   0  0  0  0  0  0  0  0  0  0  0  0
    9.1522   12.7280   23.4666 C   0  0  0  0  0  0  0  0  0  0  0  0
    8.3127   13.5465   24.4578 C   0  0  0  0  0  0  0  0  0  0  0  0
    9.6553   10.2540   24.0874 C   0  0  0  0  0  0  0  0  0  0  0  0
    9.9893   11.7232   24.2981 C   0  0  0  0  0  0  0  0  0  0  0  0
  9 10  1  0  0  0
 10  7  1  0  0  0
  7  8  1  0  0  0
  7  1  1  0  0  0
  1  2  1  0  0  0
  2  3  1  0  0  0
  3  4  1  0  0  0
  4  5  1  0  0  0
  5  6  1  0  0  0
  6  1  1  0  0  0
M  END
> <minimizedAffinity>
-4.32032

> <minimizedRMSD>
0.90363

$$$$
P47252


 34 36  0  0  0  0  0  0  0  0999 V2000
    8.8163   14.6268   23.1961 C   0  0  0  0  0  0  0  0  0  0  0  0
    7.8018   15.3544   24.1007 N   0  0  0  0  0  0  0  0  0  0  0  0
    6.9312   16.3230   23.4390 C   0  0  0  0  0  0  0  0  0  0  0  0
    7.2644   15.0191   25.3388 C   0  0  0  0  0  0  0  0  0  0  0  0
    6.1670   15.4354   25.7350 O   0  0  0  0  0  0  0  0  0  0  0  0
    8.0250   14.1662   26.2832 C   0  0  0  0  0  0  0  0  0  0  0  0
    7.7509   12.7280   26.0042 C   0  0  0  0  0  0  0  0  0  0  0  0
    6.7484   12.0880   26.7320 C   0  0  0  0  0  0  0  0  0  0  0  0
    6.5057   10.7392   26.5522 C   0  0  0  0  0  0  0  0  0  0  0  0
    5.3382    9.9477   27.7857 Br  0  0  0  0  0  0  0  0  0  0  0  0
    7.1882    9.9859   25.5953 C   0  0  0  0  0  0  0  0  0  0  0  0
    8.1581   10.6473   24.8344 C   0  0  0  0  0  0  0  0  0  0  0  0
    8.4457   11.9940   25.0317 C   0  0  0  0  0  0  0  0  0  0  0  0
    9.4490   12.3101   24.0890 C   0  0  0  0  0  0  0  0  0  0  0  0
    9.7700   11.2325   23.3533 N   0  0  0  0  0  0  0  0  0  0  0  0
    9.0249   10.2404   23.8526 N   0  0  0  0  0  0  0  0  0  0  0  0
    9.2348    8.9187   23.3198 C   0  0  0  0  0  0  0  0  0  0  0  0
   10.0302   13.7009   23.7716 C   0  0  0  0  0  0  0  0  0  0  0  0
   10.6694   14.2632   24.9056 O   0  0  0  0  0  0  0  0  0  0  0  0
   11.3790   13.6725   25.2028 H   0  0  0  0  0  0  0  0  0  0  0  0
    7.4690   14.6006   20.9621 C   0  0  0  0  0  0  0  0  0  0  0  0
    8.0945   13.8285   22.0931 C   0  0  0  0  0  0  0  0  0  0  0  0
   11.1682   13.4175   22.8872 N   0  0  0  0  0  0  0  0  0  0  0  0
   10.7808   13.1116   21.9946 H   0  0  0  0  0  0  0  0  0  0  0  0
   12.1284   14.4696   22.5927 C   0  0  0  0  0  0  0  0  0  0  0  0
   12.3425   14.6680   21.0842 C   0  0  0  0  0  0  0  0  0  0  0  0
   11.3094   15.5870   20.6326 N   0  0  0  0  0  0  0  0  0  0  0  0
   11.7202   16.5161   20.5404 H   0  0  0  0  0  0  0  0  0  0  0  0
   10.7353   15.2186   19.3782 C   0  0  0  0  0  0  0  0  0  0  0  0
   11.6918   14.8698   18.4383 O   0  0  0  0  0  0  0  0  0  0  0  0
   12.2778   15.6259   18.2774 H   0  0  0  0  0  0  0  0  0  0  0  0
    9.9829   16.3402   18.9054 N   0  0  0  0  0  0  0  0  0  0  0  0
    9.6708   17.3737   19.8839 C   0  0  0  0  0  0  0  0  0  0  0  0
    9.1003   15.9874   18.5353 H   0  0  0  0  0  0  0  0  0  0  0  0
 21 22  1  0  0  0
  1 22  1  0  0  0
  1  2  1  0  0  0
  2  3  1  0  0  0
  2  4  1  0  0  0
  4  5  2  0  0  0
  4  6  1  0  0  0
  6  7  1  0  0  0
  7  8  2  0  0  0
  8  9  1  0  0  0
  9 10  1  0  0  0
  9 11  2  0  0  0
 11 12  1  0  0  0
 12 13  2  0  0  0
 13 14  1  0  0  0
 14 15  2  0  0  0
 15 16  1  0  0  0
 16 17  1  0  0  0
 14 18  1  0  0  0
 18 19  1  0  0  0
 18 23  1  0  0  0
 23 25  1  0  0  0
 25 26  1  0  0  0
 26 27  1  0  0  0
 27 29  1  0  0  0
 29 30  1  0  0  0
 29 32  1  0  0  0
 32 33  1  0  0  0
 18  1  1  0  0  0
 13  7  1  0  0  0
 16 12  1  0  0  0
 19 20  1  0  0  0
 23 24  1  0  0  0
 27 28  1  0  0  0
 30 31  1  0  0  0
 32 34  1  0  0  0
M  END
> <minimizedAffinity>
-8.15635

> <minimizedRMSD>
0.27791

$$$$
P47449


 21 23  0  0  0  0  0  0  0  0999 V2000
   10.1091   12.0453   24.0339 C   0  0  0  0  0  0  0  0  0  0  0  0
   10.2538   10.9067   23.2681 C   0  0  0  0  0  0  0  0  0  0  0  0
    9.4640    9.9135   23.7807 N   0  0  0  0  0  0  0  0  0  0  0  0
    9.5737    8.5283   23.3792 C   0  0  0  0  0  0  0  0  0  0  0  0
    8.6305   10.4387   24.7374 C   0  0  0  0  0  0  0  0  0  0  0  0
    7.5802    9.8854   25.4661 C   0  0  0  0  0  0  0  0  0  0  0  0
    6.9013   10.6766   26.3903 C   0  0  0  0  0  0  0  0  0  0  0  0
    5.5615   10.2949   27.3871 S   0  0  0  0  0  0  0  0  0  0  0  0
    5.6232   11.8593   28.0785 C   0  0  0  0  0  0  0  0  0  0  0  0
    4.7581   12.2377   29.0360 N   0  0  0  0  0  0  0  0  0  0  0  0
    6.5517   12.6502   27.6097 N   0  0  0  0  0  0  0  0  0  0  0  0
    7.2800   11.9943   26.6298 C   0  0  0  0  0  0  0  0  0  0  0  0
    8.3447   12.5266   25.8956 C   0  0  0  0  0  0  0  0  0  0  0  0
    9.0233   11.7659   24.9319 C   0  0  0  0  0  0  0  0  0  0  0  0
    4.0744   11.6071   29.3588 H   0  0  0  0  0  0  0  0  0  0  0  0
    4.8084   13.1453   29.4141 H   0  0  0  0  0  0  0  0  0  0  0  0
   12.3022   14.5950   22.0810 C   0  0  0  0  0  0  0  0  0  0  0  0
   11.4250   13.5697   22.5645 N   0  0  0  0  0  0  0  0  0  0  0  0
   10.9116   13.2824   23.9851 C   0  0  0  0  0  0  0  0  0  0  0  0
   11.0579   13.8778   24.9753 O   0  0  0  0  0  0  0  0  0  0  0  0
   11.0979   12.9481   21.8746 H   0  0  0  0  0  0  0  0  0  0  0  0
 17 18  1  0  0  0
 18 19  1  0  0  0
 19 20  2  0  0  0
 19  1  1  0  0  0
  1  2  2  0  0  0
  2  3  1  0  0  0
  3  4  1  0  0  0
  3  5  1  0  0  0
  5  6  2  0  0  0
  6  7  1  0  0  0
  7  8  1  0  0  0
  8  9  1  0  0  0
  9 10  1  0  0  0
  9 11  2  0  0  0
 11 12  1  0  0  0
 12 13  1  0  0  0
 13 14  2  0  0  0
 14  1  1  0  0  0
 14  5  1  0  0  0
 12  7  2  0  0  0
 18 21  1  0  0  0
 10 15  1  0  0  0
 10 16  1  0  0  0
M  END
> <minimizedAffinity>
-6.48777

> <minimizedRMSD>
0.33016

$$$$
P47459


 22 24  0  0  0  0  0  0  0  0999 V2000
    9.9642   12.4801   23.5221 C   0  0  0  0  0  0  0  0  0  0  0  0
   10.1776   11.1816   23.0148 C   0  0  0  0  0  0  0  0  0  0  0  0
    9.4635   10.3372   23.7567 N   0  0  0  0  0  0  0  0  0  0  0  0
    8.7442   11.0369   24.6320 C   0  0  0  0  0  0  0  0  0  0  0  0
    7.8904   10.3032   25.3619 C   0  0  0  0  0  0  0  0  0  0  0  0
    7.0779   11.0030   26.2075 C   0  0  0  0  0  0  0  0  0  0  0  0
    7.2263   12.4073   26.2347 C   0  0  0  0  0  0  0  0  0  0  0  0
    6.0544   13.3806   27.3449 Br  0  0  0  0  0  0  0  0  0  0  0  0
    8.1786   13.1223   25.4431 C   0  0  0  0  0  0  0  0  0  0  0  0
    8.9705   12.3639   24.5671 C   0  0  0  0  0  0  0  0  0  0  0  0
    8.0208    8.9987   25.0241 O   0  0  0  0  0  0  0  0  0  0  0  0
    9.0402    8.9682   23.8930 C   0  0  0  0  0  0  0  0  0  0  0  0
   10.5638   13.7775   23.0203 C   0  0  0  0  0  0  0  0  0  0  0  0
   10.7847   14.6086   24.1430 O   0  0  0  0  0  0  0  0  0  0  0  0
   11.1697   15.4499   23.8517 H   0  0  0  0  0  0  0  0  0  0  0  0
    9.5382   14.3438   21.9619 C   0  0  0  0  0  0  0  0  0  0  0  0
    8.4128   14.7649   22.2009 O   0  0  0  0  0  0  0  0  0  0  0  0
    9.9357   14.2957   20.6676 O   0  0  0  0  0  0  0  0  0  0  0  0
   10.7906   13.9787   20.4515 H   0  0  0  0  0  0  0  0  0  0  0  0
   12.6902   14.6889   22.1700 C   0  0  0  0  0  0  0  0  0  0  0  0
   11.8973   13.5055   22.4701 N   0  0  0  0  0  0  0  0  0  0  0  0
   12.4113   12.9435   23.1486 H   0  0  0  0  0  0  0  0  0  0  0  0
 20 21  1  0  0  0
 21 13  1  0  0  0
 13 14  1  0  0  0
 13 16  1  0  0  0
 16 17  2  0  0  0
 16 18  1  0  0  0
 13  1  1  0  0  0
  1  2  2  0  0  0
  2  3  1  0  0  0
  3  4  1  0  0  0
  4  5  2  0  0  0
  5  6  1  0  0  0
  6  7  2  0  0  0
  7  8  1  0  0  0
  7  9  1  0  0  0
  9 10  2  0  0  0
  5 11  1  0  0  0
 11 12  1  0  0  0
 10  1  1  0  0  0
 12  3  1  0  0  0
 10  4  1  0  0  0
 21 22  1  0  0  0
 14 15  1  0  0  0
 18 19  1  0  0  0
M  END
> <minimizedAffinity>
-6.42360

> <minimizedRMSD>
0.73733

$$$$
P47964


 25 27  0  0  0  0  0  0  0  0999 V2000
    9.6760   13.4429   23.6503 C   0  0  0  0  0  0  0  0  0  0  0  0
   10.0536   14.0759   24.9597 N   0  0  0  0  0  0  0  0  0  0  0  0
   10.9593   13.4598   22.7956 C   0  0  0  0  0  0  0  0  0  0  0  0
   10.9852   14.6173   21.7848 C   0  0  0  0  0  0  0  0  0  0  0  0
    9.8178   14.5723   20.7965 C   0  0  0  0  0  0  0  0  0  0  0  0
    8.4802   14.2706   21.4428 C   0  0  0  0  0  0  0  0  0  0  0  0
    8.5930   14.3110   22.9448 C   0  0  0  0  0  0  0  0  0  0  0  0
    7.3099   14.3034   23.5481 O   0  0  0  0  0  0  0  0  0  0  0  0
   10.7631   13.5062   25.4206 H   0  0  0  0  0  0  0  0  0  0  0  0
    9.2289   14.1405   25.5564 H   0  0  0  0  0  0  0  0  0  0  0  0
    6.8809   13.4489   23.3849 H   0  0  0  0  0  0  0  0  0  0  0  0
    5.5122   12.3959   27.6052 C   0  0  0  0  0  0  0  0  0  0  0  0
    6.4241   11.6650   26.6659 C   0  0  0  0  0  0  0  0  0  0  0  0
    6.3315   10.2866   26.5124 C   0  0  0  0  0  0  0  0  0  0  0  0
    7.1569    9.6092   25.6132 C   0  0  0  0  0  0  0  0  0  0  0  0
    8.0665   10.3304   24.8452 C   0  0  0  0  0  0  0  0  0  0  0  0
    8.1659   11.7084   24.9454 C   0  0  0  0  0  0  0  0  0  0  0  0
    7.3423   12.3761   25.8816 C   0  0  0  0  0  0  0  0  0  0  0  0
    9.1556   12.0678   23.9791 C   0  0  0  0  0  0  0  0  0  0  0  0
    9.6252   10.9886   23.3423 N   0  0  0  0  0  0  0  0  0  0  0  0
    8.9943    9.9575   23.9104 N   0  0  0  0  0  0  0  0  0  0  0  0
    9.3468    8.6224   23.5005 C   0  0  0  0  0  0  0  0  0  0  0  0
   12.2840   14.6077   21.0231 C   0  0  0  0  0  0  0  0  0  0  0  0
   13.2388   15.1349   21.9246 O   0  0  0  0  0  0  0  0  0  0  0  0
   12.9641   16.0223   22.2040 H   0  0  0  0  0  0  0  0  0  0  0  0
 12 13  1  0  0  0
 13 14  2  0  0  0
 14 15  1  0  0  0
 15 16  2  0  0  0
 16 17  1  0  0  0
 17 18  2  0  0  0
 17 19  1  0  0  0
 19  1  1  0  0  0
  1  2  1  0  0  0
  1  3  1  0  0  0
  3  4  1  0  0  0
  4 23  1  0  0  0
 23 24  1  0  0  0
  4  5  1  0  0  0
  5  6  1  0  0  0
  6  7  1  0  0  0
  7  8  1  0  0  0
 19 20  2  0  0  0
 20 21  1  0  0  0
 21 22  1  0  0  0
 18 13  1  0  0  0
  7  1  1  0  0  0
 21 16  1  0  0  0
  2  9  1  0  0  0
  2 10  1  0  0  0
 24 25  1  0  0  0
  8 11  1  0  0  0
M  END
> <minimizedAffinity>
-7.75570

> <minimizedRMSD>
0.50400

$$$$
P48078


 25 27  0  0  0  0  0  0  0  0999 V2000
    6.4254   11.5903   26.7783 C   0  0  0  0  0  0  0  0  0  0  0  0
    7.0115   12.1753   27.9304 O   0  0  0  0  0  0  0  0  0  0  0  0
    7.4765   12.9886   27.6791 H   0  0  0  0  0  0  0  0  0  0  0  0
    9.1342    9.0099   23.5714 C   0  0  0  0  0  0  0  0  0  0  0  0
    8.6766   10.1500   24.3216 N   0  0  0  0  0  0  0  0  0  0  0  0
    7.6724   10.0104   25.2071 N   0  0  0  0  0  0  0  0  0  0  0  0
    7.5177   11.2430   25.7406 C   0  0  0  0  0  0  0  0  0  0  0  0
    8.4891   12.1476   25.2027 C   0  0  0  0  0  0  0  0  0  0  0  0
    8.8252   13.5028   25.3840 C   0  0  0  0  0  0  0  0  0  0  0  0
    9.8531   14.0551   24.6127 C   0  0  0  0  0  0  0  0  0  0  0  0
   10.5299   13.2986   23.6692 C   0  0  0  0  0  0  0  0  0  0  0  0
   10.2003   11.9634   23.4752 C   0  0  0  0  0  0  0  0  0  0  0  0
    9.1937   11.4109   24.2628 C   0  0  0  0  0  0  0  0  0  0  0  0
    5.7227   10.3556   27.1775 N   0  0  0  0  0  0  0  0  0  0  0  0
    4.4339   10.5921   27.6101 F   0  0  0  0  0  0  0  0  0  0  0  0
    6.3972    9.7103   28.1952 F   0  0  0  0  0  0  0  0  0  0  0  0
    5.5574   12.5788   26.1528 N   0  0  0  0  0  0  0  0  0  0  0  0
    4.6406   12.1478   26.0343 H   0  0  0  0  0  0  0  0  0  0  0  0
    5.3575   13.8433   26.8513 C   0  0  0  0  0  0  0  0  0  0  0  0
    5.3913   14.9896   25.8565 C   0  0  0  0  0  0  0  0  0  0  0  0
    4.7072   16.0947   26.6305 C   0  0  0  0  0  0  0  0  0  0  0  0
    3.6951   15.4728   27.4340 O   0  0  0  0  0  0  0  0  0  0  0  0
    3.9662   14.0702   27.4798 C   0  0  0  0  0  0  0  0  0  0  0  0
    3.9471   13.6613   28.8344 O   0  0  0  0  0  0  0  0  0  0  0  0
    4.6037   14.1702   29.3351 H   0  0  0  0  0  0  0  0  0  0  0  0
  4  5  1  0  0  0
  5  6  1  0  0  0
  6  7  2  0  0  0
  7  1  1  0  0  0
  1  2  1  0  0  0
  1 17  1  0  0  0
 19 17  1  0  0  0
 19 20  1  0  0  0
 20 21  1  0  0  0
 21 22  1  0  0  0
 22 23  1  0  0  0
 23 24  1  0  0  0
  1 14  1  0  0  0
 14 15  1  0  0  0
 14 16  1  0  0  0
  7  8  1  0  0  0
  8  9  2  0  0  0
  9 10  1  0  0  0
 10 11  2  0  0  0
 11 12  1  0  0  0
 12 13  2  0  0  0
 13  5  1  0  0  0
 23 19  1  0  0  0
 13  8  1  0  0  0
  2  3  1  0  0  0
 17 18  1  0  0  0
 24 25  1  0  0  0
M  END
> <minimizedAffinity>
-6.10955

> <minimizedRMSD>
0.80698

$$$$
P48148


 24 26  0  0  0  0  0  0  0  0999 V2000
    5.1039   12.6888   28.0273 C   0  0  0  0  0  0  0  0  0  0  0  0
    6.0418   12.1339   26.9863 C   0  0  0  0  0  0  0  0  0  0  0  0
    5.9793   10.7241   26.6888 C   0  0  0  0  0  0  0  0  0  0  0  0
    6.7569   10.0805   25.7032 C   0  0  0  0  0  0  0  0  0  0  0  0
    7.5953   10.9823   25.0666 C   0  0  0  0  0  0  0  0  0  0  0  0
    8.5160   10.6827   24.0977 C   0  0  0  0  0  0  0  0  0  0  0  0
    8.9654    9.4088   23.4832 C   0  0  0  0  0  0  0  0  0  0  0  0
    9.0673   11.8873   23.7611 N   0  0  0  0  0  0  0  0  0  0  0  0
   10.0218   12.0183   22.7904 O   0  0  0  0  0  0  0  0  0  0  0  0
    8.6999   12.9305   24.5829 C   0  0  0  0  0  0  0  0  0  0  0  0
    7.6824   12.3816   25.3499 C   0  0  0  0  0  0  0  0  0  0  0  0
    6.9069   13.0327   26.3080 C   0  0  0  0  0  0  0  0  0  0  0  0
   10.1303   11.1728   22.3275 H   0  0  0  0  0  0  0  0  0  0  0  0
    9.3205   14.2731   24.6296 C   0  0  0  0  0  0  0  0  0  0  0  0
    8.6647   15.1921   24.9230 O   0  0  0  0  0  0  0  0  0  0  0  0
   10.8278   14.1812   24.3122 N   0  0  0  0  0  0  0  0  0  0  0  0
   11.1628   13.2673   24.1646 H   0  0  0  0  0  0  0  0  0  0  0  0
   11.8255   15.2159   24.1964 C   0  0  0  0  0  0  0  0  0  0  0  0
   12.5295   15.2292   22.8360 C   0  0  0  0  0  0  0  0  0  0  0  0
   11.6616   15.1314   21.6869 N   0  0  0  0  0  0  0  0  0  0  0  0
   12.0225   14.8743   20.4014 C   0  0  0  0  0  0  0  0  0  0  0  0
   11.0428   15.2349   19.6028 N   0  0  0  0  0  0  0  0  0  0  0  0
   10.0883   15.6842   20.4592 C   0  0  0  0  0  0  0  0  0  0  0  0
   10.3888   15.5398   21.7480 N   0  0  0  0  0  0  0  0  0  0  0  0
  1  2  1  0  0  0
  2  3  1  0  0  0
  3  4  2  0  0  0
  4  5  1  0  0  0
  5  6  2  0  0  0
  6  7  1  0  0  0
  6  8  1  0  0  0
  8  9  1  0  0  0
  8 10  1  0  0  0
 10 14  1  0  0  0
 14 15  2  0  0  0
 14 16  1  0  0  0
 16 18  1  0  0  0
 18 19  1  0  0  0
 19 20  1  0  0  0
 20 21  1  0  0  0
 21 22  2  0  0  0
 22 23  1  0  0  0
 23 24  2  0  0  0
 10 11  2  0  0  0
 11 12  1  0  0  0
 12  2  2  0  0  0
 11  5  1  0  0  0
 24 20  1  0  0  0
  9 13  1  0  0  0
 16 17  1  0  0  0
M  END
> <minimizedAffinity>
-7.26094

> <minimizedRMSD>
0.96974

$$$$
P48155


 22 24  0  0  0  0  0  0  0  0999 V2000
    9.1674    9.1138   23.2822 C   0  0  0  0  0  0  0  0  0  0  0  0
    8.9225   10.4384   23.8056 N   0  0  0  0  0  0  0  0  0  0  0  0
    9.7215   11.4411   23.4062 N   0  0  0  0  0  0  0  0  0  0  0  0
    9.2984   12.5143   24.1021 C   0  0  0  0  0  0  0  0  0  0  0  0
    8.1721   12.1916   24.9080 C   0  0  0  0  0  0  0  0  0  0  0  0
    7.3317   12.8928   25.7943 C   0  0  0  0  0  0  0  0  0  0  0  0
    6.3550   12.1827   26.4888 C   0  0  0  0  0  0  0  0  0  0  0  0
    5.5722   12.8258   27.3660 F   0  0  0  0  0  0  0  0  0  0  0  0
    6.1978   10.8134   26.3249 C   0  0  0  0  0  0  0  0  0  0  0  0
    7.0011   10.1087   25.4262 C   0  0  0  0  0  0  0  0  0  0  0  0
    7.9812   10.8218   24.7279 C   0  0  0  0  0  0  0  0  0  0  0  0
   10.0324   13.7960   24.0292 C   0  0  0  0  0  0  0  0  0  0  0  0
    9.8354   14.6559   24.7914 O   0  0  0  0  0  0  0  0  0  0  0  0
   11.0442   13.6984   22.8774 N   0  0  0  0  0  0  0  0  0  0  0  0
   11.0661   12.8264   22.4211 H   0  0  0  0  0  0  0  0  0  0  0  0
   11.9644   14.6729   22.3572 C   0  0  0  0  0  0  0  0  0  0  0  0
   11.9414   14.7904   20.8369 C   0  0  0  0  0  0  0  0  0  0  0  0
   10.8184   15.5160   20.2928 N   0  0  0  0  0  0  0  0  0  0  0  0
   10.6231   15.8547   18.9905 C   0  0  0  0  0  0  0  0  0  0  0  0
    9.7600   16.8443   18.9294 N   0  0  0  0  0  0  0  0  0  0  0  0
    9.4089   17.0320   20.2298 C   0  0  0  0  0  0  0  0  0  0  0  0
    9.9660   16.1784   21.0876 N   0  0  0  0  0  0  0  0  0  0  0  0
  1  2  1  0  0  0
  2  3  1  0  0  0
  3  4  2  0  0  0
  4 12  1  0  0  0
 12 13  2  0  0  0
 12 14  1  0  0  0
 14 16  1  0  0  0
 16 17  1  0  0  0
 17 18  1  0  0  0
 18 19  1  0  0  0
 19 20  2  0  0  0
 20 21  1  0  0  0
 21 22  2  0  0  0
  4  5  1  0  0  0
  5  6  2  0  0  0
  6  7  1  0  0  0
  7  8  1  0  0  0
  7  9  2  0  0  0
  9 10  1  0  0  0
 10 11  2  0  0  0
 11  2  1  0  0  0
 22 18  1  0  0  0
 11  5  1  0  0  0
 14 15  1  0  0  0
M  END
> <minimizedAffinity>
-7.05249

> <minimizedRMSD>
0.17143

$$$$
P48170


 30 33  0  0  0  0  0  0  0  0999 V2000
   10.0810   14.0040   23.3962 C   0  0  0  0  0  0  0  0  0  0  0  0
    9.4894   15.2794   23.2349 O   0  0  0  0  0  0  0  0  0  0  0  0
    8.8360   15.4238   23.9370 H   0  0  0  0  0  0  0  0  0  0  0  0
    8.9914    9.2575   23.5278 C   0  0  0  0  0  0  0  0  0  0  0  0
    8.9042   10.6837   23.8019 N   0  0  0  0  0  0  0  0  0  0  0  0
    9.4491   11.5772   22.8525 N   0  0  0  0  0  0  0  0  0  0  0  0
    8.9107   12.9402   23.2017 C   0  0  0  0  0  0  0  0  0  0  0  0
    7.9588   12.6546   24.3279 C   0  0  0  0  0  0  0  0  0  0  0  0
    7.9726   11.3433   24.5795 C   0  0  0  0  0  0  0  0  0  0  0  0
    7.0827   10.7125   25.5880 C   0  0  0  0  0  0  0  0  0  0  0  0
    6.4868   11.7265   26.5730 C   0  0  0  0  0  0  0  0  0  0  0  0
    6.0420   13.0425   25.9465 C   0  0  0  0  0  0  0  0  0  0  0  0
    7.0668   13.6537   24.9786 C   0  0  0  0  0  0  0  0  0  0  0  0
    9.1591   11.3129   21.9110 H   0  0  0  0  0  0  0  0  0  0  0  0
   11.0817   13.7280   22.3591 N   0  0  0  0  0  0  0  0  0  0  0  0
   10.6102   13.2269   21.6061 H   0  0  0  0  0  0  0  0  0  0  0  0
   11.7693   14.8681   21.7608 C   0  0  0  0  0  0  0  0  0  0  0  0
   11.5624   14.9599   20.2450 C   0  0  0  0  0  0  0  0  0  0  0  0
   10.5598   15.9136   19.8383 N   0  0  0  0  0  0  0  0  0  0  0  0
   10.3583   16.4149   18.5961 C   0  0  0  0  0  0  0  0  0  0  0  0
    9.6012   17.4842   18.6874 N   0  0  0  0  0  0  0  0  0  0  0  0
    9.3509   17.5897   20.0196 C   0  0  0  0  0  0  0  0  0  0  0  0
    9.8312   16.5829   20.7495 N   0  0  0  0  0  0  0  0  0  0  0  0
   10.5851   13.9302   24.8395 C   0  0  0  0  0  0  0  0  0  0  0  0
   12.0299   14.1504   25.2039 C   0  0  0  0  0  0  0  0  0  0  0  0
   12.9115   13.2223   24.7652 N   0  0  0  0  0  0  0  0  0  0  0  0
   13.9491   12.9265   25.5638 C   0  0  0  0  0  0  0  0  0  0  0  0
   14.1393   13.5134   26.7894 C   0  0  0  0  0  0  0  0  0  0  0  0
   13.2510   14.5069   27.1164 C   0  0  0  0  0  0  0  0  0  0  0  0
   12.2212   14.8743   26.3329 N   0  0  0  0  0  0  0  0  0  0  0  0
  4  5  1  0  0  0
  5  6  1  0  0  0
  7  6  1  0  0  0
  7  1  1  0  0  0
  1  2  1  0  0  0
  1 24  1  0  0  0
 24 25  1  0  0  0
 25 26  2  0  0  0
 26 27  1  0  0  0
 27 28  2  0  0  0
 28 29  1  0  0  0
 29 30  2  0  0  0
  1 15  1  0  0  0
 15 17  1  0  0  0
 17 18  1  0  0  0
 18 19  1  0  0  0
 19 20  1  0  0  0
 20 21  2  0  0  0
 21 22  1  0  0  0
 22 23  2  0  0  0
  7  8  1  0  0  0
  8  9  2  0  0  0
  9 10  1  0  0  0
 10 11  1  0  0  0
 11 12  1  0  0  0
 12 13  1  0  0  0
  9  5  1  0  0  0
 30 25  1  0  0  0
 23 19  1  0  0  0
 13  8  1  0  0  0
  6 14  1  0  0  0
  2  3  1  0  0  0
 15 16  1  0  0  0
M  END
> <minimizedAffinity>
-7.36602

> <minimizedRMSD>
0.71906

$$$$
P48171


 22 24  0  0  0  0  0  0  0  0999 V2000
    5.4413   12.8672   27.4726 C   0  0  0  0  0  0  0  0  0  0  0  0
    6.3279   12.1450   26.5025 C   0  0  0  0  0  0  0  0  0  0  0  0
    6.2002   10.7665   26.3159 C   0  0  0  0  0  0  0  0  0  0  0  0
    7.0119   10.0746   25.4113 C   0  0  0  0  0  0  0  0  0  0  0  0
    7.9894   10.7943   24.7204 C   0  0  0  0  0  0  0  0  0  0  0  0
    8.1730   12.1599   24.9150 C   0  0  0  0  0  0  0  0  0  0  0  0
    7.3277   12.8463   25.8101 C   0  0  0  0  0  0  0  0  0  0  0  0
    9.2894   12.5007   24.1040 C   0  0  0  0  0  0  0  0  0  0  0  0
    9.7163   11.4392   23.3909 N   0  0  0  0  0  0  0  0  0  0  0  0
    8.9333   10.4258   23.7967 N   0  0  0  0  0  0  0  0  0  0  0  0
    9.1912    9.1071   23.2680 C   0  0  0  0  0  0  0  0  0  0  0  0
   10.0007   13.7938   24.0312 C   0  0  0  0  0  0  0  0  0  0  0  0
    9.7834   14.6548   24.7862 O   0  0  0  0  0  0  0  0  0  0  0  0
   10.9879   13.7248   22.8571 N   0  0  0  0  0  0  0  0  0  0  0  0
   10.9282   12.9043   22.3164 H   0  0  0  0  0  0  0  0  0  0  0  0
   11.9840   14.6618   22.4192 C   0  0  0  0  0  0  0  0  0  0  0  0
   12.0205   14.8545   20.9082 C   0  0  0  0  0  0  0  0  0  0  0  0
   10.8769   15.5333   20.3467 N   0  0  0  0  0  0  0  0  0  0  0  0
   10.6724   15.8383   19.0384 C   0  0  0  0  0  0  0  0  0  0  0  0
    9.7474   16.7683   18.9525 N   0  0  0  0  0  0  0  0  0  0  0  0
    9.3863   16.9707   20.2473 C   0  0  0  0  0  0  0  0  0  0  0  0
    9.9993   16.1786   21.1258 N   0  0  0  0  0  0  0  0  0  0  0  0
  1  2  1  0  0  0
  2  3  2  0  0  0
  3  4  1  0  0  0
  4  5  2  0  0  0
  5  6  1  0  0  0
  6  7  2  0  0  0
  6  8  1  0  0  0
  8 12  1  0  0  0
 12 13  2  0  0  0
 12 14  1  0  0  0
 14 16  1  0  0  0
 16 17  1  0  0  0
 17 18  1  0  0  0
 18 19  1  0  0  0
 19 20  2  0  0  0
 20 21  1  0  0  0
 21 22  2  0  0  0
  8  9  2  0  0  0
  9 10  1  0  0  0
 10 11  1  0  0  0
  7  2  1  0  0  0
 22 18  1  0  0  0
 10  5  1  0  0  0
 14 15  1  0  0  0
M  END
> <minimizedAffinity>
-7.12505

> <minimizedRMSD>
0.13896

$$$$
P48172


 25 28  0  0  0  0  0  0  0  0999 V2000
   10.3978   14.8305   22.9717 C   0  0  0  0  0  0  0  0  0  0  0  0
   11.9074   14.7441   22.8733 C   0  0  0  0  0  0  0  0  0  0  0  0
   12.2027   15.5577   21.6061 C   0  0  0  0  0  0  0  0  0  0  0  0
   10.9039   15.5782   20.7709 C   0  0  0  0  0  0  0  0  0  0  0  0
    9.9576   14.6097   21.5287 C   0  0  0  0  0  0  0  0  0  0  0  0
   10.1378   16.8402   20.7929 N   0  0  0  0  0  0  0  0  0  0  0  0
    9.6963   17.1079   19.4361 C   0  0  0  0  0  0  0  0  0  0  0  0
    9.9447   15.8842   18.7036 N   0  0  0  0  0  0  0  0  0  0  0  0
   11.1836   15.4366   19.2717 C   0  0  0  0  0  0  0  0  0  0  0  0
   11.4851   14.1608   18.7206 N   0  0  0  0  0  0  0  0  0  0  0  0
   10.7309   17.6018   21.1225 H   0  0  0  0  0  0  0  0  0  0  0  0
   10.0399   16.0644   17.7041 H   0  0  0  0  0  0  0  0  0  0  0  0
   10.6902   13.5359   18.8552 H   0  0  0  0  0  0  0  0  0  0  0  0
   12.3049   13.7737   19.1879 H   0  0  0  0  0  0  0  0  0  0  0  0
    9.7007   14.1454   24.1216 C   0  0  0  0  0  0  0  0  0  0  0  0
    9.4602    9.3991   23.0924 C   0  0  0  0  0  0  0  0  0  0  0  0
    9.0959   10.6659   23.6832 N   0  0  0  0  0  0  0  0  0  0  0  0
    9.8117   11.7708   23.3763 N   0  0  0  0  0  0  0  0  0  0  0  0
    9.2198   12.7451   24.0697 C   0  0  0  0  0  0  0  0  0  0  0  0
    8.1508   12.2523   24.8677 C   0  0  0  0  0  0  0  0  0  0  0  0
    7.2498   12.8123   25.7956 C   0  0  0  0  0  0  0  0  0  0  0  0
    6.3371   11.9802   26.4481 C   0  0  0  0  0  0  0  0  0  0  0  0
    6.3144   10.6163   26.1768 C   0  0  0  0  0  0  0  0  0  0  0  0
    7.1879   10.0524   25.2415 C   0  0  0  0  0  0  0  0  0  0  0  0
    8.1062   10.8918   24.6077 C   0  0  0  0  0  0  0  0  0  0  0  0
 16 17  1  0  0  0
 17 18  1  0  0  0
 18 19  2  0  0  0
 19 15  1  0  0  0
  1 15  1  0  0  0
  1  2  1  0  0  0
  2  3  1  0  0  0
  4  3  1  0  0  0
  4  5  1  0  0  0
  4  6  1  0  0  0
  6  7  1  0  0  0
  7  8  1  0  0  0
  8  9  1  0  0  0
  9 10  1  0  0  0
 19 20  1  0  0  0
 20 21  2  0  0  0
 21 22  1  0  0  0
 22 23  2  0  0  0
 23 24  1  0  0  0
 24 25  2  0  0  0
 25 17  1  0  0  0
  5  1  1  0  0  0
 25 20  1  0  0  0
  9  4  1  0  0  0
  6 11  1  0  0  0
  8 12  1  0  0  0
 10 13  1  0  0  0
 10 14  1  0  0  0
M  END
> <minimizedAffinity>
-9.09228

> <minimizedRMSD>
0.24818

$$$$
P48175


 34 37  0  0  0  0  0  0  0  0999 V2000
    8.7330   17.9817   20.2873 C   0  0  0  0  0  0  0  0  0  0  0  0
    8.9604   16.7331   21.1352 C   0  0  0  0  0  0  0  0  0  0  0  0
    7.6601   16.2439   21.8858 C   0  0  0  0  0  0  0  0  0  0  0  0
    7.8604   15.2132   23.0240 C   0  0  0  0  0  0  0  0  0  0  0  0
    9.2672   14.6678   22.9071 C   0  0  0  0  0  0  0  0  0  0  0  0
    9.4457   14.3131   21.4148 C   0  0  0  0  0  0  0  0  0  0  0  0
    9.9210   15.5910   20.6817 C   0  0  0  0  0  0  0  0  0  0  0  0
   11.3338   15.6745   21.2197 N   0  0  0  0  0  0  0  0  0  0  0  0
   12.1032   14.8318   20.2859 C   0  0  0  0  0  0  0  0  0  0  0  0
   11.2831   14.5971   19.1062 N   0  0  0  0  0  0  0  0  0  0  0  0
   12.1033   14.8253   17.9448 O   0  0  0  0  0  0  0  0  0  0  0  0
   10.1976   15.5632   19.1656 C   0  0  0  0  0  0  0  0  0  0  0  0
   10.6258   16.7761   18.4939 N   0  0  0  0  0  0  0  0  0  0  0  0
   11.3851   15.3076   22.1700 H   0  0  0  0  0  0  0  0  0  0  0  0
   12.8205   14.1727   17.9222 H   0  0  0  0  0  0  0  0  0  0  0  0
   11.5117   17.0897   18.8905 H   0  0  0  0  0  0  0  0  0  0  0  0
    9.9206   17.5020   18.6207 H   0  0  0  0  0  0  0  0  0  0  0  0
    9.7982   13.6962   23.9623 C   0  0  0  0  0  0  0  0  0  0  0  0
    9.8236   14.3857   25.2141 O   0  0  0  0  0  0  0  0  0  0  0  0
   10.3233   15.2116   25.1182 H   0  0  0  0  0  0  0  0  0  0  0  0
    9.0306   12.4072   24.0699 C   0  0  0  0  0  0  0  0  0  0  0  0
    9.3905   11.3376   23.3430 N   0  0  0  0  0  0  0  0  0  0  0  0
    8.6999   10.3251   23.8809 N   0  0  0  0  0  0  0  0  0  0  0  0
    9.0609    8.9834   23.4958 C   0  0  0  0  0  0  0  0  0  0  0  0
    7.7792   10.7249   24.8173 C   0  0  0  0  0  0  0  0  0  0  0  0
    6.8342   10.0303   25.5773 C   0  0  0  0  0  0  0  0  0  0  0  0
    6.0720   10.7486   26.5030 C   0  0  0  0  0  0  0  0  0  0  0  0
    6.2324   12.1222   26.6497 C   0  0  0  0  0  0  0  0  0  0  0  0
    7.1784   12.8083   25.8826 C   0  0  0  0  0  0  0  0  0  0  0  0
    7.9629   12.0972   24.9533 C   0  0  0  0  0  0  0  0  0  0  0  0
   11.2216   13.3458   23.7473 N   0  0  0  0  0  0  0  0  0  0  0  0
   12.0658   14.5252   23.8862 O   0  0  0  0  0  0  0  0  0  0  0  0
   11.3343   12.9613   22.8093 H   0  0  0  0  0  0  0  0  0  0  0  0
   11.9617   14.8943   24.7771 H   0  0  0  0  0  0  0  0  0  0  0  0
  2  1  1  0  0  0
  2  3  1  0  0  0
  3  4  1  0  0  0
  5  4  1  0  0  0
  5 18  1  0  0  0
 18 19  1  0  0  0
 18 31  1  0  0  0
 31 32  1  0  0  0
 18 21  1  0  0  0
 21 22  2  0  0  0
 22 23  1  0  0  0
 23 24  1  0  0  0
 23 25  1  0  0  0
 25 26  2  0  0  0
 26 27  1  0  0  0
 27 28  2  0  0  0
 28 29  1  0  0  0
 29 30  2  0  0  0
  5  6  1  0  0  0
  7  6  1  0  0  0
  7  8  1  0  0  0
  8  9  1  0  0  0
  9 10  1  0  0  0
 10 11  1  0  0  0
 10 12  1  0  0  0
 12 13  1  0  0  0
  7  2  1  0  0  0
 30 21  1  0  0  0
 12  7  1  0  0  0
 30 25  1  0  0  0
 19 20  1  0  0  0
 31 33  1  0  0  0
 32 34  1  0  0  0
  8 14  1  0  0  0
 11 15  1  0  0  0
 13 16  1  0  0  0
 13 17  1  0  0  0
M  END
> <minimizedAffinity>
-8.33354

> <minimizedRMSD>
0.16439

$$$$
P48240


 31 35  0  0  0  0  0  0  0  0999 V2000
   10.9616   14.0122   23.2508 C   0  0  0  0  0  0  0  0  0  0  0  0
   11.9835   13.5117   22.2504 C   0  0  0  0  0  0  0  0  0  0  0  0
   12.2413   14.5672   21.1365 C   0  0  0  0  0  0  0  0  0  0  0  0
   12.2113   14.0116   19.7953 N   0  0  0  0  0  0  0  0  0  0  0  0
   12.0119   14.9880   18.7468 C   0  0  0  0  0  0  0  0  0  0  0  0
   10.8170   15.8932   18.8896 C   0  0  0  0  0  0  0  0  0  0  0  0
   10.2290   16.0398   20.3001 C   0  0  0  0  0  0  0  0  0  0  0  0
    9.6125   17.4446   20.3429 C   0  0  0  0  0  0  0  0  0  0  0  0
    8.4669   17.3375   21.2066 N   0  0  0  0  0  0  0  0  0  0  0  0
    8.0432   15.9786   21.1862 C   0  0  0  0  0  0  0  0  0  0  0  0
    8.9877   15.2582   20.3649 N   0  0  0  0  0  0  0  0  0  0  0  0
   11.3030   15.7210   21.4004 C   0  0  0  0  0  0  0  0  0  0  0  0
   10.9510   15.4801   22.8631 C   0  0  0  0  0  0  0  0  0  0  0  0
   11.4508   13.3335   19.7481 H   0  0  0  0  0  0  0  0  0  0  0  0
    7.7177   17.9414   20.8684 H   0  0  0  0  0  0  0  0  0  0  0  0
    8.6069   15.1365   19.4266 H   0  0  0  0  0  0  0  0  0  0  0  0
    9.5353   13.4259   23.2403 C   0  0  0  0  0  0  0  0  0  0  0  0
    9.2383   13.0960   21.9049 O   0  0  0  0  0  0  0  0  0  0  0  0
    8.6471   14.4525   23.6485 O   0  0  0  0  0  0  0  0  0  0  0  0
    9.7304   12.4301   21.4663 H   0  0  0  0  0  0  0  0  0  0  0  0
    8.7001   14.7997   24.5172 H   0  0  0  0  0  0  0  0  0  0  0  0
    8.7736    8.7502   23.5650 C   0  0  0  0  0  0  0  0  0  0  0  0
    8.6789   10.1258   23.9760 N   0  0  0  0  0  0  0  0  0  0  0  0
    9.5206   11.0053   23.4201 N   0  0  0  0  0  0  0  0  0  0  0  0
    9.1965   12.1745   23.9820 C   0  0  0  0  0  0  0  0  0  0  0  0
    8.1770   12.0236   24.9726 C   0  0  0  0  0  0  0  0  0  0  0  0
    7.4394   12.8723   25.8294 C   0  0  0  0  0  0  0  0  0  0  0  0
    6.4010   12.3487   26.6032 C   0  0  0  0  0  0  0  0  0  0  0  0
    6.0742   11.0041   26.5079 C   0  0  0  0  0  0  0  0  0  0  0  0
    6.7594   10.1628   25.6290 C   0  0  0  0  0  0  0  0  0  0  0  0
    7.8192   10.6847   24.8875 C   0  0  0  0  0  0  0  0  0  0  0  0
 22 23  1  0  0  0
 23 24  1  0  0  0
 24 25  2  0  0  0
 25 17  1  0  0  0
 17 18  1  0  0  0
 17 19  1  0  0  0
  1 17  1  0  0  0
  1  2  1  0  0  0
  3  2  1  0  0  0
  3  4  1  0  0  0
  4  5  1  0  0  0
  5  6  1  0  0  0
  7  6  1  0  0  0
  7  8  1  0  0  0
  8  9  1  0  0  0
  9 10  1  0  0  0
 10 11  1  0  0  0
  7 12  1  0  0  0
 12 13  1  0  0  0
 25 26  1  0  0  0
 26 27  2  0  0  0
 27 28  1  0  0  0
 28 29  2  0  0  0
 29 30  1  0  0  0
 30 31  2  0  0  0
 31 23  1  0  0  0
 13  1  1  0  0  0
 31 26  1  0  0  0
 12  3  1  0  0  0
 11  7  1  0  0  0
 18 20  1  0  0  0
 19 21  1  0  0  0
  4 14  1  0  0  0
  9 15  1  0  0  0
 11 16  1  0  0  0
M  END
> <minimizedAffinity>
-6.13819

> <minimizedRMSD>
0.35260

$$$$
P48278


 19 20  0  0  0  0  0  0  0  0999 V2000
    9.0223   12.3445   23.7908 C   0  0  0  0  0  0  0  0  0  0  0  0
    9.3813   11.1844   23.2125 N   0  0  0  0  0  0  0  0  0  0  0  0
    8.6650   10.2528   23.8458 N   0  0  0  0  0  0  0  0  0  0  0  0
    8.8855    8.8739   23.4855 C   0  0  0  0  0  0  0  0  0  0  0  0
    7.8096   10.7669   24.7874 C   0  0  0  0  0  0  0  0  0  0  0  0
    6.8336   10.1822   25.5977 C   0  0  0  0  0  0  0  0  0  0  0  0
    6.1453   10.9959   26.5008 C   0  0  0  0  0  0  0  0  0  0  0  0
    6.4031   12.3600   26.5702 C   0  0  0  0  0  0  0  0  0  0  0  0
    7.3512   12.9451   25.7249 C   0  0  0  0  0  0  0  0  0  0  0  0
    8.0624   12.1361   24.8163 C   0  0  0  0  0  0  0  0  0  0  0  0
    9.5806   13.6505   23.2523 C   0  0  0  0  0  0  0  0  0  0  0  0
    8.8650   14.7949   23.6651 O   0  0  0  0  0  0  0  0  0  0  0  0
    9.4268   13.6212   21.8472 O   0  0  0  0  0  0  0  0  0  0  0  0
    8.8260   15.0207   24.5736 H   0  0  0  0  0  0  0  0  0  0  0  0
    9.8239   12.9359   21.3466 H   0  0  0  0  0  0  0  0  0  0  0  0
   10.9861   13.7721   23.6268 N   0  0  0  0  0  0  0  0  0  0  0  0
   11.1304   14.5840   24.8291 C   0  0  0  0  0  0  0  0  0  0  0  0
   12.5680   15.4962   22.7273 C   0  0  0  0  0  0  0  0  0  0  0  0
   11.8394   14.1884   22.5097 C   0  0  0  0  0  0  0  0  0  0  0  0
 18 19  1  0  0  0
 19 16  1  0  0  0
 16 17  1  0  0  0
 16 11  1  0  0  0
 11 12  1  0  0  0
 11 13  1  0  0  0
 11  1  1  0  0  0
  1  2  2  0  0  0
  2  3  1  0  0  0
  3  4  1  0  0  0
  3  5  1  0  0  0
  5  6  2  0  0  0
  6  7  1  0  0  0
  7  8  2  0  0  0
  8  9  1  0  0  0
  9 10  2  0  0  0
 10  1  1  0  0  0
 10  5  1  0  0  0
 12 14  1  0  0  0
 13 15  1  0  0  0
M  END
> <minimizedAffinity>
-6.45214

> <minimizedRMSD>
0.39812

$$$$
P48293


 23 25  0  0  0  0  0  0  0  0999 V2000
    7.5889   13.2333   25.6759 C   0  0  0  0  0  0  0  0  0  0  0  0
    6.5719   12.6348   26.4286 C   0  0  0  0  0  0  0  0  0  0  0  0
    6.3217   11.2730   26.3118 C   0  0  0  0  0  0  0  0  0  0  0  0
    7.0658   10.4829   25.4333 C   0  0  0  0  0  0  0  0  0  0  0  0
    8.0960   11.0881   24.7041 C   0  0  0  0  0  0  0  0  0  0  0  0
    8.3997   12.4459   24.8281 C   0  0  0  0  0  0  0  0  0  0  0  0
    9.5645   12.6294   24.0262 C   0  0  0  0  0  0  0  0  0  0  0  0
    9.8771   11.4983   23.3589 N   0  0  0  0  0  0  0  0  0  0  0  0
    8.9981   10.5863   23.8018 N   0  0  0  0  0  0  0  0  0  0  0  0
    9.1308    9.2219   23.3433 C   0  0  0  0  0  0  0  0  0  0  0  0
   10.4495   13.8145   23.9107 C   0  0  0  0  0  0  0  0  0  0  0  0
   10.7619   14.4413   24.8412 O   0  0  0  0  0  0  0  0  0  0  0  0
   10.8880   13.9248   22.4431 N   0  0  0  0  0  0  0  0  0  0  0  0
   10.5340   13.2206   21.8532 H   0  0  0  0  0  0  0  0  0  0  0  0
   11.7304   14.8881   21.7908 C   0  0  0  0  0  0  0  0  0  0  0  0
   11.5127   14.9865   20.2864 C   0  0  0  0  0  0  0  0  0  0  0  0
   10.5030   15.9295   19.8708 N   0  0  0  0  0  0  0  0  0  0  0  0
   10.3130   16.4188   18.6168 C   0  0  0  0  0  0  0  0  0  0  0  0
    9.5851   17.5111   18.6864 N   0  0  0  0  0  0  0  0  0  0  0  0
    9.3247   17.6281   20.0142 C   0  0  0  0  0  0  0  0  0  0  0  0
    9.8068   16.6411   20.7669 N   0  0  0  0  0  0  0  0  0  0  0  0
    7.1269   15.3401   24.8812 C   0  0  0  0  0  0  0  0  0  0  0  0
    7.8045   14.5796   25.8855 O   0  0  0  0  0  0  0  0  0  0  0  0
 22 23  1  0  0  0
 23  1  1  0  0  0
  1  2  2  0  0  0
  2  3  1  0  0  0
  3  4  2  0  0  0
  4  5  1  0  0  0
  5  6  2  0  0  0
  6  7  1  0  0  0
  7 11  1  0  0  0
 11 12  2  0  0  0
 11 13  1  0  0  0
 13 15  1  0  0  0
 15 16  1  0  0  0
 16 17  1  0  0  0
 17 18  1  0  0  0
 18 19  2  0  0  0
 19 20  1  0  0  0
 20 21  2  0  0  0
  7  8  2  0  0  0
  8  9  1  0  0  0
  9 10  1  0  0  0
  6  1  1  0  0  0
 21 17  1  0  0  0
  9  5  1  0  0  0
 13 14  1  0  0  0
M  END
> <minimizedAffinity>
-6.91897

> <minimizedRMSD>
0.67302

$$$$
P48299


 28 31  0  0  0  0  0  0  0  0999 V2000
    8.8368    9.0237   23.5039 C   0  0  0  0  0  0  0  0  0  0  0  0
    8.6260   10.3729   23.9763 N   0  0  0  0  0  0  0  0  0  0  0  0
    9.4797   11.3244   23.5419 N   0  0  0  0  0  0  0  0  0  0  0  0
    9.1207   12.4290   24.2199 C   0  0  0  0  0  0  0  0  0  0  0  0
    7.9792   12.1842   25.0269 C   0  0  0  0  0  0  0  0  0  0  0  0
    7.1904   12.9685   25.8804 C   0  0  0  0  0  0  0  0  0  0  0  0
    6.2427   12.3503   26.6970 C   0  0  0  0  0  0  0  0  0  0  0  0
    6.0591   10.9605   26.7075 C   0  0  0  0  0  0  0  0  0  0  0  0
    6.7475   10.1931   25.7289 C   0  0  0  0  0  0  0  0  0  0  0  0
    7.7245   10.8206   24.9201 C   0  0  0  0  0  0  0  0  0  0  0  0
    5.2608   10.3447   27.8090 C   0  0  0  0  0  0  0  0  0  0  0  0
    4.0546    9.6718   27.5816 C   0  0  0  0  0  0  0  0  0  0  0  0
    3.3411    9.0422   28.6078 C   0  0  0  0  0  0  0  0  0  0  0  0
    3.8335    9.0785   29.9006 C   0  0  0  0  0  0  0  0  0  0  0  0
    3.1636    8.4639   30.8830 F   0  0  0  0  0  0  0  0  0  0  0  0
    5.0208    9.7338   30.1807 C   0  0  0  0  0  0  0  0  0  0  0  0
    5.7265   10.3558   29.1435 C   0  0  0  0  0  0  0  0  0  0  0  0
    9.9259   13.6696   24.1906 C   0  0  0  0  0  0  0  0  0  0  0  0
    9.7947   14.4796   25.0179 O   0  0  0  0  0  0  0  0  0  0  0  0
   10.8948   13.6087   23.0034 N   0  0  0  0  0  0  0  0  0  0  0  0
   10.7552   12.8462   22.3964 H   0  0  0  0  0  0  0  0  0  0  0  0
   11.9718   14.4818   22.6329 C   0  0  0  0  0  0  0  0  0  0  0  0
   12.0978   14.7528   21.1407 C   0  0  0  0  0  0  0  0  0  0  0  0
   10.9506   15.3711   20.5236 N   0  0  0  0  0  0  0  0  0  0  0  0
   10.7545   15.5741   19.1942 C   0  0  0  0  0  0  0  0  0  0  0  0
    9.8067   16.4699   19.0281 N   0  0  0  0  0  0  0  0  0  0  0  0
    9.4166   16.7465   20.3005 C   0  0  0  0  0  0  0  0  0  0  0  0
   10.0565   16.0590   21.2449 N   0  0  0  0  0  0  0  0  0  0  0  0
  1  2  1  0  0  0
  2  3  1  0  0  0
  3  4  2  0  0  0
  4 18  1  0  0  0
 18 19  2  0  0  0
 18 20  1  0  0  0
 20 22  1  0  0  0
 22 23  1  0  0  0
 23 24  1  0  0  0
 24 25  1  0  0  0
 25 26  2  0  0  0
 26 27  1  0  0  0
 27 28  2  0  0  0
  4  5  1  0  0  0
  5  6  2  0  0  0
  6  7  1  0  0  0
  7  8  2  0  0  0
  8 11  1  0  0  0
 11 12  2  0  0  0
 12 13  1  0  0  0
 13 14  2  0  0  0
 14 15  1  0  0  0
 14 16  1  0  0  0
 16 17  2  0  0  0
  8  9  1  0  0  0
  9 10  2  0  0  0
 10  2  1  0  0  0
 28 24  1  0  0  0
 10  5  1  0  0  0
 17 11  1  0  0  0
 20 21  1  0  0  0
M  END
> <minimizedAffinity>
-7.83644

> <minimizedRMSD>
0.50023

$$$$
P50205


 22 24  0  0  0  0  0  0  0  0999 V2000
    9.9609   14.6730   21.3822 C   0  0  0  0  0  0  0  0  0  0  0  0
   11.1624   14.8589   22.3197 C   0  0  0  0  0  0  0  0  0  0  0  0
   10.7816   14.7285   23.7912 C   0  0  0  0  0  0  0  0  0  0  0  0
    9.6130   13.7605   24.0217 C   0  0  0  0  0  0  0  0  0  0  0  0
   10.0896   12.3081   23.7585 C   0  0  0  0  0  0  0  0  0  0  0  0
    9.1271   11.1430   24.0561 C   0  0  0  0  0  0  0  0  0  0  0  0
    7.9140   11.5701   24.7809 C   0  0  0  0  0  0  0  0  0  0  0  0
    7.3019   10.8898   25.7965 N   0  0  0  0  0  0  0  0  0  0  0  0
    6.2449   11.6446   26.2184 C   0  0  0  0  0  0  0  0  0  0  0  0
    6.0993   12.7212   25.4843 N   0  0  0  0  0  0  0  0  0  0  0  0
    7.0782   12.6414   24.5222 C   0  0  0  0  0  0  0  0  0  0  0  0
    7.2064   13.5126   23.3551 C   0  0  0  0  0  0  0  0  0  0  0  0
    6.3267   13.5621   22.5003 O   0  0  0  0  0  0  0  0  0  0  0  0
    8.4512   14.1193   23.1937 N   0  0  0  0  0  0  0  0  0  0  0  0
    8.6547   15.0290   22.0558 C   0  0  0  0  0  0  0  0  0  0  0  0
    7.5736   10.0152   26.1578 H   0  0  0  0  0  0  0  0  0  0  0  0
    9.6929   16.4468   19.8378 O   0  0  0  0  0  0  0  0  0  0  0  0
   10.1820   15.4243   20.0895 C   0  0  0  0  0  0  0  0  0  0  0  0
   11.2189   14.6003   19.3152 N   0  0  0  0  0  0  0  0  0  0  0  0
   11.7774   14.8054   18.0783 O   0  0  0  0  0  0  0  0  0  0  0  0
   11.5352   13.7929   19.7814 H   0  0  0  0  0  0  0  0  0  0  0  0
   11.4139   15.6166   17.6899 H   0  0  0  0  0  0  0  0  0  0  0  0
 17 18  2  0  0  0
 18 19  1  0  0  0
 19 20  1  0  0  0
  1 18  1  0  0  0
  1  2  1  0  0  0
  2  3  1  0  0  0
  4  3  1  0  0  0
  4  5  1  0  0  0
  5  6  1  0  0  0
  6  7  1  0  0  0
  7  8  1  0  0  0
  8  9  1  0  0  0
  9 10  2  0  0  0
 10 11  1  0  0  0
 11 12  1  0  0  0
 12 13  2  0  0  0
 12 14  1  0  0  0
 14 15  1  0  0  0
 15  1  1  0  0  0
 14  4  1  0  0  0
 11  7  2  0  0  0
 19 21  1  0  0  0
 20 22  1  0  0  0
  8 16  1  0  0  0
M  END
> <minimizedAffinity>
-8.78347

> <minimizedRMSD>
0.19346

$$$$
P51261


 21 23  0  0  0  0  0  0  0  0999 V2000
   10.5964   13.2427   24.0601 C   0  0  0  0  0  0  0  0  0  0  0  0
    9.4687   12.3055   23.6360 C   0  0  0  0  0  0  0  0  0  0  0  0
   10.0365   10.9654   23.1508 C   0  0  0  0  0  0  0  0  0  0  0  0
    9.0374    9.8786   23.4835 C   0  0  0  0  0  0  0  0  0  0  0  0
    9.6989    8.5269   23.4901 C   0  0  0  0  0  0  0  0  0  0  0  0
    8.3326   10.4780   24.6617 C   0  0  0  0  0  0  0  0  0  0  0  0
    7.3770    9.8974   25.4684 C   0  0  0  0  0  0  0  0  0  0  0  0
    6.6539   10.6808   26.3663 C   0  0  0  0  0  0  0  0  0  0  0  0
    6.8843   12.0563   26.4403 C   0  0  0  0  0  0  0  0  0  0  0  0
    7.8315   12.6559   25.6107 C   0  0  0  0  0  0  0  0  0  0  0  0
    8.5473   11.8575   24.7297 C   0  0  0  0  0  0  0  0  0  0  0  0
   11.5495   13.3046   22.9812 N   0  0  0  0  0  0  0  0  0  0  0  0
   12.1907   12.5184   23.0867 H   0  0  0  0  0  0  0  0  0  0  0  0
   12.3397   14.5088   22.8977 C   0  0  0  0  0  0  0  0  0  0  0  0
   12.5030   14.8832   21.4294 C   0  0  0  0  0  0  0  0  0  0  0  0
   11.6484   15.0123   18.2649 C   0  0  0  0  0  0  0  0  0  0  0  0
   10.9098   15.3581   19.4675 C   0  0  0  0  0  0  0  0  0  0  0  0
    9.6758   15.9162   19.3290 O   0  0  0  0  0  0  0  0  0  0  0  0
    9.3110   16.1915   20.6088 C   0  0  0  0  0  0  0  0  0  0  0  0
   10.1760   15.8151   21.5172 N   0  0  0  0  0  0  0  0  0  0  0  0
   11.2286   15.3175   20.7990 C   0  0  0  0  0  0  0  0  0  0  0  0
 16 17  1  0  0  0
 17 18  1  0  0  0
 18 19  1  0  0  0
 19 20  2  0  0  0
 20 21  1  0  0  0
 21 15  1  0  0  0
 15 14  1  0  0  0
 14 12  1  0  0  0
 12  1  1  0  0  0
  2  1  1  0  0  0
  2  3  1  0  0  0
  3  4  1  0  0  0
  4  5  1  0  0  0
  4  6  1  0  0  0
  6  7  2  0  0  0
  7  8  1  0  0  0
  8  9  2  0  0  0
  9 10  1  0  0  0
 10 11  2  0  0  0
 21 17  2  0  0  0
 11  2  1  0  0  0
 11  6  1  0  0  0
 12 13  1  0  0  0
M  END
> <minimizedAffinity>
-6.89709

> <minimizedRMSD>
0.27955

$$$$
P51464


 31 33  0  0  0  0  0  0  0  0999 V2000
    8.0015   14.8769   23.0433 N   0  0  0  0  0  0  0  0  0  0  0  0
    8.7914   14.0673   23.4375 C   0  0  0  0  0  0  0  0  0  0  0  0
    8.5284   12.7466   24.0169 C   0  0  0  0  0  0  0  0  0  0  0  0
    9.2895   11.7384   23.5429 N   0  0  0  0  0  0  0  0  0  0  0  0
    8.8521   10.6528   24.1531 N   0  0  0  0  0  0  0  0  0  0  0  0
    9.3868    9.3995   23.6980 C   0  0  0  0  0  0  0  0  0  0  0  0
    7.8943   10.9162   25.0898 C   0  0  0  0  0  0  0  0  0  0  0  0
    7.0801   10.0987   25.8656 C   0  0  0  0  0  0  0  0  0  0  0  0
    6.2409   10.6862   26.8122 C   0  0  0  0  0  0  0  0  0  0  0  0
    6.2885   12.0518   27.0340 C   0  0  0  0  0  0  0  0  0  0  0  0
    7.0995   12.8596   26.2338 C   0  0  0  0  0  0  0  0  0  0  0  0
    7.8059   12.3030   25.1537 C   0  0  0  0  0  0  0  0  0  0  0  0
    6.6147   14.8800   22.6161 C   0  0  0  0  0  0  0  0  0  0  0  0
    6.3024   13.6733   21.8508 N   0  0  0  0  0  0  0  0  0  0  0  0
    6.4296   12.8527   22.4431 H   0  0  0  0  0  0  0  0  0  0  0  0
    6.9250   13.6110   21.0453 H   0  0  0  0  0  0  0  0  0  0  0  0
    5.6555   15.1859   23.7842 C   0  0  0  0  0  0  0  0  0  0  0  0
    4.1113   16.6046   24.8148 C   0  0  0  0  0  0  0  0  0  0  0  0
    4.9838   16.4387   23.7031 O   0  0  0  0  0  0  0  0  0  0  0  0
   10.3405   14.1504   23.5773 N   0  0  0  0  0  0  0  0  0  0  0  0
   10.7259   13.5439   24.2502 H   0  0  0  0  0  0  0  0  0  0  0  0
   11.2829   14.9526   22.8975 C   0  0  0  0  0  0  0  0  0  0  0  0
   11.6213   14.7997   21.4321 C   0  0  0  0  0  0  0  0  0  0  0  0
   12.8650   15.3998   21.3774 F   0  0  0  0  0  0  0  0  0  0  0  0
   11.9124   13.5197   21.0942 F   0  0  0  0  0  0  0  0  0  0  0  0
   10.6468   15.5006   20.5123 C   0  0  0  0  0  0  0  0  0  0  0  0
   10.7614   15.3306   19.1456 C   0  0  0  0  0  0  0  0  0  0  0  0
   10.1749   16.2734   18.2990 C   0  0  0  0  0  0  0  0  0  0  0  0
    9.4619   17.3411   18.8193 C   0  0  0  0  0  0  0  0  0  0  0  0
    9.3219   17.3930   20.1868 C   0  0  0  0  0  0  0  0  0  0  0  0
    9.9042   16.5111   21.0244 N   0  0  0  0  0  0  0  0  0  0  0  0
 18 19  1  0  0  0
 19 17  1  0  0  0
 17 13  1  0  0  0
 13 14  1  0  0  0
 13  1  1  0  0  0
  1  2  2  0  0  0
  2 20  1  0  0  0
 20 22  1  0  0  0
 22 23  1  0  0  0
 23 24  1  0  0  0
 23 25  1  0  0  0
 23 26  1  0  0  0
 26 27  2  0  0  0
 27 28  1  0  0  0
 28 29  2  0  0  0
 29 30  1  0  0  0
 30 31  2  0  0  0
  2  3  1  0  0  0
  3  4  2  0  0  0
  4  5  1  0  0  0
  5  6  1  0  0  0
  5  7  1  0  0  0
  7  8  2  0  0  0
  8  9  1  0  0  0
  9 10  2  0  0  0
 10 11  1  0  0  0
 11 12  2  0  0  0
 31 26  1  0  0  0
 12  3  1  0  0  0
 12  7  1  0  0  0
 14 15  1  0  0  0
 14 16  1  0  0  0
 20 21  1  0  0  0
M  END
> <minimizedAffinity>
-6.76618

> <minimizedRMSD>
0.73168

$$$$
P51627


 33 36  0  0  0  0  0  0  0  0999 V2000
    9.7919   13.6538   24.1733 C   0  0  0  0  0  0  0  0  0  0  0  0
    8.9608   14.7734   24.4654 O   0  0  0  0  0  0  0  0  0  0  0  0
   10.9366   13.8092   25.0868 N   0  0  0  0  0  0  0  0  0  0  0  0
   12.1948   13.5614   24.4008 C   0  0  0  0  0  0  0  0  0  0  0  0
   12.2681   14.4742   23.1946 C   0  0  0  0  0  0  0  0  0  0  0  0
   11.3194   14.1196   22.1956 N   0  0  0  0  0  0  0  0  0  0  0  0
   10.0307   13.8052   22.6256 C   0  0  0  0  0  0  0  0  0  0  0  0
    9.0377   13.7773   21.8864 O   0  0  0  0  0  0  0  0  0  0  0  0
    8.7472   14.7795   25.4116 H   0  0  0  0  0  0  0  0  0  0  0  0
   10.8408   13.1460   25.8558 H   0  0  0  0  0  0  0  0  0  0  0  0
    7.1357   14.1009   26.4718 C   0  0  0  0  0  0  0  0  0  0  0  0
    7.1510   12.6275   26.1583 C   0  0  0  0  0  0  0  0  0  0  0  0
    6.1879   11.8334   26.8143 C   0  0  0  0  0  0  0  0  0  0  0  0
    6.0936   10.4714   26.5857 C   0  0  0  0  0  0  0  0  0  0  0  0
    6.9324    9.8538   25.6681 C   0  0  0  0  0  0  0  0  0  0  0  0
    7.9065   10.6101   25.0309 C   0  0  0  0  0  0  0  0  0  0  0  0
    8.0404   11.9812   25.2497 C   0  0  0  0  0  0  0  0  0  0  0  0
    9.1398   12.3335   24.4117 C   0  0  0  0  0  0  0  0  0  0  0  0
    9.6545   11.2696   23.7770 N   0  0  0  0  0  0  0  0  0  0  0  0
    8.8691   10.2581   24.1215 N   0  0  0  0  0  0  0  0  0  0  0  0
    9.1189    8.9760   23.5120 C   0  0  0  0  0  0  0  0  0  0  0  0
   11.5692   14.5940   20.8447 C   0  0  0  0  0  0  0  0  0  0  0  0
   10.6475   15.6969   20.5474 C   0  0  0  0  0  0  0  0  0  0  0  0
    9.7366   15.8546   19.5334 C   0  0  0  0  0  0  0  0  0  0  0  0
    9.0630   17.0579   19.7904 C   0  0  0  0  0  0  0  0  0  0  0  0
    9.5140   17.5763   20.9684 C   0  0  0  0  0  0  0  0  0  0  0  0
   10.5509   16.7926   21.3510 N   0  0  0  0  0  0  0  0  0  0  0  0
   11.1519   16.9882   22.1058 H   0  0  0  0  0  0  0  0  0  0  0  0
    8.1538   17.5898   18.9736 O   0  0  0  0  0  0  0  0  0  0  0  0
    7.9637   18.9758   19.0857 C   0  0  0  0  0  0  0  0  0  0  0  0
    7.3910   19.4764   17.8675 N   0  0  0  0  0  0  0  0  0  0  0  0
    8.0204   19.2788   17.0895 H   0  0  0  0  0  0  0  0  0  0  0  0
    7.2529   20.4840   17.9456 H   0  0  0  0  0  0  0  0  0  0  0  0
 11 12  1  0  0  0
 12 13  2  0  0  0
 13 14  1  0  0  0
 14 15  2  0  0  0
 15 16  1  0  0  0
 16 17  2  0  0  0
 17 18  1  0  0  0
 18  1  1  0  0  0
  1  2  1  0  0  0
  1  3  1  0  0  0
  3  4  1  0  0  0
  4  5  1  0  0  0
  5  6  1  0  0  0
  6 22  1  0  0  0
 22 23  1  0  0  0
 23 24  2  0  0  0
 24 25  1  0  0  0
 25 29  1  0  0  0
 29 30  1  0  0  0
 30 31  1  0  0  0
 25 26  2  0  0  0
 26 27  1  0  0  0
  6  7  1  0  0  0
  7  8  2  0  0  0
 18 19  2  0  0  0
 19 20  1  0  0  0
 20 21  1  0  0  0
 17 12  1  0  0  0
  7  1  1  0  0  0
 20 16  1  0  0  0
 27 23  1  0  0  0
  2  9  1  0  0  0
  3 10  1  0  0  0
 31 32  1  0  0  0
 31 33  1  0  0  0
 27 28  1  0  0  0
M  END
> <minimizedAffinity>
-7.63224

> <minimizedRMSD>
0.26522

$$$$
P51643


 26 29  0  0  0  0  0  0  0  0999 V2000
    9.7828   13.5344   23.6696 C   0  0  0  0  0  0  0  0  0  0  0  0
   10.2625   14.1487   24.8620 O   0  0  0  0  0  0  0  0  0  0  0  0
    8.6427   14.3684   23.0534 C   0  0  0  0  0  0  0  0  0  0  0  0
    7.4132   14.7345   23.9279 C   0  0  0  0  0  0  0  0  0  0  0  0
    7.3480   14.2957   25.4016 C   0  0  0  0  0  0  0  0  0  0  0  0
    7.2954   12.8022   25.5836 C   0  0  0  0  0  0  0  0  0  0  0  0
    6.3702   12.2003   26.4503 C   0  0  0  0  0  0  0  0  0  0  0  0
    6.2445   10.8142   26.5074 C   0  0  0  0  0  0  0  0  0  0  0  0
    7.0271    9.9880   25.6967 C   0  0  0  0  0  0  0  0  0  0  0  0
    8.0079   10.5762   24.9108 C   0  0  0  0  0  0  0  0  0  0  0  0
    8.1605   11.9491   24.8766 C   0  0  0  0  0  0  0  0  0  0  0  0
    9.2405   12.1717   24.0017 C   0  0  0  0  0  0  0  0  0  0  0  0
    9.7213   11.0304   23.5014 N   0  0  0  0  0  0  0  0  0  0  0  0
    8.9351   10.0836   24.0271 N   0  0  0  0  0  0  0  0  0  0  0  0
    9.0968    8.7336   23.5541 C   0  0  0  0  0  0  0  0  0  0  0  0
   10.6137   15.0286   24.6537 H   0  0  0  0  0  0  0  0  0  0  0  0
   10.9413   13.3677   22.8078 N   0  0  0  0  0  0  0  0  0  0  0  0
   11.3234   12.4363   22.9717 H   0  0  0  0  0  0  0  0  0  0  0  0
   12.0063   14.3270   23.0030 C   0  0  0  0  0  0  0  0  0  0  0  0
   12.1801   15.4365   21.9885 C   0  0  0  0  0  0  0  0  0  0  0  0
    9.3113   17.2028   20.7483 C   0  0  0  0  0  0  0  0  0  0  0  0
   10.2432   16.1660   20.3246 C   0  0  0  0  0  0  0  0  0  0  0  0
   10.0516   15.8677   19.0175 O   0  0  0  0  0  0  0  0  0  0  0  0
   10.9954   14.9586   18.7557 C   0  0  0  0  0  0  0  0  0  0  0  0
   11.7720   14.6355   19.7505 N   0  0  0  0  0  0  0  0  0  0  0  0
   11.3227   15.4188   20.7783 C   0  0  0  0  0  0  0  0  0  0  0  0
 21 22  1  0  0  0
 22 23  1  0  0  0
 23 24  1  0  0  0
 24 25  2  0  0  0
 25 26  1  0  0  0
 26 20  1  0  0  0
 20 19  1  0  0  0
 19 17  1  0  0  0
 17  1  1  0  0  0
  1  2  1  0  0  0
  1  3  1  0  0  0
  3  4  1  0  0  0
  4  5  1  0  0  0
  5  6  1  0  0  0
  6  7  2  0  0  0
  7  8  1  0  0  0
  8  9  2  0  0  0
  9 10  1  0  0  0
 10 11  2  0  0  0
 11 12  1  0  0  0
 12 13  2  0  0  0
 13 14  1  0  0  0
 14 15  1  0  0  0
 26 22  2  0  0  0
 12  1  1  0  0  0
 11  6  1  0  0  0
 14 10  1  0  0  0
 17 18  1  0  0  0
  2 16  1  0  0  0
M  END
> <minimizedAffinity>
-8.37662

> <minimizedRMSD>
0.68984

$$$$
P51713


 27 29  0  0  0  0  0  0  0  0999 V2000
    9.8225   13.6631   23.7592 C   0  0  0  0  0  0  0  0  0  0  0  0
    8.7720   14.4840   23.3539 O   0  0  0  0  0  0  0  0  0  0  0  0
   10.3764   14.2251   24.9254 O   0  0  0  0  0  0  0  0  0  0  0  0
    8.2780   14.2687   22.5874 H   0  0  0  0  0  0  0  0  0  0  0  0
   11.1012   13.8078   25.3479 H   0  0  0  0  0  0  0  0  0  0  0  0
    9.2144    8.7460   23.5294 C   0  0  0  0  0  0  0  0  0  0  0  0
    8.9983   10.1564   23.9314 C   0  0  0  0  0  0  0  0  0  0  0  0
    9.6938   11.1483   23.4417 N   0  0  0  0  0  0  0  0  0  0  0  0
    9.2089   12.3052   24.0727 C   0  0  0  0  0  0  0  0  0  0  0  0
    8.1982   12.0469   24.9168 C   0  0  0  0  0  0  0  0  0  0  0  0
    7.3789   12.9231   25.7677 C   0  0  0  0  0  0  0  0  0  0  0  0
    7.5553   14.1294   25.8749 O   0  0  0  0  0  0  0  0  0  0  0  0
    6.3768   12.2206   26.6046 C   0  0  0  0  0  0  0  0  0  0  0  0
    6.2794   10.8822   26.5707 C   0  0  0  0  0  0  0  0  0  0  0  0
    5.2652   10.1119   27.7347 Cl  0  0  0  0  0  0  0  0  0  0  0  0
    7.0691   10.0500   25.6739 C   0  0  0  0  0  0  0  0  0  0  0  0
    7.9962   10.6266   24.9066 C   0  0  0  0  0  0  0  0  0  0  0  0
   10.8348   13.5143   22.7508 N   0  0  0  0  0  0  0  0  0  0  0  0
   10.4061   13.7479   21.8552 H   0  0  0  0  0  0  0  0  0  0  0  0
   12.0453   14.3102   22.8697 C   0  0  0  0  0  0  0  0  0  0  0  0
   12.2288   15.4020   21.8046 C   0  0  0  0  0  0  0  0  0  0  0  0
   11.0459   15.7163   20.9470 C   0  0  0  0  0  0  0  0  0  0  0  0
    9.9550   16.3769   21.3807 N   0  0  0  0  0  0  0  0  0  0  0  0
    9.1501   16.4965   20.3515 C   0  0  0  0  0  0  0  0  0  0  0  0
    9.6288   15.9652   19.2180 O   0  0  0  0  0  0  0  0  0  0  0  0
   10.8127   15.4640   19.6264 C   0  0  0  0  0  0  0  0  0  0  0  0
   11.4466   14.6018   18.6964 C   0  0  0  0  0  0  0  0  0  0  0  0
  6  7  1  0  0  0
  7  8  2  0  0  0
  8  9  1  0  0  0
  9  1  1  0  0  0
  1  2  1  0  0  0
  1  3  1  0  0  0
  1 18  1  0  0  0
 18 20  1  0  0  0
 20 21  1  0  0  0
 21 22  1  0  0  0
 22 23  1  0  0  0
 23 24  2  0  0  0
 24 25  1  0  0  0
 25 26  1  0  0  0
 26 27  1  0  0  0
  9 10  2  0  0  0
 10 11  1  0  0  0
 11 12  2  0  0  0
 11 13  1  0  0  0
 13 14  2  0  0  0
 14 15  1  0  0  0
 14 16  1  0  0  0
 16 17  2  0  0  0
 17  7  1  0  0  0
 26 22  2  0  0  0
 17 10  1  0  0  0
  2  4  1  0  0  0
  3  5  1  0  0  0
 18 19  1  0  0  0
M  END
> <minimizedAffinity>
-8.05379

> <minimizedRMSD>
0.82238

$$$$
P51773


 21 22  0  0  0  0  0  0  0  0999 V2000
    9.7873   13.6473   23.5548 C   0  0  0  0  0  0  0  0  0  0  0  0
   10.3312   14.3337   24.6526 O   0  0  0  0  0  0  0  0  0  0  0  0
    8.6284   14.3599   23.1690 O   0  0  0  0  0  0  0  0  0  0  0  0
   11.1131   14.0185   25.0617 H   0  0  0  0  0  0  0  0  0  0  0  0
    8.1138   14.0611   22.4452 H   0  0  0  0  0  0  0  0  0  0  0  0
    9.4327   12.2410   23.9707 C   0  0  0  0  0  0  0  0  0  0  0  0
    9.9283   11.1209   23.4248 N   0  0  0  0  0  0  0  0  0  0  0  0
    9.1496   10.1402   23.9091 N   0  0  0  0  0  0  0  0  0  0  0  0
    9.3120    8.8012   23.3926 C   0  0  0  0  0  0  0  0  0  0  0  0
    8.2094   10.5887   24.8023 C   0  0  0  0  0  0  0  0  0  0  0  0
    7.1575    9.9655   25.4630 C   0  0  0  0  0  0  0  0  0  0  0  0
    6.3676   10.7235   26.3339 C   0  0  0  0  0  0  0  0  0  0  0  0
    6.6126   12.0756   26.5279 C   0  0  0  0  0  0  0  0  0  0  0  0
    7.6363   12.7051   25.8216 C   0  0  0  0  0  0  0  0  0  0  0  0
    8.4336   11.9475   24.9385 C   0  0  0  0  0  0  0  0  0  0  0  0
   10.6749   13.7816   22.4448 N   0  0  0  0  0  0  0  0  0  0  0  0
   10.9208   12.8402   22.1387 H   0  0  0  0  0  0  0  0  0  0  0  0
   11.8977   14.4970   22.6394 C   0  0  0  0  0  0  0  0  0  0  0  0
   10.9740   15.3422   20.5895 C   0  0  0  0  0  0  0  0  0  0  0  0
   11.9137   15.5781   21.6777 N   0  0  0  0  0  0  0  0  0  0  0  0
   11.6611   16.4457   22.1509 H   0  0  0  0  0  0  0  0  0  0  0  0
 19 20  1  0  0  0
 20 18  1  0  0  0
 18 16  1  0  0  0
 16  1  1  0  0  0
  1  2  1  0  0  0
  1  3  1  0  0  0
  1  6  1  0  0  0
  6  7  2  0  0  0
  7  8  1  0  0  0
  8  9  1  0  0  0
  8 10  1  0  0  0
 10 11  2  0  0  0
 11 12  1  0  0  0
 12 13  2  0  0  0
 13 14  1  0  0  0
 14 15  2  0  0  0
 15  6  1  0  0  0
 15 10  1  0  0  0
 20 21  1  0  0  0
 16 17  1  0  0  0
  2  4  1  0  0  0
  3  5  1  0  0  0
M  END
> <minimizedAffinity>
-6.36540

> <minimizedRMSD>
0.77677

$$$$
P51785


 27 29  0  0  0  0  0  0  0  0999 V2000
    9.4404   13.4738   23.8932 C   0  0  0  0  0  0  0  0  0  0  0  0
    8.5889   14.5441   23.6148 O   0  0  0  0  0  0  0  0  0  0  0  0
   10.0017   13.5948   25.1697 O   0  0  0  0  0  0  0  0  0  0  0  0
    8.1455   14.5879   22.7906 H   0  0  0  0  0  0  0  0  0  0  0  0
   10.5946   12.9412   25.4847 H   0  0  0  0  0  0  0  0  0  0  0  0
    8.7239   12.1794   23.9586 C   0  0  0  0  0  0  0  0  0  0  0  0
    9.2177   11.0804   23.3793 N   0  0  0  0  0  0  0  0  0  0  0  0
    8.6419   10.0852   24.0527 N   0  0  0  0  0  0  0  0  0  0  0  0
    9.0768    8.7531   23.7332 C   0  0  0  0  0  0  0  0  0  0  0  0
    7.7178   10.5125   24.9737 C   0  0  0  0  0  0  0  0  0  0  0  0
    6.8888    9.8599   25.8731 C   0  0  0  0  0  0  0  0  0  0  0  0
    6.0936   10.6119   26.7447 C   0  0  0  0  0  0  0  0  0  0  0  0
    6.1028   11.9980   26.7006 C   0  0  0  0  0  0  0  0  0  0  0  0
    6.9189   12.6546   25.7821 C   0  0  0  0  0  0  0  0  0  0  0  0
    7.7189   11.8945   24.9057 C   0  0  0  0  0  0  0  0  0  0  0  0
   10.5692   13.3751   23.0304 N   0  0  0  0  0  0  0  0  0  0  0  0
   10.9133   12.4169   23.0937 H   0  0  0  0  0  0  0  0  0  0  0  0
   11.6910   14.2451   23.2633 C   0  0  0  0  0  0  0  0  0  0  0  0
   11.9522   14.8116   25.6508 C   0  0  0  0  0  0  0  0  0  0  0  0
   11.5185   15.1688   24.3385 O   0  0  0  0  0  0  0  0  0  0  0  0
   12.0587   14.9958   21.9670 C   0  0  0  0  0  0  0  0  0  0  0  0
   10.9180   15.4251   21.1088 C   0  0  0  0  0  0  0  0  0  0  0  0
    9.8385   16.1131   21.5877 N   0  0  0  0  0  0  0  0  0  0  0  0
    9.1799   16.4767   20.5101 C   0  0  0  0  0  0  0  0  0  0  0  0
    9.6807   15.9851   19.3485 O   0  0  0  0  0  0  0  0  0  0  0  0
   10.7742   15.2776   19.7510 C   0  0  0  0  0  0  0  0  0  0  0  0
   11.5792   14.6255   18.7268 C   0  0  0  0  0  0  0  0  0  0  0  0
 19 20  1  0  0  0
 20 18  1  0  0  0
 18 21  1  0  0  0
 21 22  1  0  0  0
 22 23  1  0  0  0
 23 24  2  0  0  0
 24 25  1  0  0  0
 25 26  1  0  0  0
 26 27  1  0  0  0
 18 16  1  0  0  0
 16  1  1  0  0  0
  1  2  1  0  0  0
  1  3  1  0  0  0
  1  6  1  0  0  0
  6  7  2  0  0  0
  7  8  1  0  0  0
  8  9  1  0  0  0
  8 10  1  0  0  0
 10 11  2  0  0  0
 11 12  1  0  0  0
 12 13  2  0  0  0
 13 14  1  0  0  0
 14 15  2  0  0  0
 26 22  2  0  0  0
 15  6  1  0  0  0
 15 10  1  0  0  0
 16 17  1  0  0  0
  2  4  1  0  0  0
  3  5  1  0  0  0
M  END
> <minimizedAffinity>
-6.73446

> <minimizedRMSD>
0.47188

$$$$
P52040


 28 31  0  0  0  0  0  0  0  0999 V2000
    7.9143   10.5801   25.7707 C   0  0  0  0  0  0  0  0  0  0  0  0
    8.4625    9.7169   24.6259 C   0  0  0  0  0  0  0  0  0  0  0  0
    9.7253   10.2173   23.9330 C   0  0  0  0  0  0  0  0  0  0  0  0
   10.1408    9.2147   22.8643 C   0  0  0  0  0  0  0  0  0  0  0  0
    9.6073   11.6937   23.5463 C   0  0  0  0  0  0  0  0  0  0  0  0
    9.0919   12.4990   24.6828 C   0  0  0  0  0  0  0  0  0  0  0  0
    8.3129   12.0192   25.6643 C   0  0  0  0  0  0  0  0  0  0  0  0
    8.0862   13.0067   26.6064 N   0  0  0  0  0  0  0  0  0  0  0  0
    7.3498   12.9450   27.8387 C   0  0  0  0  0  0  0  0  0  0  0  0
    8.9385   14.1027   26.3414 N   0  0  0  0  0  0  0  0  0  0  0  0
    9.3208   13.9425   24.9216 C   0  0  0  0  0  0  0  0  0  0  0  0
    9.7624   14.0718   26.9419 H   0  0  0  0  0  0  0  0  0  0  0  0
    5.9445   10.1463   27.1085 C   0  0  0  0  0  0  0  0  0  0  0  0
    6.5087   10.3656   25.8319 O   0  0  0  0  0  0  0  0  0  0  0  0
   10.7908   12.2253   22.9075 N   0  0  0  0  0  0  0  0  0  0  0  0
   10.8466   12.1121   21.9311 H   0  0  0  0  0  0  0  0  0  0  0  0
   11.8220   12.8553   23.4918 C   0  0  0  0  0  0  0  0  0  0  0  0
   12.3915   14.0021   22.9013 C   0  0  0  0  0  0  0  0  0  0  0  0
   13.3032   14.4664   23.8179 C   0  0  0  0  0  0  0  0  0  0  0  0
   13.2891   13.5726   24.8380 N   0  0  0  0  0  0  0  0  0  0  0  0
   12.3778   12.5914   24.6719 N   0  0  0  0  0  0  0  0  0  0  0  0
   14.1119   13.5231   26.0113 C   0  0  0  0  0  0  0  0  0  0  0  0
   14.8598   14.7507   26.5044 C   0  0  0  0  0  0  0  0  0  0  0  0
   15.8750   14.1412   27.4581 C   0  0  0  0  0  0  0  0  0  0  0  0
   16.1896   12.8834   26.8468 N   0  0  0  0  0  0  0  0  0  0  0  0
   15.2443   12.5287   25.8940 C   0  0  0  0  0  0  0  0  0  0  0  0
   15.3707   11.5937   25.1228 O   0  0  0  0  0  0  0  0  0  0  0  0
   16.9778   12.3391   27.0743 H   0  0  0  0  0  0  0  0  0  0  0  0
 13 14  1  0  0  0
  1 14  1  0  0  0
  1  2  1  0  0  0
  2  3  1  0  0  0
  3  4  1  0  0  0
  3  5  1  0  0  0
  5 15  1  0  0  0
 15 17  1  0  0  0
 17 18  1  0  0  0
 18 19  2  0  0  0
 19 20  1  0  0  0
 22 20  1  0  0  0
 22 23  1  0  0  0
 23 24  1  0  0  0
 24 25  1  0  0  0
 25 26  1  0  0  0
 26 27  2  0  0  0
 20 21  1  0  0  0
  5  6  1  0  0  0
  6  7  2  0  0  0
  7  8  1  0  0  0
  8  9  1  0  0  0
  8 10  1  0  0  0
 10 11  1  0  0  0
  7  1  1  0  0  0
 21 17  2  0  0  0
 11  6  1  0  0  0
 26 22  1  0  0  0
 15 16  1  0  0  0
 25 28  1  0  0  0
 10 12  1  0  0  0
M  END
> <minimizedAffinity>
-7.68050

> <minimizedRMSD>
0.41861

$$$$
P52073


 32 35  0  0  0  0  0  0  0  0999 V2000
   11.1166   11.9189   23.1621 N   0  0  0  0  0  0  0  0  0  0  0  0
   11.2235   11.5932   22.2392 H   0  0  0  0  0  0  0  0  0  0  0  0
    7.9186   12.7859   26.4614 N   0  0  0  0  0  0  0  0  0  0  0  0
    8.6333   13.9060   26.2572 N   0  0  0  0  0  0  0  0  0  0  0  0
    9.4449   13.6048   25.2510 C   0  0  0  0  0  0  0  0  0  0  0  0
    9.3207   12.2686   24.8249 C   0  0  0  0  0  0  0  0  0  0  0  0
    9.9988   11.4508   23.8819 C   0  0  0  0  0  0  0  0  0  0  0  0
    9.5545   10.1167   23.7470 C   0  0  0  0  0  0  0  0  0  0  0  0
   10.2635    9.0970   22.8982 C   0  0  0  0  0  0  0  0  0  0  0  0
    8.4860    9.6528   24.5205 C   0  0  0  0  0  0  0  0  0  0  0  0
    7.8343   10.4639   25.4444 C   0  0  0  0  0  0  0  0  0  0  0  0
    6.4804    9.8934   26.3767 S   0  0  0  0  0  0  0  0  0  0  0  0
    8.2739   11.7702   25.5981 C   0  0  0  0  0  0  0  0  0  0  0  0
    6.2296    8.5940   26.0634 H   0  0  0  0  0  0  0  0  0  0  0  0
    5.6102   12.7805   27.5376 C   0  0  0  0  0  0  0  0  0  0  0  0
    7.1278   12.7020   27.6827 C   0  0  0  0  0  0  0  0  0  0  0  0
   12.0556   12.7754   23.6254 C   0  0  0  0  0  0  0  0  0  0  0  0
   12.6413   12.6874   24.8288 N   0  0  0  0  0  0  0  0  0  0  0  0
   13.5129   13.7051   24.8500 N   0  0  0  0  0  0  0  0  0  0  0  0
   13.4432   14.4870   23.7472 C   0  0  0  0  0  0  0  0  0  0  0  0
   12.5094   13.9154   22.9115 C   0  0  0  0  0  0  0  0  0  0  0  0
   14.4099   13.8991   25.9608 C   0  0  0  0  0  0  0  0  0  0  0  0
   13.7383   14.2676   27.2832 C   0  0  0  0  0  0  0  0  0  0  0  0
   14.6784   13.6986   28.3290 C   0  0  0  0  0  0  0  0  0  0  0  0
   15.2822   12.5744   27.6814 N   0  0  0  0  0  0  0  0  0  0  0  0
   15.1741   12.6429   26.3027 C   0  0  0  0  0  0  0  0  0  0  0  0
   15.6818   11.8463   25.5311 O   0  0  0  0  0  0  0  0  0  0  0  0
   15.7239   11.8369   28.1612 H   0  0  0  0  0  0  0  0  0  0  0  0
   12.0031   14.5110   21.6516 C   0  0  0  0  0  0  0  0  0  0  0  0
   12.7727   14.0994   20.4872 N   0  0  0  0  0  0  0  0  0  0  0  0
   13.2135   15.2666   19.7486 C   0  0  0  0  0  0  0  0  0  0  0  0
   12.1898   13.5183   19.8848 H   0  0  0  0  0  0  0  0  0  0  0  0
 15 16  1  0  0  0
 16  3  1  0  0  0
  3  4  1  0  0  0
  4  5  2  0  0  0
  5  6  1  0  0  0
  6  7  2  0  0  0
  7  1  1  0  0  0
  1 17  1  0  0  0
 17 18  2  0  0  0
 18 19  1  0  0  0
 22 19  1  0  0  0
 22 23  1  0  0  0
 23 24  1  0  0  0
 24 25  1  0  0  0
 25 26  1  0  0  0
 26 27  2  0  0  0
 19 20  1  0  0  0
 20 21  2  0  0  0
 21 29  1  0  0  0
 29 30  1  0  0  0
 30 31  1  0  0  0
  7  8  1  0  0  0
  8  9  1  0  0  0
  8 10  2  0  0  0
 10 11  1  0  0  0
 11 12  1  0  0  0
 11 13  2  0  0  0
 13  3  1  0  0  0
 13  6  1  0  0  0
 21 17  1  0  0  0
 26 22  1  0  0  0
  1  2  1  0  0  0
 25 28  1  0  0  0
 30 32  1  0  0  0
 12 14  1  0  0  0
M  END
> <minimizedAffinity>
-7.28063

> <minimizedRMSD>
0.34655

$$$$
P52135


 28 33  0  0  0  0  0  0  0  0999 V2000
   10.6839   11.5934   23.2977 N   0  0  0  0  0  0  0  0  0  0  0  0
   11.0842   10.1906   23.0280 C   0  0  0  0  0  0  0  0  0  0  0  0
    9.9259    9.2295   23.2167 C   0  0  0  0  0  0  0  0  0  0  0  0
    9.1277   10.0472   24.1458 C   0  0  0  0  0  0  0  0  0  0  0  0
    8.0623    9.6286   24.9152 C   0  0  0  0  0  0  0  0  0  0  0  0
    7.4552   10.5145   25.7872 C   0  0  0  0  0  0  0  0  0  0  0  0
    7.9087   11.8186   25.7648 C   0  0  0  0  0  0  0  0  0  0  0  0
    8.9363   12.2520   24.9400 C   0  0  0  0  0  0  0  0  0  0  0  0
    9.5871   11.3590   24.1540 C   0  0  0  0  0  0  0  0  0  0  0  0
    9.0530   13.7145   25.0892 C   0  0  0  0  0  0  0  0  0  0  0  0
    7.7790   14.0632   25.7533 N   0  0  0  0  0  0  0  0  0  0  0  0
    7.3546   12.8976   26.4808 N   0  0  0  0  0  0  0  0  0  0  0  0
    5.9264   12.6381   26.6874 C   0  0  0  0  0  0  0  0  0  0  0  0
    5.7381   11.3221   27.4270 C   0  0  0  0  0  0  0  0  0  0  0  0
    6.2953   10.1454   26.6498 C   0  0  0  0  0  0  0  0  0  0  0  0
    7.0782   14.3164   25.0568 H   0  0  0  0  0  0  0  0  0  0  0  0
   13.1398   13.6910   24.5700 N   0  0  0  0  0  0  0  0  0  0  0  0
   12.8853   14.3593   23.4104 C   0  0  0  0  0  0  0  0  0  0  0  0
   11.9407   13.6136   22.7474 C   0  0  0  0  0  0  0  0  0  0  0  0
   11.6563   12.5134   23.5895 C   0  0  0  0  0  0  0  0  0  0  0  0
   12.3815   12.5848   24.7186 N   0  0  0  0  0  0  0  0  0  0  0  0
   15.4108   12.0287   25.4927 O   0  0  0  0  0  0  0  0  0  0  0  0
   14.9088   12.9442   26.1239 C   0  0  0  0  0  0  0  0  0  0  0  0
   15.0879   13.1347   27.4838 N   0  0  0  0  0  0  0  0  0  0  0  0
   14.4779   14.3432   27.9437 C   0  0  0  0  0  0  0  0  0  0  0  0
   13.4533   14.6625   26.8709 C   0  0  0  0  0  0  0  0  0  0  0  0
   14.0798   14.0941   25.5937 C   0  0  0  0  0  0  0  0  0  0  0  0
   15.5782   12.5105   28.0662 H   0  0  0  0  0  0  0  0  0  0  0  0
 22 23  2  0  0  0
 23 24  1  0  0  0
 24 25  1  0  0  0
 25 26  1  0  0  0
 26 27  1  0  0  0
 27 17  1  0  0  0
 17 18  1  0  0  0
 18 19  2  0  0  0
 19 20  1  0  0  0
 20  1  1  0  0  0
  1  2  1  0  0  0
  2  3  1  0  0  0
  3  4  1  0  0  0
  4  5  2  0  0  0
  5  6  1  0  0  0
  6  7  2  0  0  0
  7  8  1  0  0  0
  8  9  2  0  0  0
  8 10  1  0  0  0
 10 11  1  0  0  0
 11 12  1  0  0  0
 12 13  1  0  0  0
 13 14  1  0  0  0
 14 15  1  0  0  0
 20 21  2  0  0  0
 27 23  1  0  0  0
 21 17  1  0  0  0
  9  1  1  0  0  0
  9  4  1  0  0  0
 15  6  1  0  0  0
 12  7  1  0  0  0
 24 28  1  0  0  0
 11 16  1  0  0  0
M  END
> <minimizedAffinity>
-7.81694

> <minimizedRMSD>
0.22462

$$$$
P52196


 23 25  0  0  0  0  0  0  0  0999 V2000
    9.9887   13.2645   24.1698 C   0  0  0  0  0  0  0  0  0  0  0  0
    9.7164   14.2344   24.7537 O   0  0  0  0  0  0  0  0  0  0  0  0
   11.1868   12.9510   23.2690 N   0  0  0  0  0  0  0  0  0  0  0  0
   11.1490   12.0736   22.8240 H   0  0  0  0  0  0  0  0  0  0  0  0
    5.8300   12.5165   28.1015 C   0  0  0  0  0  0  0  0  0  0  0  0
    6.5822   11.7657   27.0485 C   0  0  0  0  0  0  0  0  0  0  0  0
    6.3917   10.3930   26.8905 C   0  0  0  0  0  0  0  0  0  0  0  0
    7.0874    9.6785   25.9151 C   0  0  0  0  0  0  0  0  0  0  0  0
    7.9845   10.3636   25.0977 C   0  0  0  0  0  0  0  0  0  0  0  0
    8.2064   11.7273   25.2440 C   0  0  0  0  0  0  0  0  0  0  0  0
    7.5139   12.4371   26.2427 C   0  0  0  0  0  0  0  0  0  0  0  0
    9.2037   12.0312   24.2893 C   0  0  0  0  0  0  0  0  0  0  0  0
    9.5149   10.9579   23.5364 N   0  0  0  0  0  0  0  0  0  0  0  0
    8.8068    9.9590   24.0768 N   0  0  0  0  0  0  0  0  0  0  0  0
    9.0115    8.6202   23.5801 C   0  0  0  0  0  0  0  0  0  0  0  0
   12.3532   13.7256   22.9684 C   0  0  0  0  0  0  0  0  0  0  0  0
   13.1808   13.7194   24.2501 C   0  0  0  0  0  0  0  0  0  0  0  0
   12.0607   15.1608   22.5674 C   0  0  0  0  0  0  0  0  0  0  0  0
   11.2240   15.3265   21.3522 C   0  0  0  0  0  0  0  0  0  0  0  0
    9.9903   15.9480   21.2944 C   0  0  0  0  0  0  0  0  0  0  0  0
    9.5099   16.1413   19.6683 S   0  0  0  0  0  0  0  0  0  0  0  0
   10.9346   15.3326   19.1737 C   0  0  0  0  0  0  0  0  0  0  0  0
   11.7466   14.9424   20.1296 N   0  0  0  0  0  0  0  0  0  0  0  0
  5  6  1  0  0  0
  6  7  2  0  0  0
  7  8  1  0  0  0
  8  9  2  0  0  0
  9 10  1  0  0  0
 10 11  2  0  0  0
 10 12  1  0  0  0
 12  1  1  0  0  0
  1  2  2  0  0  0
  1  3  1  0  0  0
  3 16  1  0  0  0
 16 17  1  0  0  0
 16 18  1  0  0  0
 18 19  1  0  0  0
 19 20  2  0  0  0
 20 21  1  0  0  0
 21 22  1  0  0  0
 22 23  2  0  0  0
 12 13  2  0  0  0
 13 14  1  0  0  0
 14 15  1  0  0  0
 11  6  1  0  0  0
 23 19  1  0  0  0
 14  9  1  0  0  0
  3  4  1  0  0  0
M  END
> <minimizedAffinity>
-7.34365

> <minimizedRMSD>
0.30526

$$$$
P52198


 30 34  0  0  0  0  0  0  0  0999 V2000
    9.8672   13.4616   24.8623 C   0  0  0  0  0  0  0  0  0  0  0  0
   10.0243   14.0134   26.1619 O   0  0  0  0  0  0  0  0  0  0  0  0
   11.2589   13.2645   24.3726 N   0  0  0  0  0  0  0  0  0  0  0  0
   11.3590   13.4596   22.9175 C   0  0  0  0  0  0  0  0  0  0  0  0
   10.9531   14.8706   22.5558 C   0  0  0  0  0  0  0  0  0  0  0  0
   10.7927   15.1564   21.1321 C   0  0  0  0  0  0  0  0  0  0  0  0
    9.6116   15.7564   20.8414 C   0  0  0  0  0  0  0  0  0  0  0  0
    8.7337   15.8981   21.9973 C   0  0  0  0  0  0  0  0  0  0  0  0
    9.5467   15.1276   22.9769 N   0  0  0  0  0  0  0  0  0  0  0  0
    8.9721   14.4548   24.0140 C   0  0  0  0  0  0  0  0  0  0  0  0
    7.7815   14.6377   24.2853 O   0  0  0  0  0  0  0  0  0  0  0  0
    9.4165   16.0089   19.2174 S   0  0  0  0  0  0  0  0  0  0  0  0
    9.9026   17.5880   19.3074 O   0  0  0  0  0  0  0  0  0  0  0  0
   11.0198   15.3888   18.9322 C   0  0  0  0  0  0  0  0  0  0  0  0
   11.5700   14.9084   20.0423 N   0  0  0  0  0  0  0  0  0  0  0  0
   10.5708   13.4204   26.7010 H   0  0  0  0  0  0  0  0  0  0  0  0
   11.5576   12.3161   24.5999 H   0  0  0  0  0  0  0  0  0  0  0  0
    9.1325   18.1546   19.4713 H   0  0  0  0  0  0  0  0  0  0  0  0
   12.4315   14.4329   20.0729 H   0  0  0  0  0  0  0  0  0  0  0  0
    9.0022    8.8321   23.6555 C   0  0  0  0  0  0  0  0  0  0  0  0
    8.7907   10.0693   24.3718 N   0  0  0  0  0  0  0  0  0  0  0  0
    9.5938   11.1035   24.1114 N   0  0  0  0  0  0  0  0  0  0  0  0
    9.1486   12.1043   24.8985 C   0  0  0  0  0  0  0  0  0  0  0  0
    8.0382   11.6749   25.6968 C   0  0  0  0  0  0  0  0  0  0  0  0
    7.1679   12.1831   26.6869 C   0  0  0  0  0  0  0  0  0  0  0  0
    7.3949   13.7745   27.2493 Cl  0  0  0  0  0  0  0  0  0  0  0  0
    6.1749   11.3936   27.2723 C   0  0  0  0  0  0  0  0  0  0  0  0
    6.0435   10.0666   26.9015 C   0  0  0  0  0  0  0  0  0  0  0  0
    6.8925    9.5241   25.9398 C   0  0  0  0  0  0  0  0  0  0  0  0
    7.8604   10.3358   25.3393 C   0  0  0  0  0  0  0  0  0  0  0  0
 20 21  1  0  0  0
 21 22  1  0  0  0
 22 23  2  0  0  0
 23  1  1  0  0  0
  1  2  1  0  0  0
  1  3  1  0  0  0
  3  4  1  0  0  0
  5  4  1  0  0  0
  5  6  1  0  0  0
  6  7  2  0  0  0
  7  8  1  0  0  0
  8  9  1  0  0  0
  9 10  1  0  0  0
 10 11  2  0  0  0
  7 12  1  0  0  0
 12 13  1  0  0  0
 12 14  2  0  0  0
 14 15  1  0  0  0
 23 24  1  0  0  0
 24 25  2  0  0  0
 25 26  1  0  0  0
 25 27  1  0  0  0
 27 28  2  0  0  0
 28 29  1  0  0  0
 29 30  2  0  0  0
 30 21  1  0  0  0
 10  1  1  0  0  0
 30 24  1  0  0  0
  9  5  1  0  0  0
 15  6  1  0  0  0
  2 16  1  0  0  0
  3 17  1  0  0  0
 13 18  1  0  0  0
 15 19  1  0  0  0
M  END
> <minimizedAffinity>
-9.43187

> <minimizedRMSD>
0.49667

$$$$
P52222


 28 31  0  0  0  0  0  0  0  0999 V2000
   11.5921   13.2229   24.2999 N   0  0  0  0  0  0  0  0  0  0  0  0
   12.3989   12.9805   24.8093 H   0  0  0  0  0  0  0  0  0  0  0  0
    9.2744    8.6768   23.3508 C   0  0  0  0  0  0  0  0  0  0  0  0
    9.1620    9.9176   24.0764 N   0  0  0  0  0  0  0  0  0  0  0  0
   10.0997   10.8796   23.8484 N   0  0  0  0  0  0  0  0  0  0  0  0
    9.6766   11.9016   24.5942 C   0  0  0  0  0  0  0  0  0  0  0  0
    8.5127   11.6030   25.2618 C   0  0  0  0  0  0  0  0  0  0  0  0
    7.8371   12.4390   26.1263 C   0  0  0  0  0  0  0  0  0  0  0  0
    6.7499   11.8660   26.7835 C   0  0  0  0  0  0  0  0  0  0  0  0
    6.4215   10.5108   26.5651 C   0  0  0  0  0  0  0  0  0  0  0  0
    7.1431    9.6906   25.6693 C   0  0  0  0  0  0  0  0  0  0  0  0
    8.2119   10.2882   25.0055 C   0  0  0  0  0  0  0  0  0  0  0  0
    8.3912   13.8395   26.2151 C   0  0  0  0  0  0  0  0  0  0  0  0
    9.7547   14.0677   25.5982 N   0  0  0  0  0  0  0  0  0  0  0  0
   10.3294   13.1719   24.8624 C   0  0  0  0  0  0  0  0  0  0  0  0
   11.6603   13.6578   22.9041 C   0  0  0  0  0  0  0  0  0  0  0  0
   11.8233   15.1615   22.7812 C   0  0  0  0  0  0  0  0  0  0  0  0
   11.4449   15.4844   21.3904 C   0  0  0  0  0  0  0  0  0  0  0  0
   11.8729   14.7831   20.3888 N   0  0  0  0  0  0  0  0  0  0  0  0
   11.1620   15.0903   19.2836 C   0  0  0  0  0  0  0  0  0  0  0  0
   11.6060   14.5494   18.1487 N   0  0  0  0  0  0  0  0  0  0  0  0
    9.7726   16.2024   19.4115 S   0  0  0  0  0  0  0  0  0  0  0  0
    8.7407   15.1522   20.0803 O   0  0  0  0  0  0  0  0  0  0  0  0
   10.4102   16.5364   21.0414 C   0  0  0  0  0  0  0  0  0  0  0  0
    9.8970   17.4087   21.6871 O   0  0  0  0  0  0  0  0  0  0  0  0
   12.3816   13.9431   18.1628 H   0  0  0  0  0  0  0  0  0  0  0  0
   11.1583   14.7562   17.2967 H   0  0  0  0  0  0  0  0  0  0  0  0
    8.1905   14.7539   19.3879 H   0  0  0  0  0  0  0  0  0  0  0  0
  3  4  1  0  0  0
  4  5  1  0  0  0
  5  6  2  0  0  0
  6  7  1  0  0  0
  7  8  2  0  0  0
  8  9  1  0  0  0
  9 10  2  0  0  0
 10 11  1  0  0  0
 11 12  2  0  0  0
  8 13  1  0  0  0
 13 14  1  0  0  0
 14 15  2  0  0  0
 15  1  1  0  0  0
  1 16  1  0  0  0
 16 17  1  0  0  0
 17 18  1  0  0  0
 18 19  2  0  0  0
 19 20  1  0  0  0
 20 21  1  0  0  0
 20 22  2  0  0  0
 22 23  1  0  0  0
 22 24  1  0  0  0
 24 25  2  0  0  0
 12  4  1  0  0  0
 24 18  1  0  0  0
 15  6  1  0  0  0
 12  7  1  0  0  0
  1  2  1  0  0  0
 21 26  1  0  0  0
 21 27  1  0  0  0
 23 28  1  0  0  0
M  END
> <minimizedAffinity>
-8.11851

> <minimizedRMSD>
0.25848

$$$$
P52259


 30 33  0  0  0  0  0  0  0  0999 V2000
    9.9096   13.7781   24.4761 C   0  0  0  0  0  0  0  0  0  0  0  0
    9.1392   14.6946   23.9851 N   0  0  0  0  0  0  0  0  0  0  0  0
    9.0523   14.6352   22.6065 C   0  0  0  0  0  0  0  0  0  0  0  0
    8.2281   13.9277   22.0368 O   0  0  0  0  0  0  0  0  0  0  0  0
   10.0875   15.4911   21.8772 C   0  0  0  0  0  0  0  0  0  0  0  0
   11.4122   14.7291   21.6814 C   0  0  0  0  0  0  0  0  0  0  0  0
   12.4288   14.8458   22.8110 C   0  0  0  0  0  0  0  0  0  0  0  0
   12.2765   13.7979   23.9016 C   0  0  0  0  0  0  0  0  0  0  0  0
   11.1985   14.1402   24.8213 N   0  0  0  0  0  0  0  0  0  0  0  0
   12.0836   15.3042   20.5003 N   0  0  0  0  0  0  0  0  0  0  0  0
   11.1195   15.5005   19.4529 C   0  0  0  0  0  0  0  0  0  0  0  0
   11.2167   14.2804   18.7347 N   0  0  0  0  0  0  0  0  0  0  0  0
    9.5928   15.8711   20.2238 S   0  0  0  0  0  0  0  0  0  0  0  0
    9.6127   17.5009   20.2303 O   0  0  0  0  0  0  0  0  0  0  0  0
   11.3829   14.6153   25.6636 H   0  0  0  0  0  0  0  0  0  0  0  0
   12.8113   14.6662   20.1781 H   0  0  0  0  0  0  0  0  0  0  0  0
   11.0876   13.4974   19.3755 H   0  0  0  0  0  0  0  0  0  0  0  0
   12.1365   14.2148   18.2987 H   0  0  0  0  0  0  0  0  0  0  0  0
    9.3526   17.8310   19.3560 H   0  0  0  0  0  0  0  0  0  0  0  0
    9.1716    9.0406   23.6714 C   0  0  0  0  0  0  0  0  0  0  0  0
    8.6585   10.3580   24.0104 N   0  0  0  0  0  0  0  0  0  0  0  0
    8.1645   10.5679   25.3653 C   0  0  0  0  0  0  0  0  0  0  0  0
    6.9367    9.8356   25.8672 C   0  0  0  0  0  0  0  0  0  0  0  0
    6.3782   10.4457   27.1508 C   0  0  0  0  0  0  0  0  0  0  0  0
    6.2675   11.9707   27.1102 C   0  0  0  0  0  0  0  0  0  0  0  0
    7.5495   12.6628   26.6440 C   0  0  0  0  0  0  0  0  0  0  0  0
    8.0279   12.0884   25.3237 C   0  0  0  0  0  0  0  0  0  0  0  0
    9.4410   12.3936   24.8822 C   0  0  0  0  0  0  0  0  0  0  0  0
    9.6525   11.4216   23.7882 N   0  0  0  0  0  0  0  0  0  0  0  0
   10.9315   10.9403   23.8810 F   0  0  0  0  0  0  0  0  0  0  0  0
 20 21  1  0  0  0
 21 22  1  0  0  0
 22 23  1  0  0  0
 23 24  1  0  0  0
 24 25  1  0  0  0
 25 26  1  0  0  0
 27 26  1  0  0  0
 27 28  1  0  0  0
 28  1  1  0  0  0
  1  2  2  0  0  0
  2  3  1  0  0  0
  3  4  2  0  0  0
  5  3  1  0  0  0
  5  6  1  0  0  0
  6  7  1  0  0  0
  7  8  1  0  0  0
  8  9  1  0  0  0
  6 10  1  0  0  0
 10 11  1  0  0  0
 11 12  1  0  0  0
 11 13  1  0  0  0
 13 14  1  0  0  0
 28 29  1  0  0  0
 29 30  1  0  0  0
 29 21  1  0  0  0
 27 22  1  0  0  0
  9  1  1  0  0  0
 13  5  1  0  0  0
  9 15  1  0  0  0
 10 16  1  0  0  0
 12 17  1  0  0  0
 12 18  1  0  0  0
 14 19  1  0  0  0
M  END
> <minimizedAffinity>
-9.73336

> <minimizedRMSD>
0.26267

$$$$
P52274


 36 40  0  0  0  0  0  0  0  0999 V2000
    9.2860    8.7316   23.4624 C   0  0  0  0  0  0  0  0  0  0  0  0
    9.0500   10.0439   24.0166 N   0  0  0  0  0  0  0  0  0  0  0  0
    9.7875   11.0583   23.5763 N   0  0  0  0  0  0  0  0  0  0  0  0
    9.4927   12.0896   24.3983 C   0  0  0  0  0  0  0  0  0  0  0  0
    8.4271   11.7388   25.3071 C   0  0  0  0  0  0  0  0  0  0  0  0
    7.6706   12.3421   26.3621 C   0  0  0  0  0  0  0  0  0  0  0  0
    6.6182   11.5751   26.9331 C   0  0  0  0  0  0  0  0  0  0  0  0
    6.3806   10.2557   26.5870 C   0  0  0  0  0  0  0  0  0  0  0  0
    7.1669    9.6461   25.6275 C   0  0  0  0  0  0  0  0  0  0  0  0
    8.1580   10.3990   24.9926 C   0  0  0  0  0  0  0  0  0  0  0  0
   10.3181   13.3237   24.2424 C   0  0  0  0  0  0  0  0  0  0  0  0
   10.1628   14.2638   24.9628 O   0  0  0  0  0  0  0  0  0  0  0  0
   11.2667   13.0955   23.1966 N   0  0  0  0  0  0  0  0  0  0  0  0
   11.1304   12.2575   22.6981 H   0  0  0  0  0  0  0  0  0  0  0  0
   12.3855   13.8803   22.7484 C   0  0  0  0  0  0  0  0  0  0  0  0
   12.0647   15.3212   22.4145 C   0  0  0  0  0  0  0  0  0  0  0  0
   11.1244   15.4972   21.2772 C   0  0  0  0  0  0  0  0  0  0  0  0
    9.8848   16.1078   21.3145 C   0  0  0  0  0  0  0  0  0  0  0  0
    9.2770   16.2959   19.7282 S   0  0  0  0  0  0  0  0  0  0  0  0
   10.6609   15.4907   19.1248 C   0  0  0  0  0  0  0  0  0  0  0  0
   11.5467   15.1098   20.0166 N   0  0  0  0  0  0  0  0  0  0  0  0
    7.8781   13.7528   26.8980 C   0  0  0  0  0  0  0  0  0  0  0  0
    7.4627   13.9230   28.3748 C   0  0  0  0  0  0  0  0  0  0  0  0
    8.1069   13.4123   29.2541 O   0  0  0  0  0  0  0  0  0  0  0  0
    6.2336   14.6477   28.4260 N   0  0  0  0  0  0  0  0  0  0  0  0
    5.2899   14.9100   29.5780 C   0  0  0  0  0  0  0  0  0  0  0  0
    3.9110   15.4422   29.1584 C   0  0  0  0  0  0  0  0  0  0  0  0
    4.1148   16.7592   28.4875 C   0  0  0  0  0  0  0  0  0  0  0  0
    3.0472   17.5328   28.1853 N   0  0  0  0  0  0  0  0  0  0  0  0
    3.3106   18.7087   27.5701 C   0  0  0  0  0  0  0  0  0  0  0  0
    4.5857   19.1478   27.2562 C   0  0  0  0  0  0  0  0  0  0  0  0
    5.6461   18.3234   27.5957 C   0  0  0  0  0  0  0  0  0  0  0  0
    6.9255   18.7169   27.3468 O   0  0  0  0  0  0  0  0  0  0  0  0
    5.4237   17.0971   28.1972 C   0  0  0  0  0  0  0  0  0  0  0  0
    6.5141   16.1437   28.5994 C   0  0  0  0  0  0  0  0  0  0  0  0
    7.0903   19.5447   26.9400 H   0  0  0  0  0  0  0  0  0  0  0  0
  1  2  1  0  0  0
  2  3  1  0  0  0
  3  4  2  0  0  0
  4 11  1  0  0  0
 11 12  2  0  0  0
 11 13  1  0  0  0
 13 15  1  0  0  0
 15 16  1  0  0  0
 16 17  1  0  0  0
 17 18  2  0  0  0
 18 19  1  0  0  0
 19 20  1  0  0  0
 20 21  2  0  0  0
  4  5  1  0  0  0
  5  6  2  0  0  0
  6 22  1  0  0  0
 22 23  1  0  0  0
 23 24  2  0  0  0
 23 25  1  0  0  0
 25 26  1  0  0  0
 26 27  1  0  0  0
 27 28  1  0  0  0
 28 29  2  0  0  0
 29 30  1  0  0  0
 30 31  2  0  0  0
 31 32  1  0  0  0
 32 33  1  0  0  0
 32 34  2  0  0  0
 34 35  1  0  0  0
  6  7  1  0  0  0
  7  8  2  0  0  0
  8  9  1  0  0  0
  9 10  2  0  0  0
 10  2  1  0  0  0
 21 17  1  0  0  0
 10  5  1  0  0  0
 35 25  1  0  0  0
 34 28  1  0  0  0
 13 14  1  0  0  0
 33 36  1  0  0  0
M  END
> <minimizedAffinity>
-7.73642

> <minimizedRMSD>
0.17880

$$$$
P52275


 35 39  0  0  0  0  0  0  0  0999 V2000
    9.8989   13.5177   23.7743 C   0  0  0  0  0  0  0  0  0  0  0  0
    9.5165   14.6628   24.1291 N   0  0  0  0  0  0  0  0  0  0  0  0
    8.2454   14.9422   24.5556 C   0  0  0  0  0  0  0  0  0  0  0  0
    7.3013   14.4464   24.0147 O   0  0  0  0  0  0  0  0  0  0  0  0
    8.3188   15.7711   25.7065 N   0  0  0  0  0  0  0  0  0  0  0  0
    8.5055   14.9197   26.9574 C   0  0  0  0  0  0  0  0  0  0  0  0
    9.4133   15.6234   27.9990 C   0  0  0  0  0  0  0  0  0  0  0  0
    8.7357   16.8728   28.4250 C   0  0  0  0  0  0  0  0  0  0  0  0
    9.1565   17.6419   29.4722 N   0  0  0  0  0  0  0  0  0  0  0  0
    8.4692   18.7874   29.7548 C   0  0  0  0  0  0  0  0  0  0  0  0
    7.3653   19.1613   29.2008 N   0  0  0  0  0  0  0  0  0  0  0  0
    6.8040   18.3324   28.2402 C   0  0  0  0  0  0  0  0  0  0  0  0
    5.6438   18.4462   27.8584 O   0  0  0  0  0  0  0  0  0  0  0  0
    7.6392   17.2029   27.7389 C   0  0  0  0  0  0  0  0  0  0  0  0
    7.2075   16.3942   26.5625 C   0  0  0  0  0  0  0  0  0  0  0  0
    9.9369   17.3766   30.0107 H   0  0  0  0  0  0  0  0  0  0  0  0
    9.2720    8.7743   23.3052 C   0  0  0  0  0  0  0  0  0  0  0  0
    9.0277   10.0672   23.8991 N   0  0  0  0  0  0  0  0  0  0  0  0
    9.6706   11.1229   23.4140 N   0  0  0  0  0  0  0  0  0  0  0  0
    9.2113   12.1964   24.1075 C   0  0  0  0  0  0  0  0  0  0  0  0
    8.2637   11.7472   25.1007 C   0  0  0  0  0  0  0  0  0  0  0  0
    7.4499   12.2783   26.1287 C   0  0  0  0  0  0  0  0  0  0  0  0
    6.6119   11.4759   26.9113 C   0  0  0  0  0  0  0  0  0  0  0  0
    6.5789   10.1142   26.7037 C   0  0  0  0  0  0  0  0  0  0  0  0
    7.3815    9.5499   25.7185 C   0  0  0  0  0  0  0  0  0  0  0  0
    8.1947   10.3671   24.9333 C   0  0  0  0  0  0  0  0  0  0  0  0
   11.0878   13.0917   23.0507 N   0  0  0  0  0  0  0  0  0  0  0  0
   10.9690   12.2684   22.5240 H   0  0  0  0  0  0  0  0  0  0  0  0
   12.4025   13.6606   22.9701 C   0  0  0  0  0  0  0  0  0  0  0  0
   12.5153   14.9973   22.2804 C   0  0  0  0  0  0  0  0  0  0  0  0
   11.6662   15.1783   21.0760 C   0  0  0  0  0  0  0  0  0  0  0  0
   10.5031   15.9212   20.9943 C   0  0  0  0  0  0  0  0  0  0  0  0
   10.0248   16.0803   19.3624 S   0  0  0  0  0  0  0  0  0  0  0  0
   11.3399   15.0876   18.9010 C   0  0  0  0  0  0  0  0  0  0  0  0
   12.1229   14.6698   19.8706 N   0  0  0  0  0  0  0  0  0  0  0  0
 17 18  1  0  0  0
 18 19  1  0  0  0
 19 20  2  0  0  0
 20  1  1  0  0  0
  1  2  2  0  0  0
  2  3  1  0  0  0
  3  4  2  0  0  0
  3  5  1  0  0  0
  5  6  1  0  0  0
  6  7  1  0  0  0
  7  8  1  0  0  0
  8  9  1  0  0  0
  9 10  1  0  0  0
 10 11  2  0  0  0
 11 12  1  0  0  0
 12 13  2  0  0  0
 12 14  1  0  0  0
 14 15  1  0  0  0
  1 27  1  0  0  0
 27 29  1  0  0  0
 29 30  1  0  0  0
 30 31  1  0  0  0
 31 32  2  0  0  0
 32 33  1  0  0  0
 33 34  1  0  0  0
 34 35  2  0  0  0
 20 21  1  0  0  0
 21 22  2  0  0  0
 22 23  1  0  0  0
 23 24  2  0  0  0
 24 25  1  0  0  0
 25 26  2  0  0  0
 26 18  1  0  0  0
 15  5  1  0  0  0
 35 31  1  0  0  0
 26 21  1  0  0  0
 14  8  2  0  0  0
  9 16  1  0  0  0
 27 28  1  0  0  0
M  END
> <minimizedAffinity>
-8.35516

> <minimizedRMSD>
0.65985

$$$$
P52287


 37 40  0  0  0  0  0  0  0  0999 V2000
    8.9327   14.0647   24.8255 C   0  0  0  0  0  0  0  0  0  0  0  0
    7.6893   14.6904   24.4717 O   0  0  0  0  0  0  0  0  0  0  0  0
    9.3280   14.6980   26.0948 N   0  0  0  0  0  0  0  0  0  0  0  0
   10.5671   14.2125   26.6454 C   0  0  0  0  0  0  0  0  0  0  0  0
   11.8515   14.8059   26.0747 C   0  0  0  0  0  0  0  0  0  0  0  0
   12.6418   13.9019   25.1296 C   0  0  0  0  0  0  0  0  0  0  0  0
   11.8461   13.2259   24.0282 C   0  0  0  0  0  0  0  0  0  0  0  0
   11.0207   14.1177   23.2441 N   0  0  0  0  0  0  0  0  0  0  0  0
    9.8660   14.6396   23.7646 C   0  0  0  0  0  0  0  0  0  0  0  0
    9.5638   15.8049   23.4647 O   0  0  0  0  0  0  0  0  0  0  0  0
    6.9957   14.4010   25.0850 H   0  0  0  0  0  0  0  0  0  0  0  0
    8.5890   14.5309   26.7777 H   0  0  0  0  0  0  0  0  0  0  0  0
    5.9327   11.3402   27.3848 C   0  0  0  0  0  0  0  0  0  0  0  0
    6.0947   10.0105   27.0303 C   0  0  0  0  0  0  0  0  0  0  0  0
    7.0297    9.6336   26.0657 C   0  0  0  0  0  0  0  0  0  0  0  0
    7.8006   10.6071   25.4428 C   0  0  0  0  0  0  0  0  0  0  0  0
    7.6818   11.9579   25.7576 C   0  0  0  0  0  0  0  0  0  0  0  0
    8.6520   12.5890   24.9071 C   0  0  0  0  0  0  0  0  0  0  0  0
    9.2404   11.6937   24.0942 N   0  0  0  0  0  0  0  0  0  0  0  0
    8.7308   10.5116   24.4444 N   0  0  0  0  0  0  0  0  0  0  0  0
    9.1664    9.3157   23.7540 C   0  0  0  0  0  0  0  0  0  0  0  0
    6.7104   12.3124   26.7319 C   0  0  0  0  0  0  0  0  0  0  0  0
    6.4705   13.9724   27.0899 Cl  0  0  0  0  0  0  0  0  0  0  0  0
    4.1478   10.8300   28.8937 C   0  0  0  0  0  0  0  0  0  0  0  0
    5.0490   11.7784   28.3380 O   0  0  0  0  0  0  0  0  0  0  0  0
   11.7426   15.0262   22.3560 C   0  0  0  0  0  0  0  0  0  0  0  0
   11.0817   15.4640   21.0320 C   0  0  0  0  0  0  0  0  0  0  0  0
    9.5784   15.7754   20.9507 C   0  0  0  0  0  0  0  0  0  0  0  0
    9.2811   16.0587   19.2759 S   0  0  0  0  0  0  0  0  0  0  0  0
    9.7665   17.6078   19.2112 O   0  0  0  0  0  0  0  0  0  0  0  0
   10.6741   15.1315   18.7327 C   0  0  0  0  0  0  0  0  0  0  0  0
   11.5862   15.8834   17.9572 N   0  0  0  0  0  0  0  0  0  0  0  0
   11.4337   14.6154   19.8671 N   0  0  0  0  0  0  0  0  0  0  0  0
    9.0429   18.1857   19.4998 H   0  0  0  0  0  0  0  0  0  0  0  0
   11.9819   16.6308   18.5275 H   0  0  0  0  0  0  0  0  0  0  0  0
   11.0996   16.2876   17.1571 H   0  0  0  0  0  0  0  0  0  0  0  0
   12.4342   14.6749   19.6775 H   0  0  0  0  0  0  0  0  0  0  0  0
 24 25  1  0  0  0
 25 13  1  0  0  0
 13 14  2  0  0  0
 14 15  1  0  0  0
 15 16  2  0  0  0
 16 17  1  0  0  0
 17 18  1  0  0  0
 18  1  1  0  0  0
  1  2  1  0  0  0
  1  3  1  0  0  0
  3  4  1  0  0  0
  4  5  1  0  0  0
  5  6  1  0  0  0
  6  7  1  0  0  0
  7  8  1  0  0  0
  8 26  1  0  0  0
 27 26  1  0  0  0
 27 28  1  0  0  0
 28 29  1  0  0  0
 29 30  1  0  0  0
 29 31  1  0  0  0
 31 32  1  0  0  0
 31 33  1  0  0  0
  8  9  1  0  0  0
  9 10  2  0  0  0
 18 19  2  0  0  0
 19 20  1  0  0  0
 20 21  1  0  0  0
 17 22  2  0  0  0
 22 23  1  0  0  0
 22 13  1  0  0  0
 20 16  1  0  0  0
  9  1  1  0  0  0
 33 27  1  0  0  0
  2 11  1  0  0  0
  3 12  1  0  0  0
 30 34  1  0  0  0
 32 35  1  0  0  0
 32 36  1  0  0  0
 33 37  1  0  0  0
M  END
> <minimizedAffinity>
-7.84508

> <minimizedRMSD>
0.58370

$$$$
P52293


 30 34  0  0  0  0  0  0  0  0999 V2000
   12.2108   13.2078   24.9789 C   0  0  0  0  0  0  0  0  0  0  0  0
   10.9452   13.5702   24.3807 N   0  0  0  0  0  0  0  0  0  0  0  0
    9.7571   13.3210   25.0522 C   0  0  0  0  0  0  0  0  0  0  0  0
    8.8453   14.2374   25.2044 N   0  0  0  0  0  0  0  0  0  0  0  0
    8.4699   14.5428   23.9223 C   0  0  0  0  0  0  0  0  0  0  0  0
    7.3507   14.3606   23.4617 O   0  0  0  0  0  0  0  0  0  0  0  0
    9.5491   14.8664   23.1637 N   0  0  0  0  0  0  0  0  0  0  0  0
    9.6570   14.3816   21.8206 C   0  0  0  0  0  0  0  0  0  0  0  0
   10.8393   15.2141   21.3462 C   0  0  0  0  0  0  0  0  0  0  0  0
   10.1624   16.5689   21.0049 C   0  0  0  0  0  0  0  0  0  0  0  0
    9.6988   16.2773   19.2752 S   0  0  0  0  0  0  0  0  0  0  0  0
   11.2081   15.4173   19.0192 C   0  0  0  0  0  0  0  0  0  0  0  0
   11.3622   14.5003   17.9557 N   0  0  0  0  0  0  0  0  0  0  0  0
   11.5397   14.6490   20.1855 N   0  0  0  0  0  0  0  0  0  0  0  0
   12.9674   14.8471   20.3662 O   0  0  0  0  0  0  0  0  0  0  0  0
   11.7657   15.1445   22.5877 C   0  0  0  0  0  0  0  0  0  0  0  0
   10.8526   14.8710   23.7501 C   0  0  0  0  0  0  0  0  0  0  0  0
   10.7882   13.6758   18.1319 H   0  0  0  0  0  0  0  0  0  0  0  0
   12.3414   14.2240   17.8843 H   0  0  0  0  0  0  0  0  0  0  0  0
   13.4438   14.4782   19.6060 H   0  0  0  0  0  0  0  0  0  0  0  0
    9.2512   11.9644   25.0333 C   0  0  0  0  0  0  0  0  0  0  0  0
    9.7320   11.0213   24.2087 N   0  0  0  0  0  0  0  0  0  0  0  0
    8.8724   10.0004   24.3548 N   0  0  0  0  0  0  0  0  0  0  0  0
    9.0486    8.8302   23.5287 C   0  0  0  0  0  0  0  0  0  0  0  0
    7.8947   10.2455   25.2858 C   0  0  0  0  0  0  0  0  0  0  0  0
    6.8558    9.4848   25.8008 C   0  0  0  0  0  0  0  0  0  0  0  0
    5.9616   10.0506   26.7118 C   0  0  0  0  0  0  0  0  0  0  0  0
    6.1015   11.3715   27.1025 C   0  0  0  0  0  0  0  0  0  0  0  0
    7.1615   12.1297   26.6093 C   0  0  0  0  0  0  0  0  0  0  0  0
    8.0810   11.5449   25.7102 C   0  0  0  0  0  0  0  0  0  0  0  0
  1  2  1  0  0  0
  2  3  1  0  0  0
  3 21  1  0  0  0
 21 22  2  0  0  0
 22 23  1  0  0  0
 23 24  1  0  0  0
 23 25  1  0  0  0
 25 26  2  0  0  0
 26 27  1  0  0  0
 27 28  2  0  0  0
 28 29  1  0  0  0
 29 30  2  0  0  0
  3  4  2  0  0  0
  4  5  1  0  0  0
  5  6  2  0  0  0
  5  7  1  0  0  0
  7  8  1  0  0  0
  9  8  1  0  0  0
  9 10  1  0  0  0
 10 11  1  0  0  0
 11 12  1  0  0  0
 12 13  1  0  0  0
 12 14  1  0  0  0
 14 15  1  0  0  0
  9 16  1  0  0  0
 17 16  1  0  0  0
 17  2  1  0  0  0
 30 21  1  0  0  0
 17  7  1  0  0  0
 30 25  1  0  0  0
 14  9  1  0  0  0
 13 18  1  0  0  0
 13 19  1  0  0  0
 15 20  1  0  0  0
M  END
> <minimizedAffinity>
-9.28547

> <minimizedRMSD>
0.31178

$$$$
P52296


 35 38  0  0  0  0  0  0  0  0999 V2000
    9.5706   13.9274   24.9422 C   0  0  0  0  0  0  0  0  0  0  0  0
    8.5713   14.8637   25.3400 O   0  0  0  0  0  0  0  0  0  0  0  0
   10.5032   13.9205   26.0573 N   0  0  0  0  0  0  0  0  0  0  0  0
   11.6783   14.7624   25.9888 C   0  0  0  0  0  0  0  0  0  0  0  0
   12.9294   13.9823   25.5535 C   0  0  0  0  0  0  0  0  0  0  0  0
   12.7009   12.7887   24.6617 C   0  0  0  0  0  0  0  0  0  0  0  0
   12.1237   13.1286   23.2994 C   0  0  0  0  0  0  0  0  0  0  0  0
   11.4252   14.3824   23.2721 N   0  0  0  0  0  0  0  0  0  0  0  0
   10.0765   14.4454   23.5906 C   0  0  0  0  0  0  0  0  0  0  0  0
    9.2400   15.0148   22.8757 O   0  0  0  0  0  0  0  0  0  0  0  0
    8.2019   14.5979   26.1967 H   0  0  0  0  0  0  0  0  0  0  0  0
   10.8285   12.9604   26.1700 H   0  0  0  0  0  0  0  0  0  0  0  0
    9.2961    9.2224   23.6136 C   0  0  0  0  0  0  0  0  0  0  0  0
    8.9305   10.4368   24.3081 N   0  0  0  0  0  0  0  0  0  0  0  0
    9.6136   11.5648   24.0513 N   0  0  0  0  0  0  0  0  0  0  0  0
    9.0138   12.5147   24.7930 C   0  0  0  0  0  0  0  0  0  0  0  0
    7.9602   11.9614   25.5493 C   0  0  0  0  0  0  0  0  0  0  0  0
    7.0518   12.4705   26.4830 C   0  0  0  0  0  0  0  0  0  0  0  0
    6.1798   11.5941   27.1105 C   0  0  0  0  0  0  0  0  0  0  0  0
    5.0469   12.2507   28.2120 Cl  0  0  0  0  0  0  0  0  0  0  0  0
    6.2288   10.2277   26.8657 C   0  0  0  0  0  0  0  0  0  0  0  0
    7.1394    9.7095   25.9428 C   0  0  0  0  0  0  0  0  0  0  0  0
    7.9791   10.5999   25.2765 C   0  0  0  0  0  0  0  0  0  0  0  0
   11.9645   15.3733   22.3735 C   0  0  0  0  0  0  0  0  0  0  0  0
   11.1522   15.4510   21.1140 C   0  0  0  0  0  0  0  0  0  0  0  0
   10.5814   16.8503   20.8667 C   0  0  0  0  0  0  0  0  0  0  0  0
   10.0487   16.6655   19.2177 S   0  0  0  0  0  0  0  0  0  0  0  0
    8.6902   15.8742   19.5794 O   0  0  0  0  0  0  0  0  0  0  0  0
   11.1999   15.3974   18.7773 C   0  0  0  0  0  0  0  0  0  0  0  0
   10.7676   14.0850   18.4388 N   0  0  0  0  0  0  0  0  0  0  0  0
   11.9667   15.0814   19.9552 N   0  0  0  0  0  0  0  0  0  0  0  0
    8.0035   16.5103   19.8338 H   0  0  0  0  0  0  0  0  0  0  0  0
   10.3428   13.6457   19.2555 H   0  0  0  0  0  0  0  0  0  0  0  0
   11.5681   13.5317   18.1329 H   0  0  0  0  0  0  0  0  0  0  0  0
   12.8383   15.6112   19.9574 H   0  0  0  0  0  0  0  0  0  0  0  0
 13 14  1  0  0  0
 14 15  1  0  0  0
 15 16  2  0  0  0
 16  1  1  0  0  0
  1  2  1  0  0  0
  1  3  1  0  0  0
  3  4  1  0  0  0
  4  5  1  0  0  0
  5  6  1  0  0  0
  6  7  1  0  0  0
  7  8  1  0  0  0
  8 24  1  0  0  0
 25 24  1  0  0  0
 25 26  1  0  0  0
 26 27  1  0  0  0
 27 28  1  0  0  0
 27 29  1  0  0  0
 29 30  1  0  0  0
 29 31  1  0  0  0
  8  9  1  0  0  0
  9 10  2  0  0  0
 16 17  1  0  0  0
 17 18  2  0  0  0
 18 19  1  0  0  0
 19 20  1  0  0  0
 19 21  2  0  0  0
 21 22  1  0  0  0
 22 23  2  0  0  0
 23 14  1  0  0  0
  9  1  1  0  0  0
 23 17  1  0  0  0
 31 25  1  0  0  0
  2 11  1  0  0  0
  3 12  1  0  0  0
 28 32  1  0  0  0
 30 33  1  0  0  0
 30 34  1  0  0  0
 31 35  1  0  0  0
M  END
> <minimizedAffinity>
-7.82413

> <minimizedRMSD>
0.37847

$$$$
P52339


 43 47  0  0  0  0  0  0  0  0999 V2000
   10.1053   13.0433   24.3367 C   0  0  0  0  0  0  0  0  0  0  0  0
    9.4030   14.0141   24.8153 N   0  0  0  0  0  0  0  0  0  0  0  0
    9.7264   15.1103   24.1056 C   0  0  0  0  0  0  0  0  0  0  0  0
   10.8299   15.6216   24.2506 O   0  0  0  0  0  0  0  0  0  0  0  0
    8.8061   15.4037   23.1075 N   0  0  0  0  0  0  0  0  0  0  0  0
    9.2409   16.1777   21.9491 C   0  0  0  0  0  0  0  0  0  0  0  0
   10.0325   15.3372   20.9575 C   0  0  0  0  0  0  0  0  0  0  0  0
   11.3219   14.7208   21.5266 C   0  0  0  0  0  0  0  0  0  0  0  0
   11.1105   13.3298   22.1479 C   0  0  0  0  0  0  0  0  0  0  0  0
   11.2852   13.1647   23.6018 N   0  0  0  0  0  0  0  0  0  0  0  0
   12.1735   13.1418   24.0256 H   0  0  0  0  0  0  0  0  0  0  0  0
    9.2299    8.4651   23.2838 C   0  0  0  0  0  0  0  0  0  0  0  0
    9.0855    9.6970   24.0178 N   0  0  0  0  0  0  0  0  0  0  0  0
    9.9098   10.7015   23.7159 N   0  0  0  0  0  0  0  0  0  0  0  0
    9.4946   11.7294   24.4605 C   0  0  0  0  0  0  0  0  0  0  0  0
    8.3524   11.3696   25.2380 C   0  0  0  0  0  0  0  0  0  0  0  0
    7.4733   12.0232   26.1303 C   0  0  0  0  0  0  0  0  0  0  0  0
    6.4293   11.3098   26.7362 C   0  0  0  0  0  0  0  0  0  0  0  0
    6.2821    9.9499   26.4826 C   0  0  0  0  0  0  0  0  0  0  0  0
    7.1499    9.2961   25.6071 C   0  0  0  0  0  0  0  0  0  0  0  0
    8.1528   10.0238   24.9690 C   0  0  0  0  0  0  0  0  0  0  0  0
    5.4332   11.9790   27.6292 C   0  0  0  0  0  0  0  0  0  0  0  0
    4.3961   11.4656   27.7947 O   0  0  0  0  0  0  0  0  0  0  0  0
    6.0154   13.2838   28.2302 N   0  0  0  0  0  0  0  0  0  0  0  0
    6.9527   13.4657   27.9904 H   0  0  0  0  0  0  0  0  0  0  0  0
    5.4283   14.2404   29.0538 C   0  0  0  0  0  0  0  0  0  0  0  0
    6.2517   15.1159   29.7553 C   0  0  0  0  0  0  0  0  0  0  0  0
    5.6528   16.0581   30.5748 C   0  0  0  0  0  0  0  0  0  0  0  0
    4.3185   16.1772   30.7305 N   0  0  0  0  0  0  0  0  0  0  0  0
    3.5470   15.3190   30.0287 C   0  0  0  0  0  0  0  0  0  0  0  0
    4.0495   14.3409   29.1871 C   0  0  0  0  0  0  0  0  0  0  0  0
    7.4810   14.7709   23.0446 C   0  0  0  0  0  0  0  0  0  0  0  0
    6.3605   15.6330   23.6688 C   0  0  0  0  0  0  0  0  0  0  0  0
    6.4319   15.7645   25.1959 C   0  0  0  0  0  0  0  0  0  0  0  0
    4.7745   15.8461   25.7420 S   0  0  0  0  0  0  0  0  0  0  0  0
    4.3789   17.3863   25.3979 O   0  0  0  0  0  0  0  0  0  0  0  0
    4.1661   14.9309   24.3831 C   0  0  0  0  0  0  0  0  0  0  0  0
    2.8526   15.2620   23.9063 N   0  0  0  0  0  0  0  0  0  0  0  0
    5.0268   15.1166   23.2344 N   0  0  0  0  0  0  0  0  0  0  0  0
    4.6854   17.9662   26.1124 H   0  0  0  0  0  0  0  0  0  0  0  0
    2.8575   16.2086   23.5263 H   0  0  0  0  0  0  0  0  0  0  0  0
    2.1875   15.2088   24.6777 H   0  0  0  0  0  0  0  0  0  0  0  0
    4.5974   15.7864   22.5961 H   0  0  0  0  0  0  0  0  0  0  0  0
 12 13  1  0  0  0
 13 14  1  0  0  0
 14 15  2  0  0  0
 15  1  1  0  0  0
  1  2  2  0  0  0
  2  3  1  0  0  0
  3  4  2  0  0  0
  3  5  1  0  0  0
  5 32  1  0  0  0
 33 32  1  0  0  0
 33 34  1  0  0  0
 34 35  1  0  0  0
 35 36  1  0  0  0
 35 37  1  0  0  0
 37 38  1  0  0  0
 37 39  1  0  0  0
  5  6  1  0  0  0
  6  7  1  0  0  0
  7  8  1  0  0  0
  8  9  1  0  0  0
  9 10  1  0  0  0
 15 16  1  0  0  0
 16 17  2  0  0  0
 17 18  1  0  0  0
 18 22  1  0  0  0
 22 23  2  0  0  0
 22 24  1  0  0  0
 24 26  1  0  0  0
 26 27  2  0  0  0
 27 28  1  0  0  0
 28 29  2  0  0  0
 29 30  1  0  0  0
 30 31  2  0  0  0
 18 19  2  0  0  0
 19 20  1  0  0  0
 20 21  2  0  0  0
 21 13  1  0  0  0
 10  1  1  0  0  0
 21 16  1  0  0  0
 39 33  1  0  0  0
 31 26  1  0  0  0
 36 40  1  0  0  0
 38 41  1  0  0  0
 38 42  1  0  0  0
 39 43  1  0  0  0
 10 11  1  0  0  0
 24 25  1  0  0  0
M  END
> <minimizedAffinity>
-5.91461

> <minimizedRMSD>
0.62988

$$$$
P52375


 35 38  0  0  0  0  0  0  0  0999 V2000
    4.4856    9.5259   27.6960 C   0  0  0  0  0  0  0  0  0  0  0  0
    5.5505   10.4000   27.0861 C   0  0  0  0  0  0  0  0  0  0  0  0
    6.4808    9.7825   26.2150 C   0  0  0  0  0  0  0  0  0  0  0  0
    7.4944   10.5457   25.6341 C   0  0  0  0  0  0  0  0  0  0  0  0
    7.6407   11.8808   25.9655 C   0  0  0  0  0  0  0  0  0  0  0  0
    6.7220   12.4883   26.8312 C   0  0  0  0  0  0  0  0  0  0  0  0
    5.6551   11.7710   27.3883 C   0  0  0  0  0  0  0  0  0  0  0  0
    8.8346   12.2877   25.3463 C   0  0  0  0  0  0  0  0  0  0  0  0
    9.3381   11.3176   24.5551 N   0  0  0  0  0  0  0  0  0  0  0  0
    8.4983   10.2796   24.7338 N   0  0  0  0  0  0  0  0  0  0  0  0
    8.7702    9.0534   24.0183 C   0  0  0  0  0  0  0  0  0  0  0  0
    9.5578   13.5471   25.5768 C   0  0  0  0  0  0  0  0  0  0  0  0
    9.0246   14.5377   25.8649 O   0  0  0  0  0  0  0  0  0  0  0  0
   11.0368   13.2389   25.3952 N   0  0  0  0  0  0  0  0  0  0  0  0
   11.2418   12.2916   25.2221 H   0  0  0  0  0  0  0  0  0  0  0  0
   12.1725   14.0961   25.4347 C   0  0  0  0  0  0  0  0  0  0  0  0
   12.8655   14.0655   24.0893 C   0  0  0  0  0  0  0  0  0  0  0  0
   12.0723   14.3821   22.8575 C   0  0  0  0  0  0  0  0  0  0  0  0
   10.8168   13.8275   22.5540 C   0  0  0  0  0  0  0  0  0  0  0  0
   10.0350   14.3244   21.5219 C   0  0  0  0  0  0  0  0  0  0  0  0
   10.5696   15.3624   20.8026 C   0  0  0  0  0  0  0  0  0  0  0  0
   11.8880   15.8180   20.9728 C   0  0  0  0  0  0  0  0  0  0  0  0
   12.6295   15.3452   22.0209 C   0  0  0  0  0  0  0  0  0  0  0  0
    9.5931   16.5251   19.9868 S   0  0  0  0  0  0  0  0  0  0  0  0
    9.5984   18.1353   20.5499 C   0  0  0  0  0  0  0  0  0  0  0  0
    8.2408   16.0214   20.1088 O   0  0  0  0  0  0  0  0  0  0  0  0
   10.3230   16.6195   18.7458 O   0  0  0  0  0  0  0  0  0  0  0  0
    4.6665   12.4393   28.1545 N   0  0  0  0  0  0  0  0  0  0  0  0
    4.5264   12.0955   29.0663 H   0  0  0  0  0  0  0  0  0  0  0  0
    3.8875   13.4923   27.7941 C   0  0  0  0  0  0  0  0  0  0  0  0
    3.4612   14.4744   28.7232 C   0  0  0  0  0  0  0  0  0  0  0  0
    2.6874   15.3562   28.0016 C   0  0  0  0  0  0  0  0  0  0  0  0
    2.6824   14.8779   26.7256 N   0  0  0  0  0  0  0  0  0  0  0  0
    2.0169   15.4393   25.5730 C   0  0  0  0  0  0  0  0  0  0  0  0
    3.3960   13.7557   26.5824 N   0  0  0  0  0  0  0  0  0  0  0  0
  1  2  1  0  0  0
  2  3  2  0  0  0
  3  4  1  0  0  0
  4  5  2  0  0  0
  5  6  1  0  0  0
  6  7  2  0  0  0
  7 28  1  0  0  0
 28 30  1  0  0  0
 30 31  1  0  0  0
 31 32  2  0  0  0
 32 33  1  0  0  0
 33 34  1  0  0  0
 33 35  1  0  0  0
  5  8  1  0  0  0
  8 12  1  0  0  0
 12 13  2  0  0  0
 12 14  1  0  0  0
 14 16  1  0  0  0
 16 17  1  0  0  0
 17 18  1  0  0  0
 18 19  2  0  0  0
 19 20  1  0  0  0
 20 21  2  0  0  0
 21 24  1  0  0  0
 24 25  1  0  0  0
 24 26  2  0  0  0
 24 27  2  0  0  0
 21 22  1  0  0  0
 22 23  2  0  0  0
  8  9  2  0  0  0
  9 10  1  0  0  0
 10 11  1  0  0  0
  7  2  1  0  0  0
 35 30  2  0  0  0
 23 18  1  0  0  0
 10  4  1  0  0  0
 28 29  1  0  0  0
 14 15  1  0  0  0
M  END
> <minimizedAffinity>
-7.39239

> <minimizedRMSD>
1.48683

$$$$
P52472


 39 44  0  0  0  0  0  0  0  0999 V2000
    9.3187    8.5149   23.1907 C   0  0  0  0  0  0  0  0  0  0  0  0
    9.5332    9.8290   23.7194 N   0  0  0  0  0  0  0  0  0  0  0  0
   10.5762   10.4994   23.2395 N   0  0  0  0  0  0  0  0  0  0  0  0
   10.3496   11.7621   23.5663 C   0  0  0  0  0  0  0  0  0  0  0  0
    9.1397   11.8808   24.2472 C   0  0  0  0  0  0  0  0  0  0  0  0
    8.3568   12.9599   24.6247 C   0  0  0  0  0  0  0  0  0  0  0  0
    7.3609   12.7479   25.5804 C   0  0  0  0  0  0  0  0  0  0  0  0
    7.1288   11.4552   26.0602 C   0  0  0  0  0  0  0  0  0  0  0  0
    5.8804   11.1979   27.4579 Br  0  0  0  0  0  0  0  0  0  0  0  0
    7.7454   10.3324   25.4862 C   0  0  0  0  0  0  0  0  0  0  0  0
    8.7560   10.5851   24.5575 C   0  0  0  0  0  0  0  0  0  0  0  0
    8.3937   14.0893   23.6743 C   0  0  0  0  0  0  0  0  0  0  0  0
    7.3078   14.3844   23.1813 O   0  0  0  0  0  0  0  0  0  0  0  0
    9.6182   14.5878   23.2126 N   0  0  0  0  0  0  0  0  0  0  0  0
    9.6190   15.3006   21.9321 C   0  0  0  0  0  0  0  0  0  0  0  0
   10.6233   14.6463   20.9406 C   0  0  0  0  0  0  0  0  0  0  0  0
   11.9437   14.2121   21.5930 C   0  0  0  0  0  0  0  0  0  0  0  0
   12.0606   14.9337   22.9023 C   0  0  0  0  0  0  0  0  0  0  0  0
   10.9696   14.2442   23.7415 C   0  0  0  0  0  0  0  0  0  0  0  0
   11.0864   14.5815   25.2287 C   0  0  0  0  0  0  0  0  0  0  0  0
   11.3900   12.7999   23.4131 C   0  0  0  0  0  0  0  0  0  0  0  0
   11.9641   12.8356   22.0667 N   0  0  0  0  0  0  0  0  0  0  0  0
   11.4123   12.2482   21.4415 H   0  0  0  0  0  0  0  0  0  0  0  0
   10.8525   15.4833   19.6676 C   0  0  0  0  0  0  0  0  0  0  0  0
   10.8540   14.5805   18.5330 N   0  0  0  0  0  0  0  0  0  0  0  0
    9.6687   16.2456   19.5257 O   0  0  0  0  0  0  0  0  0  0  0  0
   10.0533   13.9520   18.5975 H   0  0  0  0  0  0  0  0  0  0  0  0
   11.7157   14.0346   18.5340 H   0  0  0  0  0  0  0  0  0  0  0  0
    8.8985   15.6574   19.5669 H   0  0  0  0  0  0  0  0  0  0  0  0
   12.0448   16.4403   19.5980 C   0  0  0  0  0  0  0  0  0  0  0  0
   13.2362   16.1072   18.9145 C   0  0  0  0  0  0  0  0  0  0  0  0
   14.1752   17.0746   18.5479 C   0  0  0  0  0  0  0  0  0  0  0  0
   13.9551   18.3953   18.9012 C   0  0  0  0  0  0  0  0  0  0  0  0
   12.8794   18.7234   19.7179 C   0  0  0  0  0  0  0  0  0  0  0  0
   11.9344   17.7502   20.0678 C   0  0  0  0  0  0  0  0  0  0  0  0
   14.9244   19.6846   18.1721 S   0  0  0  0  0  0  0  0  0  0  0  0
   15.5385   18.9986   16.6556 C   0  0  0  0  0  0  0  0  0  0  0  0
   14.0220   20.7680   17.8162 O   0  0  0  0  0  0  0  0  0  0  0  0
   16.0534   19.9362   19.0449 O   0  0  0  0  0  0  0  0  0  0  0  0
  1  2  1  0  0  0
  2  3  1  0  0  0
  3  4  2  0  0  0
  4  5  1  0  0  0
  5  6  2  0  0  0
  6  7  1  0  0  0
  7  8  2  0  0  0
  8  9  1  0  0  0
  8 10  1  0  0  0
 10 11  2  0  0  0
  6 12  1  0  0  0
 12 13  2  0  0  0
 12 14  1  0  0  0
 14 15  1  0  0  0
 16 15  1  0  0  0
 16 24  1  0  0  0
 24 25  1  0  0  0
 24 26  1  0  0  0
 24 30  1  0  0  0
 30 31  2  0  0  0
 31 32  1  0  0  0
 32 33  2  0  0  0
 33 36  1  0  0  0
 36 37  1  0  0  0
 36 38  2  0  0  0
 36 39  2  0  0  0
 33 34  1  0  0  0
 34 35  2  0  0  0
 16 17  1  0  0  0
 17 18  1  0  0  0
 18 19  1  0  0  0
 19 20  1  0  0  0
 19 21  1  0  0  0
 21 22  1  0  0  0
 11  2  1  0  0  0
 19 14  1  0  0  0
 21  4  1  0  0  0
 11  5  1  0  0  0
 35 30  1  0  0  0
 17 22  1  0  0  0
 25 27  1  0  0  0
 25 28  1  0  0  0
 26 29  1  0  0  0
 22 23  1  0  0  0
M  END
> <minimizedAffinity>
-10.96801

> <minimizedRMSD>
0.51734

$$$$
P52481


 34 38  0  0  0  0  0  0  0  0999 V2000
    9.8459    8.6234   23.0816 C   0  0  0  0  0  0  0  0  0  0  0  0
    9.6994   10.0248   23.3790 N   0  0  0  0  0  0  0  0  0  0  0  0
   10.3640   10.9145   22.6265 N   0  0  0  0  0  0  0  0  0  0  0  0
   10.1224   12.1105   23.1786 C   0  0  0  0  0  0  0  0  0  0  0  0
    9.1784   11.9540   24.2268 C   0  0  0  0  0  0  0  0  0  0  0  0
    8.4966   12.8322   25.0718 C   0  0  0  0  0  0  0  0  0  0  0  0
    7.5622   12.4040   25.9988 C   0  0  0  0  0  0  0  0  0  0  0  0
    7.3048   11.0432   26.0579 C   0  0  0  0  0  0  0  0  0  0  0  0
    5.9935   10.4140   27.2443 Br  0  0  0  0  0  0  0  0  0  0  0  0
    7.9651   10.1153   25.2393 C   0  0  0  0  0  0  0  0  0  0  0  0
    8.9020   10.6031   24.3251 C   0  0  0  0  0  0  0  0  0  0  0  0
    8.8395   14.2077   24.8163 C   0  0  0  0  0  0  0  0  0  0  0  0
    9.8232   14.6454   25.3964 O   0  0  0  0  0  0  0  0  0  0  0  0
    8.2158   14.6835   23.6825 N   0  0  0  0  0  0  0  0  0  0  0  0
    9.0253   15.3182   22.6677 C   0  0  0  0  0  0  0  0  0  0  0  0
    9.7667   14.2732   21.8107 C   0  0  0  0  0  0  0  0  0  0  0  0
   10.4416   15.0305   20.6760 C   0  0  0  0  0  0  0  0  0  0  0  0
    9.7749   15.4431   19.7280 O   0  0  0  0  0  0  0  0  0  0  0  0
   11.8892   15.3460   20.8848 C   0  0  0  0  0  0  0  0  0  0  0  0
   12.6259   14.0497   21.1339 C   0  0  0  0  0  0  0  0  0  0  0  0
   11.9763   13.0122   21.9166 N   0  0  0  0  0  0  0  0  0  0  0  0
   10.7679   13.4105   22.6347 C   0  0  0  0  0  0  0  0  0  0  0  0
    7.2423   14.5931   23.5671 H   0  0  0  0  0  0  0  0  0  0  0  0
   12.6495   12.6727   22.6037 H   0  0  0  0  0  0  0  0  0  0  0  0
   12.6496   16.1799   19.8744 C   0  0  0  0  0  0  0  0  0  0  0  0
   12.8499   15.8759   18.5318 C   0  0  0  0  0  0  0  0  0  0  0  0
   13.6054   16.7411   17.7174 C   0  0  0  0  0  0  0  0  0  0  0  0
   14.1552   17.9111   18.2456 C   0  0  0  0  0  0  0  0  0  0  0  0
   14.0277   18.1836   19.5897 C   0  0  0  0  0  0  0  0  0  0  0  0
   13.3040   17.3055   20.3763 C   0  0  0  0  0  0  0  0  0  0  0  0
   15.1064   19.0336   17.2783 S   0  0  0  0  0  0  0  0  0  0  0  0
   16.1182   17.9971   16.2862 C   0  0  0  0  0  0  0  0  0  0  0  0
   14.2248   19.7995   16.4217 O   0  0  0  0  0  0  0  0  0  0  0  0
   16.0250   19.7294   18.1691 O   0  0  0  0  0  0  0  0  0  0  0  0
  1  2  1  0  0  0
  2  3  1  0  0  0
  3  4  2  0  0  0
  4  5  1  0  0  0
  5  6  2  0  0  0
  6  7  1  0  0  0
  7  8  2  0  0  0
  8  9  1  0  0  0
  8 10  1  0  0  0
 10 11  2  0  0  0
  6 12  1  0  0  0
 12 13  2  0  0  0
 12 14  1  0  0  0
 14 15  1  0  0  0
 16 15  1  0  0  0
 16 17  1  0  0  0
 17 18  2  0  0  0
 17 19  1  0  0  0
 19 25  1  0  0  0
 25 26  2  0  0  0
 26 27  1  0  0  0
 27 28  2  0  0  0
 28 31  1  0  0  0
 31 32  1  0  0  0
 31 33  2  0  0  0
 31 34  2  0  0  0
 28 29  1  0  0  0
 29 30  2  0  0  0
 19 20  1  0  0  0
 20 21  1  0  0  0
 22 21  1  0  0  0
 11  2  1  0  0  0
 22 16  1  0  0  0
 22  4  1  0  0  0
 11  5  1  0  0  0
 30 25  1  0  0  0
 14 23  1  0  0  0
 21 24  1  0  0  0
M  END
> <minimizedAffinity>
-10.52088

> <minimizedRMSD>
0.22299

$$$$
P53248


 33 35  0  0  0  0  0  0  0  0999 V2000
    8.0196   14.0111   23.5627 C   0  0  0  0  0  0  0  0  0  0  0  0
    7.1646   13.2800   22.7273 O   0  0  0  0  0  0  0  0  0  0  0  0
    7.3873   15.2195   23.8416 O   0  0  0  0  0  0  0  0  0  0  0  0
    7.4175   12.4291   22.4273 H   0  0  0  0  0  0  0  0  0  0  0  0
    7.8066   15.8517   24.3916 H   0  0  0  0  0  0  0  0  0  0  0  0
    9.2885   14.2093   22.9054 N   0  0  0  0  0  0  0  0  0  0  0  0
   10.3810   14.3969   23.8752 C   0  0  0  0  0  0  0  0  0  0  0  0
   11.7263   14.4234   23.1605 C   0  0  0  0  0  0  0  0  0  0  0  0
   11.7514   15.5999   22.2046 C   0  0  0  0  0  0  0  0  0  0  0  0
   11.6269   16.7362   23.0592 O   0  0  0  0  0  0  0  0  0  0  0  0
   10.5920   15.5086   21.1947 C   0  0  0  0  0  0  0  0  0  0  0  0
   10.5354   16.7310   20.2875 C   0  0  0  0  0  0  0  0  0  0  0  0
   10.9637   16.3028   18.9465 N   0  0  0  0  0  0  0  0  0  0  0  0
    9.7210   16.1612   18.2150 O   0  0  0  0  0  0  0  0  0  0  0  0
   11.5278   15.0235   19.1638 N   0  0  0  0  0  0  0  0  0  0  0  0
   10.7905   14.4529   20.2209 N   0  0  0  0  0  0  0  0  0  0  0  0
    9.2514   15.3259   21.9420 C   0  0  0  0  0  0  0  0  0  0  0  0
   10.8118   16.6616   23.5798 H   0  0  0  0  0  0  0  0  0  0  0  0
    9.3326   17.0372   18.0649 H   0  0  0  0  0  0  0  0  0  0  0  0
   12.5110   15.1080   19.4217 H   0  0  0  0  0  0  0  0  0  0  0  0
   11.3106   13.6809   20.6380 H   0  0  0  0  0  0  0  0  0  0  0  0
    8.1614   13.3452   24.8172 N   0  0  0  0  0  0  0  0  0  0  0  0
    8.8955   13.6141   25.4156 H   0  0  0  0  0  0  0  0  0  0  0  0
    7.6631   10.9823   24.9873 C   0  0  0  0  0  0  0  0  0  0  0  0
    6.9164    9.9929   25.6202 C   0  0  0  0  0  0  0  0  0  0  0  0
    5.8141   10.2951   26.4230 C   0  0  0  0  0  0  0  0  0  0  0  0
    5.4049   11.6125   26.5768 C   0  0  0  0  0  0  0  0  0  0  0  0
    6.1273   12.6263   25.9557 C   0  0  0  0  0  0  0  0  0  0  0  0
    7.2991   12.3272   25.2282 C   0  0  0  0  0  0  0  0  0  0  0  0
    9.0568    9.1923   23.6571 C   0  0  0  0  0  0  0  0  0  0  0  0
    8.8072   10.6401   24.0412 C   0  0  0  0  0  0  0  0  0  0  0  0
    5.7875   13.9453   26.1532 O   0  0  0  0  0  0  0  0  0  0  0  0
    4.5096   14.2492   25.5839 C   0  0  0  0  0  0  0  0  0  0  0  0
 30 31  1  0  0  0
 31 24  1  0  0  0
 24 25  2  0  0  0
 25 26  1  0  0  0
 26 27  2  0  0  0
 27 28  1  0  0  0
 28 32  1  0  0  0
 32 33  1  0  0  0
 28 29  2  0  0  0
 29 22  1  0  0  0
 22  1  1  0  0  0
  1  2  1  0  0  0
  1  3  1  0  0  0
  1  6  1  0  0  0
  6  7  1  0  0  0
  7  8  1  0  0  0
  8  9  1  0  0  0
  9 10  1  0  0  0
  9 11  1  0  0  0
 11 12  1  0  0  0
 12 13  1  0  0  0
 13 14  1  0  0  0
 13 15  1  0  0  0
 15 16  1  0  0  0
 11 17  1  0  0  0
 29 24  1  0  0  0
 17  6  1  0  0  0
 16 11  1  0  0  0
 22 23  1  0  0  0
  2  4  1  0  0  0
  3  5  1  0  0  0
 10 18  1  0  0  0
 14 19  1  0  0  0
 15 20  1  0  0  0
 16 21  1  0  0  0
M  END
> <minimizedAffinity>
-8.10316

> <minimizedRMSD>
0.35571

$$$$
P53454


 28 30  0  0  0  0  0  0  0  0999 V2000
    9.6177   12.3393   24.0403 C   0  0  0  0  0  0  0  0  0  0  0  0
    9.9309   11.1887   23.4097 N   0  0  0  0  0  0  0  0  0  0  0  0
    9.0221   10.2979   23.8467 N   0  0  0  0  0  0  0  0  0  0  0  0
    9.0575    8.9487   23.3293 C   0  0  0  0  0  0  0  0  0  0  0  0
    8.1209   10.8178   24.7380 C   0  0  0  0  0  0  0  0  0  0  0  0
    7.0255   10.2612   25.4036 C   0  0  0  0  0  0  0  0  0  0  0  0
    6.2676   11.0955   26.2374 C   0  0  0  0  0  0  0  0  0  0  0  0
    6.5795   12.4526   26.4218 C   0  0  0  0  0  0  0  0  0  0  0  0
    7.7095   12.9671   25.7430 C   0  0  0  0  0  0  0  0  0  0  0  0
    8.4844   12.1513   24.8913 C   0  0  0  0  0  0  0  0  0  0  0  0
   10.5235   13.7658   22.2485 N   0  0  0  0  0  0  0  0  0  0  0  0
   10.3714   13.5998   23.7727 C   0  0  0  0  0  0  0  0  0  0  0  0
   10.6943   14.3029   24.6457 O   0  0  0  0  0  0  0  0  0  0  0  0
   10.2352   12.9878   21.7186 H   0  0  0  0  0  0  0  0  0  0  0  0
   10.1045   16.0975   21.5874 C   0  0  0  0  0  0  0  0  0  0  0  0
   11.0243   14.8862   21.4635 C   0  0  0  0  0  0  0  0  0  0  0  0
   12.4827   15.1952   21.7971 C   0  0  0  0  0  0  0  0  0  0  0  0
   13.1201   16.1263   20.8319 C   0  0  0  0  0  0  0  0  0  0  0  0
   13.7817   17.3079   21.0664 C   0  0  0  0  0  0  0  0  0  0  0  0
   14.1307   17.8518   19.8677 O   0  0  0  0  0  0  0  0  0  0  0  0
   13.6739   16.9437   18.9596 C   0  0  0  0  0  0  0  0  0  0  0  0
   13.0860   15.8912   19.4787 N   0  0  0  0  0  0  0  0  0  0  0  0
    5.7342   13.3964   27.3072 C   0  0  0  0  0  0  0  0  0  0  0  0
    5.3006   12.7545   28.6473 C   0  0  0  0  0  0  0  0  0  0  0  0
    6.5734   14.6449   27.6686 C   0  0  0  0  0  0  0  0  0  0  0  0
    4.4533   13.8325   26.5336 C   0  0  0  0  0  0  0  0  0  0  0  0
    4.4473   15.2369   26.2731 O   0  0  0  0  0  0  0  0  0  0  0  0
    4.4604   15.7217   27.1132 H   0  0  0  0  0  0  0  0  0  0  0  0
 16 15  1  0  0  0
 16 17  1  0  0  0
 17 18  1  0  0  0
 18 19  2  0  0  0
 19 20  1  0  0  0
 20 21  1  0  0  0
 21 22  2  0  0  0
 16 11  1  0  0  0
 11 12  1  0  0  0
 12 13  2  0  0  0
 12  1  1  0  0  0
  1  2  2  0  0  0
  2  3  1  0  0  0
  3  4  1  0  0  0
  3  5  1  0  0  0
  5  6  2  0  0  0
  6  7  1  0  0  0
  7  8  2  0  0  0
  8 23  1  0  0  0
 23 24  1  0  0  0
 23 25  1  0  0  0
 23 26  1  0  0  0
 26 27  1  0  0  0
  8  9  1  0  0  0
  9 10  2  0  0  0
 22 18  1  0  0  0
 10  1  1  0  0  0
 10  5  1  0  0  0
 11 14  1  0  0  0
 27 28  1  0  0  0
M  END
> <minimizedAffinity>
-7.95983

> <minimizedRMSD>
0.68567

$$$$
P53455


 28 31  0  0  0  0  0  0  0  0999 V2000
    9.1334   12.6305   23.6852 C   0  0  0  0  0  0  0  0  0  0  0  0
    9.7260   11.5731   23.0915 N   0  0  0  0  0  0  0  0  0  0  0  0
    9.0786   10.5029   23.5877 N   0  0  0  0  0  0  0  0  0  0  0  0
    9.3967    9.1787   23.1012 C   0  0  0  0  0  0  0  0  0  0  0  0
    8.1267   10.8219   24.5184 C   0  0  0  0  0  0  0  0  0  0  0  0
    7.2678   10.0281   25.2730 C   0  0  0  0  0  0  0  0  0  0  0  0
    6.3302   10.6647   26.0859 C   0  0  0  0  0  0  0  0  0  0  0  0
    6.2429   12.0614   26.1581 C   0  0  0  0  0  0  0  0  0  0  0  0
    7.1658   12.8351   25.4231 C   0  0  0  0  0  0  0  0  0  0  0  0
    8.1142   12.2078   24.5876 C   0  0  0  0  0  0  0  0  0  0  0  0
    5.1611   12.6943   26.9291 C   0  0  0  0  0  0  0  0  0  0  0  0
    4.3619   13.6964   26.3506 C   0  0  0  0  0  0  0  0  0  0  0  0
    3.2991   14.2734   27.0505 C   0  0  0  0  0  0  0  0  0  0  0  0
    3.0162   13.8590   28.3486 C   0  0  0  0  0  0  0  0  0  0  0  0
    3.7969   12.8714   28.9454 C   0  0  0  0  0  0  0  0  0  0  0  0
    4.8588   12.2945   28.2415 C   0  0  0  0  0  0  0  0  0  0  0  0
   10.2587   14.0189   22.0060 N   0  0  0  0  0  0  0  0  0  0  0  0
    9.5309   14.0211   23.3592 C   0  0  0  0  0  0  0  0  0  0  0  0
    9.2832   14.9007   24.0825 O   0  0  0  0  0  0  0  0  0  0  0  0
   10.4113   13.1254   21.6218 H   0  0  0  0  0  0  0  0  0  0  0  0
    9.7681   15.3920   20.0727 C   0  0  0  0  0  0  0  0  0  0  0  0
   10.7576   15.1188   21.2021 C   0  0  0  0  0  0  0  0  0  0  0  0
   12.1777   14.8194   20.7043 C   0  0  0  0  0  0  0  0  0  0  0  0
   12.9350   16.0278   20.2993 C   0  0  0  0  0  0  0  0  0  0  0  0
   13.5439   16.9969   21.0600 C   0  0  0  0  0  0  0  0  0  0  0  0
   14.0845   17.9247   20.2205 O   0  0  0  0  0  0  0  0  0  0  0  0
   13.7830   17.4465   18.9798 C   0  0  0  0  0  0  0  0  0  0  0  0
   13.1112   16.3191   18.9697 N   0  0  0  0  0  0  0  0  0  0  0  0
 22 21  1  0  0  0
 22 23  1  0  0  0
 23 24  1  0  0  0
 24 25  2  0  0  0
 25 26  1  0  0  0
 26 27  1  0  0  0
 27 28  2  0  0  0
 22 17  1  0  0  0
 17 18  1  0  0  0
 18 19  2  0  0  0
 18  1  1  0  0  0
  1  2  2  0  0  0
  2  3  1  0  0  0
  3  4  1  0  0  0
  3  5  1  0  0  0
  5  6  2  0  0  0
  6  7  1  0  0  0
  7  8  2  0  0  0
  8 11  1  0  0  0
 11 12  2  0  0  0
 12 13  1  0  0  0
 13 14  2  0  0  0
 14 15  1  0  0  0
 15 16  2  0  0  0
  8  9  1  0  0  0
  9 10  2  0  0  0
 28 24  1  0  0  0
 10  1  1  0  0  0
 10  5  1  0  0  0
 16 11  1  0  0  0
 17 20  1  0  0  0
M  END
> <minimizedAffinity>
-8.20576

> <minimizedRMSD>
0.42013

$$$$
P53460


 27 29  0  0  0  0  0  0  0  0999 V2000
    9.0883   12.5905   23.6520 C   0  0  0  0  0  0  0  0  0  0  0  0
    9.7059   11.5571   23.0407 N   0  0  0  0  0  0  0  0  0  0  0  0
    9.0976   10.4623   23.5354 N   0  0  0  0  0  0  0  0  0  0  0  0
    9.4677    9.1511   23.0489 C   0  0  0  0  0  0  0  0  0  0  0  0
    8.1356   10.7446   24.4686 C   0  0  0  0  0  0  0  0  0  0  0  0
    7.2953    9.9187   25.2129 C   0  0  0  0  0  0  0  0  0  0  0  0
    6.3528   10.5163   26.0492 C   0  0  0  0  0  0  0  0  0  0  0  0
    6.2519   11.9069   26.1502 C   0  0  0  0  0  0  0  0  0  0  0  0
    7.1464   12.7209   25.4251 C   0  0  0  0  0  0  0  0  0  0  0  0
    8.0930   12.1292   24.5626 C   0  0  0  0  0  0  0  0  0  0  0  0
   10.3016   14.0131   22.0641 N   0  0  0  0  0  0  0  0  0  0  0  0
    9.4352   13.9970   23.3329 C   0  0  0  0  0  0  0  0  0  0  0  0
    9.0341   14.8756   23.9848 O   0  0  0  0  0  0  0  0  0  0  0  0
   10.5734   13.1242   21.7396 H   0  0  0  0  0  0  0  0  0  0  0  0
    9.7614   15.4381   20.1769 C   0  0  0  0  0  0  0  0  0  0  0  0
   10.7844   15.1245   21.2664 C   0  0  0  0  0  0  0  0  0  0  0  0
   12.1876   14.8256   20.7264 C   0  0  0  0  0  0  0  0  0  0  0  0
   12.9386   16.0324   20.3083 C   0  0  0  0  0  0  0  0  0  0  0  0
   13.5540   17.0052   21.0593 C   0  0  0  0  0  0  0  0  0  0  0  0
   14.0920   17.9259   20.2104 O   0  0  0  0  0  0  0  0  0  0  0  0
   13.7819   17.4397   18.9748 C   0  0  0  0  0  0  0  0  0  0  0  0
   13.1041   16.3158   18.9761 N   0  0  0  0  0  0  0  0  0  0  0  0
    5.1494   12.5203   26.9852 C   0  0  0  0  0  0  0  0  0  0  0  0
    4.1679   13.1972   26.1292 N   0  0  0  0  0  0  0  0  0  0  0  0
    2.8802   13.0705   26.7899 O   0  0  0  0  0  0  0  0  0  0  0  0
    4.1371   12.7537   25.2111 H   0  0  0  0  0  0  0  0  0  0  0  0
    2.9207   13.4951   27.6610 H   0  0  0  0  0  0  0  0  0  0  0  0
 16 15  1  0  0  0
 16 17  1  0  0  0
 17 18  1  0  0  0
 18 19  2  0  0  0
 19 20  1  0  0  0
 20 21  1  0  0  0
 21 22  2  0  0  0
 16 11  1  0  0  0
 11 12  1  0  0  0
 12 13  2  0  0  0
 12  1  1  0  0  0
  1  2  2  0  0  0
  2  3  1  0  0  0
  3  4  1  0  0  0
  3  5  1  0  0  0
  5  6  2  0  0  0
  6  7  1  0  0  0
  7  8  2  0  0  0
  8 23  1  0  0  0
 23 24  1  0  0  0
 24 25  1  0  0  0
  8  9  1  0  0  0
  9 10  2  0  0  0
 22 18  1  0  0  0
 10  1  1  0  0  0
 10  5  1  0  0  0
 11 14  1  0  0  0
 24 26  1  0  0  0
 25 27  1  0  0  0
M  END
> <minimizedAffinity>
-7.63717

> <minimizedRMSD>
0.32611

$$$$
P53461


 30 32  0  0  0  0  0  0  0  0999 V2000
    8.9104   14.0860   23.2803 C   0  0  0  0  0  0  0  0  0  0  0  0
    8.6678   14.9770   24.3633 O   0  0  0  0  0  0  0  0  0  0  0  0
    8.7972   15.8910   24.0652 H   0  0  0  0  0  0  0  0  0  0  0  0
    8.7125   12.6042   23.7192 C   0  0  0  0  0  0  0  0  0  0  0  0
    9.3439   11.6222   23.0424 N   0  0  0  0  0  0  0  0  0  0  0  0
    8.9170   10.4803   23.6090 N   0  0  0  0  0  0  0  0  0  0  0  0
    9.4292    9.2091   23.1453 C   0  0  0  0  0  0  0  0  0  0  0  0
    7.9655   10.6729   24.5742 C   0  0  0  0  0  0  0  0  0  0  0  0
    7.1918    9.7700   25.3093 C   0  0  0  0  0  0  0  0  0  0  0  0
    6.2813   10.2789   26.2347 C   0  0  0  0  0  0  0  0  0  0  0  0
    6.1887   11.6469   26.4523 C   0  0  0  0  0  0  0  0  0  0  0  0
    6.9860   12.5384   25.7242 C   0  0  0  0  0  0  0  0  0  0  0  0
    7.8639   12.0519   24.7327 C   0  0  0  0  0  0  0  0  0  0  0  0
   10.3364   14.2208   22.9503 N   0  0  0  0  0  0  0  0  0  0  0  0
   10.7817   14.6377   23.7677 H   0  0  0  0  0  0  0  0  0  0  0  0
   10.2265   16.4263   21.6296 C   0  0  0  0  0  0  0  0  0  0  0  0
   10.7930   15.0044   21.7835 C   0  0  0  0  0  0  0  0  0  0  0  0
   12.3391   15.0095   21.8514 C   0  0  0  0  0  0  0  0  0  0  0  0
   12.9987   15.9281   20.8896 C   0  0  0  0  0  0  0  0  0  0  0  0
   13.7128   17.0775   21.1446 C   0  0  0  0  0  0  0  0  0  0  0  0
   14.0849   17.6235   19.9559 O   0  0  0  0  0  0  0  0  0  0  0  0
   13.5850   16.7482   19.0375 C   0  0  0  0  0  0  0  0  0  0  0  0
   12.9294   15.7238   19.5368 N   0  0  0  0  0  0  0  0  0  0  0  0
    7.9739   14.4309   22.0908 C   0  0  0  0  0  0  0  0  0  0  0  0
    6.5085   14.4730   22.4809 C   0  0  0  0  0  0  0  0  0  0  0  0
    6.1392   14.8340   23.5238 O   0  0  0  0  0  0  0  0  0  0  0  0
    5.7200   13.9272   21.2778 N   0  0  0  0  0  0  0  0  0  0  0  0
    4.3754   13.6335   21.1437 O   0  0  0  0  0  0  0  0  0  0  0  0
    6.2608   13.7598   20.4723 H   0  0  0  0  0  0  0  0  0  0  0  0
    3.9178   13.8256   21.9771 H   0  0  0  0  0  0  0  0  0  0  0  0
 17 16  1  0  0  0
 17 18  1  0  0  0
 18 19  1  0  0  0
 19 20  2  0  0  0
 20 21  1  0  0  0
 21 22  1  0  0  0
 22 23  2  0  0  0
 17 14  1  0  0  0
 14  1  1  0  0  0
  1  2  1  0  0  0
  1 24  1  0  0  0
 24 25  1  0  0  0
 25 26  2  0  0  0
 25 27  1  0  0  0
 27 28  1  0  0  0
  1  4  1  0  0  0
  4  5  2  0  0  0
  5  6  1  0  0  0
  6  7  1  0  0  0
  6  8  1  0  0  0
  8  9  2  0  0  0
  9 10  1  0  0  0
 10 11  2  0  0  0
 11 12  1  0  0  0
 12 13  2  0  0  0
 23 19  1  0  0  0
 13  4  1  0  0  0
 13  8  1  0  0  0
 14 15  1  0  0  0
  2  3  1  0  0  0
 27 29  1  0  0  0
 28 30  1  0  0  0
M  END
> <minimizedAffinity>
-8.13882

> <minimizedRMSD>
0.29334

$$$$
P53476


 24 26  0  0  0  0  0  0  0  0999 V2000
   10.0809   14.0111   21.9430 N   0  0  0  0  0  0  0  0  0  0  0  0
    9.9118   13.8889   23.4646 C   0  0  0  0  0  0  0  0  0  0  0  0
   10.0535   14.6818   24.3065 O   0  0  0  0  0  0  0  0  0  0  0  0
    9.8253   13.2079   21.4343 H   0  0  0  0  0  0  0  0  0  0  0  0
    9.4321   12.5228   23.7573 C   0  0  0  0  0  0  0  0  0  0  0  0
    9.9167   11.4622   23.0821 N   0  0  0  0  0  0  0  0  0  0  0  0
    9.2081   10.4178   23.5391 N   0  0  0  0  0  0  0  0  0  0  0  0
    9.4462    9.1086   22.9755 C   0  0  0  0  0  0  0  0  0  0  0  0
    8.2795   10.7597   24.4888 C   0  0  0  0  0  0  0  0  0  0  0  0
    7.3285   10.0108   25.1844 C   0  0  0  0  0  0  0  0  0  0  0  0
    6.4955   10.6757   26.0869 C   0  0  0  0  0  0  0  0  0  0  0  0
    6.6144   12.0475   26.2884 C   0  0  0  0  0  0  0  0  0  0  0  0
    7.5698   12.7896   25.5851 C   0  0  0  0  0  0  0  0  0  0  0  0
    8.4150   12.1325   24.6694 C   0  0  0  0  0  0  0  0  0  0  0  0
    9.9899   16.4383   21.6474 C   0  0  0  0  0  0  0  0  0  0  0  0
   10.5584   15.1228   21.1287 C   0  0  0  0  0  0  0  0  0  0  0  0
   12.0973   15.0897   21.0427 C   0  0  0  0  0  0  0  0  0  0  0  0
   12.5757   14.7372   22.2692 F   0  0  0  0  0  0  0  0  0  0  0  0
   12.4500   14.0517   20.2265 F   0  0  0  0  0  0  0  0  0  0  0  0
   12.7148   16.3563   20.5654 C   0  0  0  0  0  0  0  0  0  0  0  0
   13.6669   17.1389   21.1782 C   0  0  0  0  0  0  0  0  0  0  0  0
   13.9145   18.2205   20.3888 O   0  0  0  0  0  0  0  0  0  0  0  0
   13.1070   18.0217   19.3094 C   0  0  0  0  0  0  0  0  0  0  0  0
   12.3718   16.9344   19.3597 N   0  0  0  0  0  0  0  0  0  0  0  0
 16 15  1  0  0  0
 16  1  1  0  0  0
  1  2  1  0  0  0
  2  3  2  0  0  0
  2  5  1  0  0  0
  5  6  2  0  0  0
  6  7  1  0  0  0
  7  8  1  0  0  0
  7  9  1  0  0  0
  9 10  2  0  0  0
 10 11  1  0  0  0
 11 12  2  0  0  0
 12 13  1  0  0  0
 13 14  2  0  0  0
 16 17  1  0  0  0
 17 18  1  0  0  0
 17 19  1  0  0  0
 17 20  1  0  0  0
 20 21  2  0  0  0
 21 22  1  0  0  0
 22 23  1  0  0  0
 23 24  2  0  0  0
 14  5  1  0  0  0
 24 20  1  0  0  0
 14  9  1  0  0  0
  1  4  1  0  0  0
M  END
> <minimizedAffinity>
-8.08872

> <minimizedRMSD>
0.68799

$$$$
P53494


 28 30  0  0  0  0  0  0  0  0999 V2000
    9.2235   14.0377   23.2201 C   0  0  0  0  0  0  0  0  0  0  0  0
    8.2261   14.4585   22.3226 O   0  0  0  0  0  0  0  0  0  0  0  0
    9.0988   14.9174   24.3185 O   0  0  0  0  0  0  0  0  0  0  0  0
    8.1146   14.0152   21.5047 H   0  0  0  0  0  0  0  0  0  0  0  0
    9.6698   14.8296   25.0563 H   0  0  0  0  0  0  0  0  0  0  0  0
    8.9466   12.5628   23.6130 C   0  0  0  0  0  0  0  0  0  0  0  0
    9.5350   11.5210   22.9950 N   0  0  0  0  0  0  0  0  0  0  0  0
    8.9969   10.4277   23.5502 N   0  0  0  0  0  0  0  0  0  0  0  0
    9.4196    9.1249   23.0880 C   0  0  0  0  0  0  0  0  0  0  0  0
    8.0574   10.7060   24.5080 C   0  0  0  0  0  0  0  0  0  0  0  0
    7.2500    9.8805   25.2965 C   0  0  0  0  0  0  0  0  0  0  0  0
    6.3550   10.4884   26.1784 C   0  0  0  0  0  0  0  0  0  0  0  0
    6.2770   11.8754   26.2697 C   0  0  0  0  0  0  0  0  0  0  0  0
    7.0954   12.6922   25.4788 C   0  0  0  0  0  0  0  0  0  0  0  0
    8.0021   12.0958   24.5800 C   0  0  0  0  0  0  0  0  0  0  0  0
   10.5608   14.2418   22.7161 N   0  0  0  0  0  0  0  0  0  0  0  0
   11.6192   13.8613   23.6388 C   0  0  0  0  0  0  0  0  0  0  0  0
   10.1867   16.4703   21.4827 C   0  0  0  0  0  0  0  0  0  0  0  0
   10.9112   15.1142   21.5598 C   0  0  0  0  0  0  0  0  0  0  0  0
   12.4481   15.3093   21.4294 C   0  0  0  0  0  0  0  0  0  0  0  0
   12.9765   16.1419   20.3231 C   0  0  0  0  0  0  0  0  0  0  0  0
   12.7066   15.8496   19.0136 N   0  0  0  0  0  0  0  0  0  0  0  0
   13.4101   16.7441   18.3542 C   0  0  0  0  0  0  0  0  0  0  0  0
   14.1100   17.6237   19.1168 O   0  0  0  0  0  0  0  0  0  0  0  0
   13.8571   17.2024   20.3756 C   0  0  0  0  0  0  0  0  0  0  0  0
   14.5007   17.8537   21.3473 N   0  0  0  0  0  0  0  0  0  0  0  0
   15.0965   18.6053   21.1253 H   0  0  0  0  0  0  0  0  0  0  0  0
   14.3795   17.5823   22.2859 H   0  0  0  0  0  0  0  0  0  0  0  0
 19 18  1  0  0  0
 19 20  1  0  0  0
 20 21  1  0  0  0
 21 22  1  0  0  0
 22 23  2  0  0  0
 23 24  1  0  0  0
 24 25  1  0  0  0
 25 26  1  0  0  0
 19 16  1  0  0  0
 16 17  1  0  0  0
 16  1  1  0  0  0
  1  2  1  0  0  0
  1  3  1  0  0  0
  1  6  1  0  0  0
  6  7  2  0  0  0
  7  8  1  0  0  0
  8  9  1  0  0  0
  8 10  1  0  0  0
 10 11  2  0  0  0
 11 12  1  0  0  0
 12 13  2  0  0  0
 13 14  1  0  0  0
 14 15  2  0  0  0
 25 21  2  0  0  0
 15  6  1  0  0  0
 15 10  1  0  0  0
 26 27  1  0  0  0
 26 28  1  0  0  0
  2  4  1  0  0  0
  3  5  1  0  0  0
M  END
> <minimizedAffinity>
-7.56101

> <minimizedRMSD>
0.28940

$$$$
P53507


 23 25  0  0  0  0  0  0  0  0999 V2000
    9.9919   13.5723   23.5190 C   0  0  0  0  0  0  0  0  0  0  0  0
    9.2982   12.2526   23.8273 C   0  0  0  0  0  0  0  0  0  0  0  0
    9.7983   11.1526   23.2424 N   0  0  0  0  0  0  0  0  0  0  0  0
    9.0137   10.1520   23.6516 N   0  0  0  0  0  0  0  0  0  0  0  0
    9.2220    8.8403   23.0909 C   0  0  0  0  0  0  0  0  0  0  0  0
    8.0729   10.5296   24.5706 C   0  0  0  0  0  0  0  0  0  0  0  0
    7.1325    9.7930   25.2995 C   0  0  0  0  0  0  0  0  0  0  0  0
    6.2648   10.4811   26.1457 C   0  0  0  0  0  0  0  0  0  0  0  0
    6.3239   11.8662   26.2383 C   0  0  0  0  0  0  0  0  0  0  0  0
    7.2726   12.5927   25.5042 C   0  0  0  0  0  0  0  0  0  0  0  0
    8.1867   11.9158   24.6686 C   0  0  0  0  0  0  0  0  0  0  0  0
    9.5226   15.3995   25.3872 C   0  0  0  0  0  0  0  0  0  0  0  0
    9.7099   14.5783   24.5355 C   0  0  0  0  0  0  0  0  0  0  0  0
    9.5961   13.9838   22.1706 N   0  0  0  0  0  0  0  0  0  0  0  0
    8.6678   14.4001   22.2450 H   0  0  0  0  0  0  0  0  0  0  0  0
   10.4479   14.9489   21.4383 C   0  0  0  0  0  0  0  0  0  0  0  0
    9.8309   16.3511   21.4811 C   0  0  0  0  0  0  0  0  0  0  0  0
   11.9535   14.9197   21.7818 C   0  0  0  0  0  0  0  0  0  0  0  0
   12.7692   15.7950   20.8999 C   0  0  0  0  0  0  0  0  0  0  0  0
   13.5717   16.8653   21.2189 C   0  0  0  0  0  0  0  0  0  0  0  0
   14.0719   17.3880   20.0650 O   0  0  0  0  0  0  0  0  0  0  0  0
   13.5523   16.5780   19.0993 C   0  0  0  0  0  0  0  0  0  0  0  0
   12.7884   15.6051   19.5414 N   0  0  0  0  0  0  0  0  0  0  0  0
 12 13  3  0  0  0
  1 13  1  0  0  0
  1 14  1  0  0  0
 14 16  1  0  0  0
 16 17  1  0  0  0
 16 18  1  0  0  0
 18 19  1  0  0  0
 19 20  2  0  0  0
 20 21  1  0  0  0
 21 22  1  0  0  0
 22 23  2  0  0  0
  1  2  1  0  0  0
  2  3  2  0  0  0
  3  4  1  0  0  0
  4  5  1  0  0  0
  4  6  1  0  0  0
  6  7  2  0  0  0
  7  8  1  0  0  0
  8  9  2  0  0  0
  9 10  1  0  0  0
 10 11  2  0  0  0
 23 19  1  0  0  0
 11  2  1  0  0  0
 11  6  1  0  0  0
 14 15  1  0  0  0
M  END
> <minimizedAffinity>
-7.71664

> <minimizedRMSD>
0.33350

$$$$
P53818


 13 13  0  0  0  0  0  0  0  0999 V2000
   10.3442   14.9683   21.2528 C   0  0  0  0  0  0  0  0  0  0  0  0
    9.0005   14.6370   21.9383 C   0  0  0  0  0  0  0  0  0  0  0  0
   10.4695   16.4203   21.1722 N   0  0  0  0  0  0  0  0  0  0  0  0
    9.5225   16.7657   20.1280 C   0  0  0  0  0  0  0  0  0  0  0  0
    9.3885   15.6519   19.2390 O   0  0  0  0  0  0  0  0  0  0  0  0
   10.2483   14.6385   19.7505 C   0  0  0  0  0  0  0  0  0  0  0  0
   11.4185   14.5829   18.9165 N   0  0  0  0  0  0  0  0  0  0  0  0
   11.4176   16.6938   20.9139 H   0  0  0  0  0  0  0  0  0  0  0  0
   11.8392   15.5103   18.8586 H   0  0  0  0  0  0  0  0  0  0  0  0
   11.1555   14.2699   17.9820 H   0  0  0  0  0  0  0  0  0  0  0  0
   11.5362   14.2687   21.9164 C   0  0  0  0  0  0  0  0  0  0  0  0
   11.4954   12.9370   24.1476 C   0  0  0  0  0  0  0  0  0  0  0  0
   11.5990   14.2791   23.4427 C   0  0  0  0  0  0  0  0  0  0  0  0
 12 13  1  0  0  0
 13 11  1  0  0  0
 11  1  1  0  0  0
  1  2  1  0  0  0
  1  3  1  0  0  0
  3  4  1  0  0  0
  4  5  1  0  0  0
  5  6  1  0  0  0
  6  7  1  0  0  0
  6  1  1  0  0  0
  3  8  1  0  0  0
  7  9  1  0  0  0
  7 10  1  0  0  0
M  END
> <minimizedAffinity>
-5.03775

> <minimizedRMSD>
0.35013

$$$$
P54413


 25 27  0  0  0  0  0  0  0  0999 V2000
    8.7891   11.9774   24.7092 C   0  0  0  0  0  0  0  0  0  0  0  0
    8.0797   10.7800   24.8751 C   0  0  0  0  0  0  0  0  0  0  0  0
    8.5387    9.6177   24.2714 C   0  0  0  0  0  0  0  0  0  0  0  0
    9.6605    9.6643   23.4509 C   0  0  0  0  0  0  0  0  0  0  0  0
   10.3600   10.8614   23.2827 C   0  0  0  0  0  0  0  0  0  0  0  0
    9.9679   12.0193   23.9600 C   0  0  0  0  0  0  0  0  0  0  0  0
   10.8901   13.1937   24.0171 C   0  0  0  0  0  0  0  0  0  0  0  0
   11.0107   13.7244   25.0433 O   0  0  0  0  0  0  0  0  0  0  0  0
   11.5864   13.4505   22.6806 N   0  0  0  0  0  0  0  0  0  0  0  0
   11.3634   12.8072   21.9695 H   0  0  0  0  0  0  0  0  0  0  0  0
   12.5142   14.4786   22.2927 C   0  0  0  0  0  0  0  0  0  0  0  0
   12.6814   14.6672   20.7976 C   0  0  0  0  0  0  0  0  0  0  0  0
   11.4922   15.2683   20.1558 C   0  0  0  0  0  0  0  0  0  0  0  0
   11.0542   15.1474   18.8616 C   0  0  0  0  0  0  0  0  0  0  0  0
    9.9917   15.9811   18.6979 O   0  0  0  0  0  0  0  0  0  0  0  0
    9.8708   16.6009   19.8995 C   0  0  0  0  0  0  0  0  0  0  0  0
   10.6914   16.1635   20.8217 N   0  0  0  0  0  0  0  0  0  0  0  0
    8.4684   13.6452   26.3412 O   0  0  0  0  0  0  0  0  0  0  0  0
    8.1538   13.1934   25.2427 C   0  0  0  0  0  0  0  0  0  0  0  0
    6.9756   13.7593   24.4614 C   0  0  0  0  0  0  0  0  0  0  0  0
    7.2522   13.7801   23.0078 N   0  0  0  0  0  0  0  0  0  0  0  0
    8.0777   14.9283   22.6330 C   0  0  0  0  0  0  0  0  0  0  0  0
    7.1044   16.0719   22.5691 C   0  0  0  0  0  0  0  0  0  0  0  0
    5.7495   15.4680   22.2539 C   0  0  0  0  0  0  0  0  0  0  0  0
    5.9990   13.9845   22.2617 C   0  0  0  0  0  0  0  0  0  0  0  0
 18 19  2  0  0  0
 19 20  1  0  0  0
 20 21  1  0  0  0
 21 22  1  0  0  0
 22 23  1  0  0  0
 23 24  1  0  0  0
 24 25  1  0  0  0
 19  1  1  0  0  0
  1  2  2  0  0  0
  2  3  1  0  0  0
  3  4  2  0  0  0
  4  5  1  0  0  0
  5  6  2  0  0  0
  6  7  1  0  0  0
  7  8  2  0  0  0
  7  9  1  0  0  0
  9 11  1  0  0  0
 11 12  1  0  0  0
 12 13  1  0  0  0
 13 14  2  0  0  0
 14 15  1  0  0  0
 15 16  1  0  0  0
 16 17  2  0  0  0
 25 21  1  0  0  0
  6  1  1  0  0  0
 17 13  1  0  0  0
  9 10  1  0  0  0
M  END
> <minimizedAffinity>
-6.28286

> <minimizedRMSD>
0.55382

$$$$
P54414


 18 19  0  0  0  0  0  0  0  0999 V2000
   10.3255   14.0986   24.9469 O   0  0  0  0  0  0  0  0  0  0  0  0
   10.5811   13.3229   24.1191 C   0  0  0  0  0  0  0  0  0  0  0  0
   11.5680   13.4031   22.9582 N   0  0  0  0  0  0  0  0  0  0  0  0
   11.6566   12.5739   22.4349 H   0  0  0  0  0  0  0  0  0  0  0  0
    9.8301   12.0466   24.0789 C   0  0  0  0  0  0  0  0  0  0  0  0
   10.2210   10.9875   23.2533 C   0  0  0  0  0  0  0  0  0  0  0  0
    9.5971    9.7478   23.3786 C   0  0  0  0  0  0  0  0  0  0  0  0
    8.5517    9.5907   24.2874 C   0  0  0  0  0  0  0  0  0  0  0  0
    8.1182   10.6785   25.0442 C   0  0  0  0  0  0  0  0  0  0  0  0
    6.6490   10.5110   26.2047 Br  0  0  0  0  0  0  0  0  0  0  0  0
    8.7612   11.9039   24.9595 C   0  0  0  0  0  0  0  0  0  0  0  0
   12.3875   14.4888   22.5048 C   0  0  0  0  0  0  0  0  0  0  0  0
   12.5278   14.5451   20.9949 C   0  0  0  0  0  0  0  0  0  0  0  0
   11.3555   15.1697   20.3374 C   0  0  0  0  0  0  0  0  0  0  0  0
   11.0747   15.2987   19.0010 C   0  0  0  0  0  0  0  0  0  0  0  0
    9.9409   16.0426   18.8795 O   0  0  0  0  0  0  0  0  0  0  0  0
    9.6072   16.3506   20.1599 C   0  0  0  0  0  0  0  0  0  0  0  0
   10.3810   15.8087   21.0665 N   0  0  0  0  0  0  0  0  0  0  0  0
  1  2  2  0  0  0
  2  3  1  0  0  0
  3 12  1  0  0  0
 12 13  1  0  0  0
 13 14  1  0  0  0
 14 15  2  0  0  0
 15 16  1  0  0  0
 16 17  1  0  0  0
 17 18  2  0  0  0
  2  5  1  0  0  0
  5  6  2  0  0  0
  6  7  1  0  0  0
  7  8  2  0  0  0
  8  9  1  0  0  0
  9 10  1  0  0  0
  9 11  2  0  0  0
 18 14  1  0  0  0
 11  5  1  0  0  0
  3  4  1  0  0  0
M  END
> <minimizedAffinity>
-6.88332

> <minimizedRMSD>
1.22248

$$$$
P54415


 18 19  0  0  0  0  0  0  0  0999 V2000
   10.2852   13.9060   24.9543 O   0  0  0  0  0  0  0  0  0  0  0  0
   10.4925   13.2116   24.0416 C   0  0  0  0  0  0  0  0  0  0  0  0
   11.4930   13.3577   22.8869 N   0  0  0  0  0  0  0  0  0  0  0  0
   11.5288   12.5888   22.2731 H   0  0  0  0  0  0  0  0  0  0  0  0
    9.7175   11.9367   23.9636 C   0  0  0  0  0  0  0  0  0  0  0  0
   10.2028   10.8342   23.2502 C   0  0  0  0  0  0  0  0  0  0  0  0
    9.5992    9.5861   23.4057 C   0  0  0  0  0  0  0  0  0  0  0  0
    8.5079    9.4402   24.2631 C   0  0  0  0  0  0  0  0  0  0  0  0
    8.0014   10.5448   24.9457 C   0  0  0  0  0  0  0  0  0  0  0  0
    6.7118   10.3219   26.0719 Cl  0  0  0  0  0  0  0  0  0  0  0  0
    8.5907   11.7972   24.7877 C   0  0  0  0  0  0  0  0  0  0  0  0
   12.3882   14.4365   22.5548 C   0  0  0  0  0  0  0  0  0  0  0  0
   12.6187   14.6436   21.0636 C   0  0  0  0  0  0  0  0  0  0  0  0
   11.4341   15.1911   20.3628 C   0  0  0  0  0  0  0  0  0  0  0  0
   11.1577   15.2384   19.0185 C   0  0  0  0  0  0  0  0  0  0  0  0
   10.0014   15.9387   18.8522 O   0  0  0  0  0  0  0  0  0  0  0  0
    9.6511   16.3041   20.1129 C   0  0  0  0  0  0  0  0  0  0  0  0
   10.4373   15.8377   21.0505 N   0  0  0  0  0  0  0  0  0  0  0  0
  1  2  2  0  0  0
  2  3  1  0  0  0
  3 12  1  0  0  0
 12 13  1  0  0  0
 13 14  1  0  0  0
 14 15  2  0  0  0
 15 16  1  0  0  0
 16 17  1  0  0  0
 17 18  2  0  0  0
  2  5  1  0  0  0
  5  6  2  0  0  0
  6  7  1  0  0  0
  7  8  2  0  0  0
  8  9  1  0  0  0
  9 10  1  0  0  0
  9 11  2  0  0  0
 18 14  1  0  0  0
 11  5  1  0  0  0
  3  4  1  0  0  0
M  END
> <minimizedAffinity>
-7.10720

> <minimizedRMSD>
0.98849

$$$$
P54491


 23 24  0  0  0  0  0  0  0  0999 V2000
   10.2400   13.2940   23.6276 C   0  0  0  0  0  0  0  0  0  0  0  0
   10.8173   13.7447   24.8335 O   0  0  0  0  0  0  0  0  0  0  0  0
    9.3320   14.2133   23.0916 O   0  0  0  0  0  0  0  0  0  0  0  0
   11.4415   13.2095   25.2828 H   0  0  0  0  0  0  0  0  0  0  0  0
    8.8870   14.0193   22.2902 H   0  0  0  0  0  0  0  0  0  0  0  0
    7.9722   13.3197   25.6886 C   0  0  0  0  0  0  0  0  0  0  0  0
    8.4079   12.0637   24.9730 C   0  0  0  0  0  0  0  0  0  0  0  0
    7.7337   10.8738   25.3022 C   0  0  0  0  0  0  0  0  0  0  0  0
    8.0907    9.6609   24.7221 C   0  0  0  0  0  0  0  0  0  0  0  0
    9.1238    9.6165   23.7978 C   0  0  0  0  0  0  0  0  0  0  0  0
    9.8004   10.7871   23.4523 C   0  0  0  0  0  0  0  0  0  0  0  0
    9.4735   12.0313   24.0278 C   0  0  0  0  0  0  0  0  0  0  0  0
   11.3285   13.1141   22.6916 N   0  0  0  0  0  0  0  0  0  0  0  0
   11.0468   13.4875   21.7851 H   0  0  0  0  0  0  0  0  0  0  0  0
   12.5401   13.7907   23.1193 C   0  0  0  0  0  0  0  0  0  0  0  0
   12.9820   14.7761   22.1660 N   0  0  0  0  0  0  0  0  0  0  0  0
   13.9999   14.8099   22.2209 H   0  0  0  0  0  0  0  0  0  0  0  0
   12.6351   14.6036   20.7595 C   0  0  0  0  0  0  0  0  0  0  0  0
   11.4295   15.2595   20.2450 C   0  0  0  0  0  0  0  0  0  0  0  0
   11.0225   15.3093   18.9436 C   0  0  0  0  0  0  0  0  0  0  0  0
    9.9215   16.0922   18.8627 O   0  0  0  0  0  0  0  0  0  0  0  0
    9.6401   16.3769   20.1454 C   0  0  0  0  0  0  0  0  0  0  0  0
   10.5229   15.9332   21.0045 N   0  0  0  0  0  0  0  0  0  0  0  0
  6  7  1  0  0  0
  7  8  2  0  0  0
  8  9  1  0  0  0
  9 10  2  0  0  0
 10 11  1  0  0  0
 11 12  2  0  0  0
 12  1  1  0  0  0
  1  2  1  0  0  0
  1  3  1  0  0  0
  1 13  1  0  0  0
 13 15  1  0  0  0
 15 16  1  0  0  0
 16 18  1  0  0  0
 18 19  1  0  0  0
 19 20  2  0  0  0
 20 21  1  0  0  0
 21 22  1  0  0  0
 22 23  2  0  0  0
 12  7  1  0  0  0
 23 19  1  0  0  0
  2  4  1  0  0  0
  3  5  1  0  0  0
 13 14  1  0  0  0
 16 17  1  0  0  0
M  END
> <minimizedAffinity>
-6.98641

> <minimizedRMSD>
1.01694

$$$$
P55680


 32 33  0  0  0  0  0  0  0  0999 V2000
    8.4561   13.9032   23.3744 C   0  0  0  0  0  0  0  0  0  0  0  0
    7.3805   14.4589   23.1645 O   0  0  0  0  0  0  0  0  0  0  0  0
    7.5077   12.5103   25.1839 C   0  0  0  0  0  0  0  0  0  0  0  0
    7.0967   11.2287   25.5226 C   0  0  0  0  0  0  0  0  0  0  0  0
    5.9627   10.9657   26.7978 Cl  0  0  0  0  0  0  0  0  0  0  0  0
    7.6636   10.1180   24.8813 C   0  0  0  0  0  0  0  0  0  0  0  0
    8.6678   10.2634   23.9143 C   0  0  0  0  0  0  0  0  0  0  0  0
    9.3010    9.0929   23.2258 C   0  0  0  0  0  0  0  0  0  0  0  0
    9.0339   11.5446   23.5294 C   0  0  0  0  0  0  0  0  0  0  0  0
    8.4304   12.6509   24.1383 C   0  0  0  0  0  0  0  0  0  0  0  0
    7.7727   14.8171   26.5155 C   0  0  0  0  0  0  0  0  0  0  0  0
    8.9166   14.9821   26.6928 O   0  0  0  0  0  0  0  0  0  0  0  0
    7.0196   13.6405   25.8407 N   0  0  0  0  0  0  0  0  0  0  0  0
    6.0379   13.7012   25.8828 H   0  0  0  0  0  0  0  0  0  0  0  0
    6.7318   15.8911   26.8651 C   0  0  0  0  0  0  0  0  0  0  0  0
    4.5299   16.3747   26.2704 C   0  0  0  0  0  0  0  0  0  0  0  0
    5.8692   16.2534   25.7966 O   0  0  0  0  0  0  0  0  0  0  0  0
    9.6616   14.3596   22.6804 C   0  0  0  0  0  0  0  0  0  0  0  0
   10.9331   14.3045   23.2528 C   0  0  0  0  0  0  0  0  0  0  0  0
   12.0284   14.6680   22.4823 C   0  0  0  0  0  0  0  0  0  0  0  0
   11.8407   15.0849   21.1623 C   0  0  0  0  0  0  0  0  0  0  0  0
   10.5541   15.1608   20.5849 C   0  0  0  0  0  0  0  0  0  0  0  0
    9.4689   14.8009   21.3728 C   0  0  0  0  0  0  0  0  0  0  0  0
   10.3044   15.7907   19.2379 C   0  0  0  0  0  0  0  0  0  0  0  0
   11.4236   15.7251   18.3848 N   0  0  0  0  0  0  0  0  0  0  0  0
    9.9355   17.1436   19.4257 N   0  0  0  0  0  0  0  0  0  0  0  0
    9.2379   15.3247   18.5058 O   0  0  0  0  0  0  0  0  0  0  0  0
   12.2491   16.0615   18.8806 H   0  0  0  0  0  0  0  0  0  0  0  0
   11.2595   16.3071   17.5634 H   0  0  0  0  0  0  0  0  0  0  0  0
   10.6561   17.6205   19.9676 H   0  0  0  0  0  0  0  0  0  0  0  0
    9.0482   17.1877   19.9270 H   0  0  0  0  0  0  0  0  0  0  0  0
    9.3693   14.3847   18.3055 H   0  0  0  0  0  0  0  0  0  0  0  0
 16 17  1  0  0  0
 17 15  1  0  0  0
 15 11  1  0  0  0
 11 12  2  0  0  0
 11 13  1  0  0  0
 13  3  1  0  0  0
  3  4  2  0  0  0
  4  5  1  0  0  0
  4  6  1  0  0  0
  6  7  2  0  0  0
  7  8  1  0  0  0
  7  9  1  0  0  0
  9 10  2  0  0  0
 10  1  1  0  0  0
  1  2  2  0  0  0
  1 18  1  0  0  0
 18 19  2  0  0  0
 19 20  1  0  0  0
 20 21  2  0  0  0
 21 22  1  0  0  0
 22 24  1  0  0  0
 24 25  1  0  0  0
 24 26  1  0  0  0
 24 27  1  0  0  0
 22 23  2  0  0  0
 10  3  1  0  0  0
 23 18  1  0  0  0
 13 14  1  0  0  0
 25 28  1  0  0  0
 25 29  1  0  0  0
 26 30  1  0  0  0
 26 31  1  0  0  0
 27 32  1  0  0  0
M  END
> <minimizedAffinity>
-7.55374

> <minimizedRMSD>
0.46938

$$$$
P55724


 31 31  0  0  0  0  0  0  0  0999 V2000
    7.0996   12.4368   25.4424 C   0  0  0  0  0  0  0  0  0  0  0  0
    6.8772   11.0651   25.6487 C   0  0  0  0  0  0  0  0  0  0  0  0
    5.7938   10.5388   26.8926 Cl  0  0  0  0  0  0  0  0  0  0  0  0
    7.6216   10.0867   24.9529 C   0  0  0  0  0  0  0  0  0  0  0  0
    8.5563   10.4638   23.9960 C   0  0  0  0  0  0  0  0  0  0  0  0
    8.5943   11.7934   23.6617 C   0  0  0  0  0  0  0  0  0  0  0  0
    7.9454   12.7808   24.3977 C   0  0  0  0  0  0  0  0  0  0  0  0
    7.1748   14.5538   27.1033 C   0  0  0  0  0  0  0  0  0  0  0  0
    8.2938   14.8889   27.1833 O   0  0  0  0  0  0  0  0  0  0  0  0
    6.5284   13.3644   26.3253 N   0  0  0  0  0  0  0  0  0  0  0  0
    5.5633   13.2465   26.4797 H   0  0  0  0  0  0  0  0  0  0  0  0
    6.0473   15.2178   27.8987 C   0  0  0  0  0  0  0  0  0  0  0  0
    4.8364   16.5539   26.4034 C   0  0  0  0  0  0  0  0  0  0  0  0
    4.8502   15.3416   27.1536 O   0  0  0  0  0  0  0  0  0  0  0  0
    9.6293    9.6508   23.3431 C   0  0  0  0  0  0  0  0  0  0  0  0
    9.3434    7.9476   23.2310 S   0  0  0  0  0  0  0  0  0  0  0  0
    9.2711    7.4168   24.4811 H   0  0  0  0  0  0  0  0  0  0  0  0
    8.1139   14.1262   23.8412 C   0  0  0  0  0  0  0  0  0  0  0  0
    7.1140   14.8100   23.6682 O   0  0  0  0  0  0  0  0  0  0  0  0
    9.5060   14.4704   23.3206 C   0  0  0  0  0  0  0  0  0  0  0  0
   10.4393   15.0197   24.3808 C   0  0  0  0  0  0  0  0  0  0  0  0
    9.3962   15.0357   21.9124 C   0  0  0  0  0  0  0  0  0  0  0  0
   10.6392   15.5315   21.1671 C   0  0  0  0  0  0  0  0  0  0  0  0
   10.1492   15.7986   19.7191 C   0  0  0  0  0  0  0  0  0  0  0  0
   11.9880   14.7622   21.2100 C   0  0  0  0  0  0  0  0  0  0  0  0
   12.0789   13.5291   22.0764 C   0  0  0  0  0  0  0  0  0  0  0  0
   12.4403   14.4031   19.8861 N   0  0  0  0  0  0  0  0  0  0  0  0
   12.9500   15.6341   21.7703 O   0  0  0  0  0  0  0  0  0  0  0  0
   11.7643   13.7725   19.4553 H   0  0  0  0  0  0  0  0  0  0  0  0
   13.3459   13.9383   19.9506 H   0  0  0  0  0  0  0  0  0  0  0  0
   12.6712   15.8924   22.6628 H   0  0  0  0  0  0  0  0  0  0  0  0
 13 14  1  0  0  0
 14 12  1  0  0  0
 12  8  1  0  0  0
  8  9  2  0  0  0
  8 10  1  0  0  0
 10  1  1  0  0  0
  1  2  2  0  0  0
  2  3  1  0  0  0
  2  4  1  0  0  0
  4  5  2  0  0  0
  5 15  1  0  0  0
 15 16  1  0  0  0
  5  6  1  0  0  0
  6  7  2  0  0  0
  7 18  1  0  0  0
 18 19  2  0  0  0
 18 20  1  0  0  0
 20 21  1  0  0  0
 20 22  1  0  0  0
 22 23  1  0  0  0
 23 24  1  0  0  0
 23 25  1  0  0  0
 25 26  1  0  0  0
 25 27  1  0  0  0
 25 28  1  0  0  0
  7  1  1  0  0  0
 10 11  1  0  0  0
 16 17  1  0  0  0
 27 29  1  0  0  0
 27 30  1  0  0  0
 28 31  1  0  0  0
M  END
> <minimizedAffinity>
-5.05066

> <minimizedRMSD>
0.46048

$$$$
P55730


 31 32  0  0  0  0  0  0  0  0999 V2000
    7.1526   12.8882   25.3988 C   0  0  0  0  0  0  0  0  0  0  0  0
    6.6560   11.6600   25.8370 C   0  0  0  0  0  0  0  0  0  0  0  0
    7.1790   10.4845   25.2460 C   0  0  0  0  0  0  0  0  0  0  0  0
    8.2033   10.5139   24.2858 C   0  0  0  0  0  0  0  0  0  0  0  0
    8.7745    9.2684   23.6757 C   0  0  0  0  0  0  0  0  0  0  0  0
    8.6654   11.7457   23.8470 C   0  0  0  0  0  0  0  0  0  0  0  0
    8.1307   12.9184   24.3895 C   0  0  0  0  0  0  0  0  0  0  0  0
    7.3730   15.2043   26.7230 C   0  0  0  0  0  0  0  0  0  0  0  0
    8.4629   15.2577   27.1462 O   0  0  0  0  0  0  0  0  0  0  0  0
    6.6599   14.0835   25.9138 N   0  0  0  0  0  0  0  0  0  0  0  0
    5.7051   14.2460   25.7374 H   0  0  0  0  0  0  0  0  0  0  0  0
    6.3882   16.3787   26.8081 C   0  0  0  0  0  0  0  0  0  0  0  0
    4.1535   16.8407   26.3193 C   0  0  0  0  0  0  0  0  0  0  0  0
    5.3887   16.3610   25.7955 O   0  0  0  0  0  0  0  0  0  0  0  0
    8.3325   14.1468   23.6111 C   0  0  0  0  0  0  0  0  0  0  0  0
    7.3374   14.7791   23.2657 O   0  0  0  0  0  0  0  0  0  0  0  0
    9.6421   14.4886   23.0490 C   0  0  0  0  0  0  0  0  0  0  0  0
   10.8527   14.3133   23.7053 C   0  0  0  0  0  0  0  0  0  0  0  0
   12.0343   14.5336   22.9966 C   0  0  0  0  0  0  0  0  0  0  0  0
   12.0110   14.9092   21.6481 C   0  0  0  0  0  0  0  0  0  0  0  0
   10.7965   15.0450   20.9880 C   0  0  0  0  0  0  0  0  0  0  0  0
    9.6153   14.8812   21.7212 C   0  0  0  0  0  0  0  0  0  0  0  0
   10.6179   15.2004   19.5083 C   0  0  0  0  0  0  0  0  0  0  0  0
   11.5232   14.5251   18.6038 N   0  0  0  0  0  0  0  0  0  0  0  0
   12.4433   14.9625   18.6542 H   0  0  0  0  0  0  0  0  0  0  0  0
   11.1659   14.5937   17.6509 H   0  0  0  0  0  0  0  0  0  0  0  0
   10.3888   16.6130   19.1600 N   0  0  0  0  0  0  0  0  0  0  0  0
    9.5221   17.0878   19.8980 O   0  0  0  0  0  0  0  0  0  0  0  0
    5.5738   11.5284   26.8905 C   0  0  0  0  0  0  0  0  0  0  0  0
    5.9951   11.6287   28.3551 C   0  0  0  0  0  0  0  0  0  0  0  0
    5.4822   10.0006   29.3057 Br  0  0  0  0  0  0  0  0  0  0  0  0
 13 14  1  0  0  0
 14 12  1  0  0  0
 12  8  1  0  0  0
  8  9  2  0  0  0
  8 10  1  0  0  0
 10  1  1  0  0  0
  1  2  2  0  0  0
  2 29  1  0  0  0
 29 30  1  0  0  0
 30 31  1  0  0  0
  2  3  1  0  0  0
  3  4  2  0  0  0
  4  5  1  0  0  0
  4  6  1  0  0  0
  6  7  2  0  0  0
  7 15  1  0  0  0
 15 16  2  0  0  0
 15 17  1  0  0  0
 17 18  2  0  0  0
 18 19  1  0  0  0
 19 20  2  0  0  0
 20 21  1  0  0  0
 21 23  1  0  0  0
 23 24  1  0  0  0
 23 27  1  0  0  0
 27 28  2  0  0  0
 21 22  2  0  0  0
  7  1  1  0  0  0
 22 17  1  0  0  0
 10 11  1  0  0  0
 24 25  1  0  0  0
 24 26  1  0  0  0
M  END
> <minimizedAffinity>
-7.62210

> <minimizedRMSD>
0.66035

$$$$
P56101


 29 30  0  0  0  0  0  0  0  0999 V2000
   10.6574   13.8946   23.5909 C   0  0  0  0  0  0  0  0  0  0  0  0
   10.5121   13.8024   24.9837 O   0  0  0  0  0  0  0  0  0  0  0  0
   12.0318   13.6866   23.4018 O   0  0  0  0  0  0  0  0  0  0  0  0
    9.6670   13.9074   25.3745 H   0  0  0  0  0  0  0  0  0  0  0  0
   12.3930   13.6997   22.5373 H   0  0  0  0  0  0  0  0  0  0  0  0
   10.2441   15.1987   23.1459 N   0  0  0  0  0  0  0  0  0  0  0  0
   11.0266   16.2876   23.7336 C   0  0  0  0  0  0  0  0  0  0  0  0
   12.4301   16.4578   23.1535 C   0  0  0  0  0  0  0  0  0  0  0  0
   12.4046   16.5375   21.6343 C   0  0  0  0  0  0  0  0  0  0  0  0
   11.5516   15.4228   20.9837 C   0  0  0  0  0  0  0  0  0  0  0  0
   10.1804   15.3622   21.6787 C   0  0  0  0  0  0  0  0  0  0  0  0
   11.4723   15.6256   19.4598 C   0  0  0  0  0  0  0  0  0  0  0  0
   10.9030   14.5853   18.7006 N   0  0  0  0  0  0  0  0  0  0  0  0
   10.7476   16.7646   19.1325 O   0  0  0  0  0  0  0  0  0  0  0  0
   12.7417   15.7570   18.9121 O   0  0  0  0  0  0  0  0  0  0  0  0
    9.9536   14.4061   19.0275 H   0  0  0  0  0  0  0  0  0  0  0  0
   11.4644   13.7403   18.8070 H   0  0  0  0  0  0  0  0  0  0  0  0
    9.8603   16.8539   19.4198 H   0  0  0  0  0  0  0  0  0  0  0  0
   13.3759   15.0776   19.0312 H   0  0  0  0  0  0  0  0  0  0  0  0
   10.0965   12.7075   23.0378 N   0  0  0  0  0  0  0  0  0  0  0  0
   10.4207   12.4790   22.1367 H   0  0  0  0  0  0  0  0  0  0  0  0
    7.3822   11.1627   25.0649 C   0  0  0  0  0  0  0  0  0  0  0  0
    7.5790    9.8265   24.7193 C   0  0  0  0  0  0  0  0  0  0  0  0
    8.5569    9.4843   23.7985 C   0  0  0  0  0  0  0  0  0  0  0  0
    9.3382   10.4777   23.2257 C   0  0  0  0  0  0  0  0  0  0  0  0
    9.1745   11.8283   23.5595 C   0  0  0  0  0  0  0  0  0  0  0  0
    8.1808   12.1598   24.4867 C   0  0  0  0  0  0  0  0  0  0  0  0
    5.6144   11.6528   26.8964 N   0  0  0  0  0  0  0  0  0  0  0  0
    6.3853   11.4719   26.0468 C   0  0  0  0  0  0  0  0  0  0  0  0
 28 29  3  0  0  0
 29 22  1  0  0  0
 22 23  2  0  0  0
 23 24  1  0  0  0
 24 25  2  0  0  0
 25 26  1  0  0  0
 26 20  1  0  0  0
 20  1  1  0  0  0
  1  2  1  0  0  0
  1  3  1  0  0  0
  1  6  1  0  0  0
  6  7  1  0  0  0
  7  8  1  0  0  0
  8  9  1  0  0  0
  9 10  1  0  0  0
 10 12  1  0  0  0
 12 13  1  0  0  0
 12 14  1  0  0  0
 12 15  1  0  0  0
 10 11  1  0  0  0
 26 27  2  0  0  0
 27 22  1  0  0  0
 11  6  1  0  0  0
 20 21  1  0  0  0
  2  4  1  0  0  0
  3  5  1  0  0  0
 13 16  1  0  0  0
 13 17  1  0  0  0
 14 18  1  0  0  0
 15 19  1  0  0  0
M  END
> <minimizedAffinity>
-7.81520

> <minimizedRMSD>
0.28542

$$$$
P56424


 30 33  0  0  0  0  0  0  0  0999 V2000
    3.8810   13.8779   25.6488 C   0  0  0  0  0  0  0  0  0  0  0  0
    4.7446   13.1384   26.6541 C   0  0  0  0  0  0  0  0  0  0  0  0
    4.1437   12.7709   27.7427 N   0  0  0  0  0  0  0  0  0  0  0  0
    4.8305   12.1513   28.7462 C   0  0  0  0  0  0  0  0  0  0  0  0
    5.3593   10.9111   28.7457 C   0  0  0  0  0  0  0  0  0  0  0  0
    5.4073   10.1075   27.5327 C   0  0  0  0  0  0  0  0  0  0  0  0
    5.9969   10.4261   26.3672 C   0  0  0  0  0  0  0  0  0  0  0  0
    6.7193   11.6694   26.0614 C   0  0  0  0  0  0  0  0  0  0  0  0
    7.9901   11.5930   25.4536 C   0  0  0  0  0  0  0  0  0  0  0  0
    8.7077   12.7467   25.0984 C   0  0  0  0  0  0  0  0  0  0  0  0
    8.1534   14.0074   25.3289 C   0  0  0  0  0  0  0  0  0  0  0  0
    6.8938   14.0836   25.9441 C   0  0  0  0  0  0  0  0  0  0  0  0
    6.1698   12.9354   26.2773 C   0  0  0  0  0  0  0  0  0  0  0  0
    5.8571   10.3067   29.9023 N   0  0  0  0  0  0  0  0  0  0  0  0
    6.7817    9.9687   29.9059 H   0  0  0  0  0  0  0  0  0  0  0  0
    5.0323   10.1602   31.1229 C   0  0  0  0  0  0  0  0  0  0  0  0
    4.8288    8.6741   31.4261 C   0  0  0  0  0  0  0  0  0  0  0  0
    5.6183   10.9617   32.2980 C   0  0  0  0  0  0  0  0  0  0  0  0
    7.0936   11.1435   32.2907 C   0  0  0  0  0  0  0  0  0  0  0  0
    7.8221   12.3099   32.2283 C   0  0  0  0  0  0  0  0  0  0  0  0
    9.1447   11.9916   32.2581 O   0  0  0  0  0  0  0  0  0  0  0  0
    9.1457   10.6348   32.3669 C   0  0  0  0  0  0  0  0  0  0  0  0
    7.9559   10.0789   32.4130 N   0  0  0  0  0  0  0  0  0  0  0  0
    8.6959   15.2729   24.7142 C   0  0  0  0  0  0  0  0  0  0  0  0
    9.8726   15.2326   23.8208 C   0  0  0  0  0  0  0  0  0  0  0  0
   10.0705   15.8264   22.5989 C   0  0  0  0  0  0  0  0  0  0  0  0
   11.4522   15.7151   22.3685 C   0  0  0  0  0  0  0  0  0  0  0  0
   12.2049   16.3625   21.2711 C   0  0  0  0  0  0  0  0  0  0  0  0
   12.0515   15.0071   23.3374 N   0  0  0  0  0  0  0  0  0  0  0  0
   11.0491   14.7174   24.2627 O   0  0  0  0  0  0  0  0  0  0  0  0
  1  2  1  0  0  0
  2  3  2  0  0  0
  3  4  1  0  0  0
  4  5  2  0  0  0
  5 14  1  0  0  0
 14 16  1  0  0  0
 16 17  1  0  0  0
 16 18  1  0  0  0
 18 19  1  0  0  0
 19 20  2  0  0  0
 20 21  1  0  0  0
 21 22  1  0  0  0
 22 23  2  0  0  0
  5  6  1  0  0  0
  6  7  2  0  0  0
  7  8  1  0  0  0
  8  9  2  0  0  0
  9 10  1  0  0  0
 10 11  2  0  0  0
 11 24  1  0  0  0
 24 25  1  0  0  0
 25 26  2  0  0  0
 26 27  1  0  0  0
 27 28  1  0  0  0
 27 29  2  0  0  0
 29 30  1  0  0  0
 11 12  1  0  0  0
 12 13  2  0  0  0
 13  2  1  0  0  0
 23 19  1  0  0  0
 13  8  1  0  0  0
 30 25  1  0  0  0
 14 15  1  0  0  0
M  END
> <minimizedAffinity>
-6.01344

> <minimizedRMSD>
1.60232

$$$$
P56433


 27 31  0  0  0  0  0  0  0  0999 V2000
   12.1168   14.3667   24.4055 C   0  0  0  0  0  0  0  0  0  0  0  0
   11.4127   14.1611   23.0866 C   0  0  0  0  0  0  0  0  0  0  0  0
   11.7831   15.1978   22.0105 C   0  0  0  0  0  0  0  0  0  0  0  0
   10.5630   15.2128   21.0332 C   0  0  0  0  0  0  0  0  0  0  0  0
    9.5726   14.2731   21.7463 C   0  0  0  0  0  0  0  0  0  0  0  0
    9.9774   14.3606   23.1516 N   0  0  0  0  0  0  0  0  0  0  0  0
   11.0280   14.7463   19.7152 N   0  0  0  0  0  0  0  0  0  0  0  0
   10.3859   15.6332   18.7751 C   0  0  0  0  0  0  0  0  0  0  0  0
   10.0533   16.8546   19.3940 O   0  0  0  0  0  0  0  0  0  0  0  0
    9.9050   16.6019   20.7793 C   0  0  0  0  0  0  0  0  0  0  0  0
    8.4933   16.7432   21.0623 N   0  0  0  0  0  0  0  0  0  0  0  0
   10.7432   13.7804   19.5528 H   0  0  0  0  0  0  0  0  0  0  0  0
    7.9602   16.1266   20.4491 H   0  0  0  0  0  0  0  0  0  0  0  0
    8.2096   17.7098   20.9025 H   0  0  0  0  0  0  0  0  0  0  0  0
    9.1353   13.8812   24.1153 C   0  0  0  0  0  0  0  0  0  0  0  0
    8.5105   14.6869   24.9236 N   0  0  0  0  0  0  0  0  0  0  0  0
    7.4475   14.2266   25.8729 C   0  0  0  0  0  0  0  0  0  0  0  0
    7.1614   12.7522   25.8918 C   0  0  0  0  0  0  0  0  0  0  0  0
    6.2435   12.0594   26.6810 C   0  0  0  0  0  0  0  0  0  0  0  0
    6.1356   10.6620   26.5707 C   0  0  0  0  0  0  0  0  0  0  0  0
    6.9285    9.9174   25.6733 C   0  0  0  0  0  0  0  0  0  0  0  0
    7.8429   10.6272   24.9017 C   0  0  0  0  0  0  0  0  0  0  0  0
    7.9250   11.9890   25.0271 C   0  0  0  0  0  0  0  0  0  0  0  0
    8.8976   12.4431   24.1525 C   0  0  0  0  0  0  0  0  0  0  0  0
    9.4639   11.4273   23.4894 N   0  0  0  0  0  0  0  0  0  0  0  0
    8.7927   10.3296   23.9511 N   0  0  0  0  0  0  0  0  0  0  0  0
    9.1552    9.0240   23.4511 C   0  0  0  0  0  0  0  0  0  0  0  0
  2  1  1  0  0  0
  2  3  1  0  0  0
  4  3  1  0  0  0
  4  5  1  0  0  0
  5  6  1  0  0  0
  6 15  1  0  0  0
 15 16  2  0  0  0
 16 17  1  0  0  0
 17 18  1  0  0  0
 18 19  2  0  0  0
 19 20  1  0  0  0
 20 21  2  0  0  0
 21 22  1  0  0  0
 22 23  2  0  0  0
 23 24  1  0  0  0
 24 25  2  0  0  0
 25 26  1  0  0  0
 26 27  1  0  0  0
  4  7  1  0  0  0
  7  8  1  0  0  0
  8  9  1  0  0  0
  9 10  1  0  0  0
 10 11  1  0  0  0
  6  2  1  0  0  0
 24 15  1  0  0  0
 10  4  1  0  0  0
 23 18  1  0  0  0
 26 22  1  0  0  0
  7 12  1  0  0  0
 11 13  1  0  0  0
 11 14  1  0  0  0
M  END
> <minimizedAffinity>
-9.72408

> <minimizedRMSD>
0.18719

$$$$
P56434


 38 41  0  0  0  0  0  0  0  0999 V2000
   10.0705   13.6605   23.6369 C   0  0  0  0  0  0  0  0  0  0  0  0
   11.1232   13.5283   22.6019 N   0  0  0  0  0  0  0  0  0  0  0  0
   11.8421   12.8827   22.9286 H   0  0  0  0  0  0  0  0  0  0  0  0
   11.5417   14.4414   22.4241 H   0  0  0  0  0  0  0  0  0  0  0  0
    9.3978   12.3365   23.8982 C   0  0  0  0  0  0  0  0  0  0  0  0
    9.8689   11.2245   23.3168 N   0  0  0  0  0  0  0  0  0  0  0  0
    9.0939   10.2341   23.7897 N   0  0  0  0  0  0  0  0  0  0  0  0
    9.3388    8.8867   23.3353 C   0  0  0  0  0  0  0  0  0  0  0  0
    8.1469   10.6607   24.6830 C   0  0  0  0  0  0  0  0  0  0  0  0
    7.1916    9.9774   25.4385 C   0  0  0  0  0  0  0  0  0  0  0  0
    6.3460   10.7235   26.2611 C   0  0  0  0  0  0  0  0  0  0  0  0
    6.4587   12.1098   26.3249 C   0  0  0  0  0  0  0  0  0  0  0  0
    7.3916   12.7818   25.5298 C   0  0  0  0  0  0  0  0  0  0  0  0
    8.2814   12.0446   24.7303 C   0  0  0  0  0  0  0  0  0  0  0  0
    5.4973   12.9375   26.9816 N   0  0  0  0  0  0  0  0  0  0  0  0
    4.9758   13.5982   26.4710 H   0  0  0  0  0  0  0  0  0  0  0  0
    5.2681   12.7672   28.6431 S   0  0  0  0  0  0  0  0  0  0  0  0
    4.6677   14.3906   29.0479 C   0  0  0  0  0  0  0  0  0  0  0  0
    6.5462   12.5930   29.3005 O   0  0  0  0  0  0  0  0  0  0  0  0
    4.1858   11.8202   28.8212 O   0  0  0  0  0  0  0  0  0  0  0  0
   10.6137   14.2552   24.9425 C   0  0  0  0  0  0  0  0  0  0  0  0
    9.8022   14.7966   25.7116 O   0  0  0  0  0  0  0  0  0  0  0  0
   11.9932   16.1113   26.9923 C   0  0  0  0  0  0  0  0  0  0  0  0
   12.3652   14.6670   26.7806 C   0  0  0  0  0  0  0  0  0  0  0  0
   13.7337   14.2654   27.4502 C   0  0  0  0  0  0  0  0  0  0  0  0
   14.5078   13.0050   26.8751 C   0  0  0  0  0  0  0  0  0  0  0  0
   14.1315   12.8072   25.3818 C   0  0  0  0  0  0  0  0  0  0  0  0
   12.7252   12.9285   25.0086 N   0  0  0  0  0  0  0  0  0  0  0  0
   12.1461   14.2508   25.2849 C   0  0  0  0  0  0  0  0  0  0  0  0
   14.2937   11.8655   27.8086 N   0  0  0  0  0  0  0  0  0  0  0  0
   15.2164   12.1344   28.9185 C   0  0  0  0  0  0  0  0  0  0  0  0
   16.2895   12.9302   28.4193 O   0  0  0  0  0  0  0  0  0  0  0  0
   16.0725   12.9158   27.0191 C   0  0  0  0  0  0  0  0  0  0  0  0
   16.6785   11.6796   26.5040 N   0  0  0  0  0  0  0  0  0  0  0  0
   12.1938   12.2304   25.5289 H   0  0  0  0  0  0  0  0  0  0  0  0
   14.5195   10.9795   27.3564 H   0  0  0  0  0  0  0  0  0  0  0  0
   16.2945   10.8783   27.0051 H   0  0  0  0  0  0  0  0  0  0  0  0
   17.6887   11.7136   26.6405 H   0  0  0  0  0  0  0  0  0  0  0  0
 24 23  1  0  0  0
 24 25  1  0  0  0
 26 25  1  0  0  0
 26 27  1  0  0  0
 27 28  1  0  0  0
 28 29  1  0  0  0
 29 21  1  0  0  0
 21 22  2  0  0  0
 21  1  1  0  0  0
  1  2  1  0  0  0
  1  5  1  0  0  0
  5  6  2  0  0  0
  6  7  1  0  0  0
  7  8  1  0  0  0
  7  9  1  0  0  0
  9 10  2  0  0  0
 10 11  1  0  0  0
 11 12  2  0  0  0
 12 15  1  0  0  0
 15 17  1  0  0  0
 17 18  1  0  0  0
 17 19  2  0  0  0
 17 20  2  0  0  0
 12 13  1  0  0  0
 13 14  2  0  0  0
 26 30  1  0  0  0
 30 31  1  0  0  0
 31 32  1  0  0  0
 32 33  1  0  0  0
 33 34  1  0  0  0
 29 24  1  0  0  0
 14  5  1  0  0  0
 33 26  1  0  0  0
 14  9  1  0  0  0
 28 35  1  0  0  0
  2  3  1  0  0  0
  2  4  1  0  0  0
 15 16  1  0  0  0
 30 36  1  0  0  0
 34 37  1  0  0  0
 34 38  1  0  0  0
M  END
> <minimizedAffinity>
-6.86648

> <minimizedRMSD>
0.47156

$$$$
P56471


 29 31  0  0  0  0  0  0  0  0999 V2000
    9.0379   13.7209   23.2526 C   0  0  0  0  0  0  0  0  0  0  0  0
    8.4834   13.8814   21.9798 O   0  0  0  0  0  0  0  0  0  0  0  0
    8.7618   14.7343   21.6111 H   0  0  0  0  0  0  0  0  0  0  0  0
    8.6092   12.3825   23.8476 C   0  0  0  0  0  0  0  0  0  0  0  0
    9.1916   11.2770   23.3328 N   0  0  0  0  0  0  0  0  0  0  0  0
    8.6374   10.2610   23.9951 N   0  0  0  0  0  0  0  0  0  0  0  0
    9.0188    8.9212   23.6195 C   0  0  0  0  0  0  0  0  0  0  0  0
    7.7305   10.6594   24.9421 C   0  0  0  0  0  0  0  0  0  0  0  0
    6.9126    9.9443   25.8138 C   0  0  0  0  0  0  0  0  0  0  0  0
    6.0901   10.6417   26.6998 C   0  0  0  0  0  0  0  0  0  0  0  0
    6.0854   12.0275   26.7134 C   0  0  0  0  0  0  0  0  0  0  0  0
    6.8960   12.7393   25.8246 C   0  0  0  0  0  0  0  0  0  0  0  0
    7.7183   12.0504   24.9059 C   0  0  0  0  0  0  0  0  0  0  0  0
    7.5498   15.5783   23.6300 C   0  0  0  0  0  0  0  0  0  0  0  0
    8.7278   14.8390   24.1069 N   0  0  0  0  0  0  0  0  0  0  0  0
    8.5423   14.4938   25.0486 H   0  0  0  0  0  0  0  0  0  0  0  0
   10.4678   13.5812   23.1710 N   0  0  0  0  0  0  0  0  0  0  0  0
   10.6405   13.0278   22.3318 H   0  0  0  0  0  0  0  0  0  0  0  0
   11.4033   14.6851   23.1067 C   0  0  0  0  0  0  0  0  0  0  0  0
   12.4957   14.1811   24.0516 C   0  0  0  0  0  0  0  0  0  0  0  0
   12.0228   15.0179   21.7308 C   0  0  0  0  0  0  0  0  0  0  0  0
   11.0619   15.5680   20.7461 C   0  0  0  0  0  0  0  0  0  0  0  0
   10.1436   16.5202   21.1139 N   0  0  0  0  0  0  0  0  0  0  0  0
    9.4880   16.7763   20.0079 C   0  0  0  0  0  0  0  0  0  0  0  0
    9.8989   16.0623   18.9254 O   0  0  0  0  0  0  0  0  0  0  0  0
   10.9149   15.2973   19.4037 C   0  0  0  0  0  0  0  0  0  0  0  0
   11.5431   14.5148   18.5178 N   0  0  0  0  0  0  0  0  0  0  0  0
   11.2417   14.4915   17.5809 H   0  0  0  0  0  0  0  0  0  0  0  0
   12.3065   13.9626   18.8032 H   0  0  0  0  0  0  0  0  0  0  0  0
 14 15  1  0  0  0
 15  1  1  0  0  0
  1  2  1  0  0  0
  1 17  1  0  0  0
 17 19  1  0  0  0
 19 20  1  0  0  0
 19 21  1  0  0  0
 21 22  1  0  0  0
 22 23  1  0  0  0
 23 24  2  0  0  0
 24 25  1  0  0  0
 25 26  1  0  0  0
 26 27  1  0  0  0
  1  4  1  0  0  0
  4  5  2  0  0  0
  5  6  1  0  0  0
  6  7  1  0  0  0
  6  8  1  0  0  0
  8  9  2  0  0  0
  9 10  1  0  0  0
 10 11  2  0  0  0
 11 12  1  0  0  0
 12 13  2  0  0  0
 26 22  2  0  0  0
 13  4  1  0  0  0
 13  8  1  0  0  0
 15 16  1  0  0  0
  2  3  1  0  0  0
 17 18  1  0  0  0
 27 28  1  0  0  0
 27 29  1  0  0  0
M  END
> <minimizedAffinity>
-8.38926

> <minimizedRMSD>
0.30717

$$$$
P57629


 30 32  0  0  0  0  0  0  0  0999 V2000
    5.9236   15.4221   24.5640 C   0  0  0  0  0  0  0  0  0  0  0  0
    4.6332   15.3711   25.3126 N   0  0  0  0  0  0  0  0  0  0  0  0
    3.8513   16.6002   25.3375 C   0  0  0  0  0  0  0  0  0  0  0  0
    2.4149   16.4148   25.8320 C   0  0  0  0  0  0  0  0  0  0  0  0
    2.3479   15.5466   27.0851 C   0  0  0  0  0  0  0  0  0  0  0  0
    3.3006   14.3367   27.0161 C   0  0  0  0  0  0  0  0  0  0  0  0
    3.8990   14.1626   25.6042 C   0  0  0  0  0  0  0  0  0  0  0  0
    2.6204   13.0705   27.5150 C   0  0  0  0  0  0  0  0  0  0  0  0
    1.4697   12.8572   26.8269 F   0  0  0  0  0  0  0  0  0  0  0  0
    6.0920   14.9461   22.7647 S   0  0  0  0  0  0  0  0  0  0  0  0
    6.1410   13.5164   22.5609 O   0  0  0  0  0  0  0  0  0  0  0  0
    7.1477   15.7538   22.1913 O   0  0  0  0  0  0  0  0  0  0  0  0
    4.6900   15.4976   22.0756 N   0  0  0  0  0  0  0  0  0  0  0  0
    4.8992   15.6966   21.0973 H   0  0  0  0  0  0  0  0  0  0  0  0
    3.5041   14.6589   22.0910 C   0  0  0  0  0  0  0  0  0  0  0  0
    3.0197   14.4154   20.7053 C   0  0  0  0  0  0  0  0  0  0  0  0
    1.9998   14.9741   20.0738 N   0  0  0  0  0  0  0  0  0  0  0  0
    1.9928   14.3379   18.8526 C   0  0  0  0  0  0  0  0  0  0  0  0
    3.0468   13.4609   18.7717 C   0  0  0  0  0  0  0  0  0  0  0  0
    3.5854   12.5753   17.7308 C   0  0  0  0  0  0  0  0  0  0  0  0
    3.7057   13.4904   19.9654 O   0  0  0  0  0  0  0  0  0  0  0  0
    7.2314   15.0197   25.3310 C   0  0  0  0  0  0  0  0  0  0  0  0
    7.2764   15.6283   26.7436 C   0  0  0  0  0  0  0  0  0  0  0  0
    9.8173   11.0041   23.6462 C   0  0  0  0  0  0  0  0  0  0  0  0
    8.7875   11.6466   24.5127 C   0  0  0  0  0  0  0  0  0  0  0  0
    8.0326   10.8301   25.3398 C   0  0  0  0  0  0  0  0  0  0  0  0
    7.0517   11.3298   26.1749 C   0  0  0  0  0  0  0  0  0  0  0  0
    6.8538   12.6906   26.2248 C   0  0  0  0  0  0  0  0  0  0  0  0
    7.5540   13.5458   25.3697 C   0  0  0  0  0  0  0  0  0  0  0  0
    8.5484   13.0156   24.5287 C   0  0  0  0  0  0  0  0  0  0  0  0
 24 25  1  0  0  0
 25 26  2  0  0  0
 26 27  1  0  0  0
 27 28  2  0  0  0
 28 29  1  0  0  0
 29 22  1  0  0  0
 22 23  1  0  0  0
 22  1  1  0  0  0
  1  2  1  0  0  0
  2  3  1  0  0  0
  3  4  1  0  0  0
  4  5  1  0  0  0
  5  6  1  0  0  0
  6  8  1  0  0  0
  8  9  1  0  0  0
  6  7  1  0  0  0
  1 10  1  0  0  0
 10 11  2  0  0  0
 10 12  2  0  0  0
 10 13  1  0  0  0
 13 15  1  0  0  0
 15 16  1  0  0  0
 16 17  2  0  0  0
 17 18  1  0  0  0
 18 19  2  0  0  0
 19 20  1  0  0  0
 19 21  1  0  0  0
 29 30  2  0  0  0
 30 25  1  0  0  0
  7  2  1  0  0  0
 21 16  1  0  0  0
 13 14  1  0  0  0
M  END
> <minimizedAffinity>
-6.27878

> <minimizedRMSD>
0.77855

$$$$
P57640


 32 34  0  0  0  0  0  0  0  0999 V2000
    8.5237   14.3402   24.5585 C   0  0  0  0  0  0  0  0  0  0  0  0
    8.7357   14.9374   26.0106 C   0  0  0  0  0  0  0  0  0  0  0  0
    9.8450    9.6628   23.3849 C   0  0  0  0  0  0  0  0  0  0  0  0
    9.0309   10.5633   24.2417 C   0  0  0  0  0  0  0  0  0  0  0  0
    8.1356   10.1271   25.1768 C   0  0  0  0  0  0  0  0  0  0  0  0
    7.2856   10.9779   25.8734 C   0  0  0  0  0  0  0  0  0  0  0  0
    7.3531   12.3338   25.6359 C   0  0  0  0  0  0  0  0  0  0  0  0
    8.3233   12.8380   24.7639 C   0  0  0  0  0  0  0  0  0  0  0  0
    9.1484   11.9154   24.1124 C   0  0  0  0  0  0  0  0  0  0  0  0
    9.7691   14.6326   23.7624 N   0  0  0  0  0  0  0  0  0  0  0  0
   11.0605   14.4319   24.4532 C   0  0  0  0  0  0  0  0  0  0  0  0
   12.2317   14.1930   23.4979 C   0  0  0  0  0  0  0  0  0  0  0  0
   12.1760   15.1563   22.3169 C   0  0  0  0  0  0  0  0  0  0  0  0
   10.8304   15.1401   21.6071 C   0  0  0  0  0  0  0  0  0  0  0  0
    9.8758   14.2183   22.3468 C   0  0  0  0  0  0  0  0  0  0  0  0
   10.9652   14.7651   20.1381 C   0  0  0  0  0  0  0  0  0  0  0  0
    9.8348   15.3444   19.3125 C   0  0  0  0  0  0  0  0  0  0  0  0
    9.4315   16.6268   19.7600 O   0  0  0  0  0  0  0  0  0  0  0  0
    9.1040   16.5633   20.6709 H   0  0  0  0  0  0  0  0  0  0  0  0
    7.1762   15.0331   24.1397 C   0  0  0  0  0  0  0  0  0  0  0  0
    6.6538   14.9271   22.4577 S   0  0  0  0  0  0  0  0  0  0  0  0
    6.6483   13.5434   22.0364 O   0  0  0  0  0  0  0  0  0  0  0  0
    7.3585   15.9437   21.7096 O   0  0  0  0  0  0  0  0  0  0  0  0
    5.0994   15.4946   22.5185 N   0  0  0  0  0  0  0  0  0  0  0  0
    4.9829   16.1155   21.7176 H   0  0  0  0  0  0  0  0  0  0  0  0
    3.9770   14.5693   22.4962 C   0  0  0  0  0  0  0  0  0  0  0  0
    3.4067   14.4037   21.1308 C   0  0  0  0  0  0  0  0  0  0  0  0
    2.3840   15.0464   20.5896 N   0  0  0  0  0  0  0  0  0  0  0  0
    2.2175   14.4215   19.3743 C   0  0  0  0  0  0  0  0  0  0  0  0
    3.1965   13.4755   19.1934 C   0  0  0  0  0  0  0  0  0  0  0  0
    3.5632   12.5659   18.0972 C   0  0  0  0  0  0  0  0  0  0  0  0
    3.9633   13.4473   20.3242 O   0  0  0  0  0  0  0  0  0  0  0  0
  3  4  1  0  0  0
  4  5  2  0  0  0
  5  6  1  0  0  0
  6  7  2  0  0  0
  7  8  1  0  0  0
  8  1  1  0  0  0
  1  2  1  0  0  0
  1 20  1  0  0  0
 20 21  1  0  0  0
 21 22  2  0  0  0
 21 23  2  0  0  0
 21 24  1  0  0  0
 24 26  1  0  0  0
 26 27  1  0  0  0
 27 28  2  0  0  0
 28 29  1  0  0  0
 29 30  2  0  0  0
 30 31  1  0  0  0
 30 32  1  0  0  0
  1 10  1  0  0  0
 10 11  1  0  0  0
 11 12  1  0  0  0
 12 13  1  0  0  0
 13 14  1  0  0  0
 14 16  1  0  0  0
 16 17  1  0  0  0
 17 18  1  0  0  0
 14 15  1  0  0  0
  8  9  2  0  0  0
  9  4  1  0  0  0
 32 27  1  0  0  0
 15 10  1  0  0  0
 24 25  1  0  0  0
 18 19  1  0  0  0
M  END
> <minimizedAffinity>
-6.17302

> <minimizedRMSD>
0.20612

$$$$
P58797


 29 31  0  0  0  0  0  0  0  0999 V2000
    6.4224   13.8249   26.6280 C   0  0  0  0  0  0  0  0  0  0  0  0
    7.2550   12.8967   25.7820 C   0  0  0  0  0  0  0  0  0  0  0  0
    6.9242   11.5292   25.8084 C   0  0  0  0  0  0  0  0  0  0  0  0
    7.6291   10.6200   25.0407 C   0  0  0  0  0  0  0  0  0  0  0  0
    8.7473   11.0549   24.3489 C   0  0  0  0  0  0  0  0  0  0  0  0
    9.1704   12.4054   24.4022 C   0  0  0  0  0  0  0  0  0  0  0  0
    8.3273   13.3649   24.9804 C   0  0  0  0  0  0  0  0  0  0  0  0
    8.4457   14.7728   24.8307 N   0  0  0  0  0  0  0  0  0  0  0  0
    8.8013   15.5517   23.7531 C   0  0  0  0  0  0  0  0  0  0  0  0
    8.4017   16.7170   23.7650 O   0  0  0  0  0  0  0  0  0  0  0  0
    9.6247   15.0087   22.5993 C   0  0  0  0  0  0  0  0  0  0  0  0
    9.3203   15.5800   21.2307 C   0  0  0  0  0  0  0  0  0  0  0  0
   10.5201   14.9792   20.4815 C   0  0  0  0  0  0  0  0  0  0  0  0
   11.6491   15.4806   21.3644 C   0  0  0  0  0  0  0  0  0  0  0  0
   11.0883   15.1951   22.6845 N   0  0  0  0  0  0  0  0  0  0  0  0
   11.8747   14.6005   23.6109 C   0  0  0  0  0  0  0  0  0  0  0  0
   13.0943   14.6617   23.6767 O   0  0  0  0  0  0  0  0  0  0  0  0
   11.2283   13.8187   24.5068 N   0  0  0  0  0  0  0  0  0  0  0  0
   10.5918   12.6477   23.9655 C   0  0  0  0  0  0  0  0  0  0  0  0
    8.2354   15.2838   25.6455 H   0  0  0  0  0  0  0  0  0  0  0  0
   11.1957   14.0372   25.4662 H   0  0  0  0  0  0  0  0  0  0  0  0
   10.5928   15.2487   19.0114 C   0  0  0  0  0  0  0  0  0  0  0  0
    9.4983   14.6013   18.3760 N   0  0  0  0  0  0  0  0  0  0  0  0
   10.4809   16.5979   18.7574 O   0  0  0  0  0  0  0  0  0  0  0  0
   11.7258   14.6990   18.4181 O   0  0  0  0  0  0  0  0  0  0  0  0
    8.6231   14.9555   18.7620 H   0  0  0  0  0  0  0  0  0  0  0  0
    9.5584   13.5958   18.5363 H   0  0  0  0  0  0  0  0  0  0  0  0
    9.7572   17.0815   19.1044 H   0  0  0  0  0  0  0  0  0  0  0  0
   11.9116   13.7862   18.5194 H   0  0  0  0  0  0  0  0  0  0  0  0
  1  2  1  0  0  0
  2  3  2  0  0  0
  3  4  1  0  0  0
  4  5  2  0  0  0
  5  6  1  0  0  0
  6  7  2  0  0  0
  7  8  1  0  0  0
  8  9  1  0  0  0
  9 10  2  0  0  0
  9 11  1  0  0  0
 11 12  1  0  0  0
 12 13  1  0  0  0
 13 22  1  0  0  0
 22 23  1  0  0  0
 22 24  1  0  0  0
 22 25  1  0  0  0
 13 14  1  0  0  0
 14 15  1  0  0  0
 15 16  1  0  0  0
 16 17  2  0  0  0
 16 18  1  0  0  0
 18 19  1  0  0  0
  7  2  1  0  0  0
 15 11  1  0  0  0
 19  6  1  0  0  0
  8 20  1  0  0  0
 23 26  1  0  0  0
 23 27  1  0  0  0
 24 28  1  0  0  0
 25 29  1  0  0  0
 18 21  1  0  0  0
M  END
> <minimizedAffinity>
-9.31075

> <minimizedRMSD>
0.82755

$$$$
P59537


 33 35  0  0  0  0  0  0  0  0999 V2000
    8.6773   14.4660   22.7066 C   0  0  0  0  0  0  0  0  0  0  0  0
    9.9291   14.4999   23.6598 C   0  0  0  0  0  0  0  0  0  0  0  0
   11.2603   14.1141   22.9886 C   0  0  0  0  0  0  0  0  0  0  0  0
   11.5436   14.9630   21.7601 C   0  0  0  0  0  0  0  0  0  0  0  0
   10.3890   14.8459   20.7770 C   0  0  0  0  0  0  0  0  0  0  0  0
    9.0681   15.2505   21.4138 C   0  0  0  0  0  0  0  0  0  0  0  0
    7.1930   14.9138   22.8738 C   0  0  0  0  0  0  0  0  0  0  0  0
    6.8562   15.8431   23.7891 N   0  0  0  0  0  0  0  0  0  0  0  0
    5.5444   16.1999   23.8822 C   0  0  0  0  0  0  0  0  0  0  0  0
    4.5056   15.6741   23.1504 C   0  0  0  0  0  0  0  0  0  0  0  0
    4.8301   14.7640   22.1843 C   0  0  0  0  0  0  0  0  0  0  0  0
    6.1683   14.4033   22.0359 C   0  0  0  0  0  0  0  0  0  0  0  0
    6.4064   13.5126   21.0375 O   0  0  0  0  0  0  0  0  0  0  0  0
    5.6984   13.2018   20.5082 H   0  0  0  0  0  0  0  0  0  0  0  0
   10.6505   15.6054   19.4872 C   0  0  0  0  0  0  0  0  0  0  0  0
    9.4719   15.9984   18.9543 F   0  0  0  0  0  0  0  0  0  0  0  0
   11.2286   14.7596   18.5974 F   0  0  0  0  0  0  0  0  0  0  0  0
    8.6112   13.0630   22.4801 O   0  0  0  0  0  0  0  0  0  0  0  0
    7.7737   12.0841   24.6506 C   0  0  0  0  0  0  0  0  0  0  0  0
    7.4897   10.8180   25.1583 C   0  0  0  0  0  0  0  0  0  0  0  0
    6.3152   10.5780   26.4132 Cl  0  0  0  0  0  0  0  0  0  0  0  0
    8.1723    9.7074   24.6805 C   0  0  0  0  0  0  0  0  0  0  0  0
    9.1559    9.8095   23.7137 C   0  0  0  0  0  0  0  0  0  0  0  0
    9.9386    8.6354   23.2391 C   0  0  0  0  0  0  0  0  0  0  0  0
    9.3423   11.0395   23.1271 C   0  0  0  0  0  0  0  0  0  0  0  0
    8.5903   12.1514   23.5114 C   0  0  0  0  0  0  0  0  0  0  0  0
    7.8162   14.0349   26.5020 C   0  0  0  0  0  0  0  0  0  0  0  0
    8.8992   14.0621   26.9527 O   0  0  0  0  0  0  0  0  0  0  0  0
    7.2126   13.1420   25.3638 N   0  0  0  0  0  0  0  0  0  0  0  0
    6.2873   13.3646   25.1118 H   0  0  0  0  0  0  0  0  0  0  0  0
    6.6855   14.9555   27.0180 C   0  0  0  0  0  0  0  0  0  0  0  0
    5.1950   15.5226   28.7276 C   0  0  0  0  0  0  0  0  0  0  0  0
    6.1882   14.6008   28.2959 O   0  0  0  0  0  0  0  0  0  0  0  0
 32 33  1  0  0  0
 33 31  1  0  0  0
 31 27  1  0  0  0
 27 28  2  0  0  0
 27 29  1  0  0  0
 29 19  1  0  0  0
 19 20  2  0  0  0
 20 21  1  0  0  0
 20 22  1  0  0  0
 22 23  2  0  0  0
 23 24  1  0  0  0
 23 25  1  0  0  0
 25 26  2  0  0  0
 26 18  1  0  0  0
  1 18  1  0  0  0
  1  7  1  0  0  0
  7  8  2  0  0  0
  8  9  1  0  0  0
  9 10  2  0  0  0
 10 11  1  0  0  0
 11 12  2  0  0  0
 12 13  1  0  0  0
  1  2  1  0  0  0
  2  3  1  0  0  0
  3  4  1  0  0  0
  4  5  1  0  0  0
  5 15  1  0  0  0
 15 16  1  0  0  0
 15 17  1  0  0  0
  5  6  1  0  0  0
 26 19  1  0  0  0
  6  1  1  0  0  0
 12  7  1  0  0  0
 29 30  1  0  0  0
 13 14  1  0  0  0
M  END
> <minimizedAffinity>
-6.99677

> <minimizedRMSD>
0.43225

$$$$
P59549


 33 35  0  0  0  0  0  0  0  0999 V2000
    8.3235   14.1876   23.7014 N   0  0  0  0  0  0  0  0  0  0  0  0
    7.3354   12.8315   25.5612 C   0  0  0  0  0  0  0  0  0  0  0  0
    6.9822   11.5556   26.0265 C   0  0  0  0  0  0  0  0  0  0  0  0
    6.0486   11.3565   27.4734 Cl  0  0  0  0  0  0  0  0  0  0  0  0
    7.4450   10.4045   25.3912 C   0  0  0  0  0  0  0  0  0  0  0  0
    8.2555   10.4816   24.2720 C   0  0  0  0  0  0  0  0  0  0  0  0
    8.8262    9.2561   23.6227 C   0  0  0  0  0  0  0  0  0  0  0  0
    8.5497   11.7500   23.7804 C   0  0  0  0  0  0  0  0  0  0  0  0
    8.0662   12.9573   24.3672 C   0  0  0  0  0  0  0  0  0  0  0  0
    7.8789   14.9626   27.1055 C   0  0  0  0  0  0  0  0  0  0  0  0
    9.0440   15.0225   27.2147 O   0  0  0  0  0  0  0  0  0  0  0  0
    6.9839   13.9169   26.3647 N   0  0  0  0  0  0  0  0  0  0  0  0
    6.0151   14.0449   26.4844 H   0  0  0  0  0  0  0  0  0  0  0  0
    6.9092   16.0362   27.6510 C   0  0  0  0  0  0  0  0  0  0  0  0
    7.1805   17.7538   29.2235 C   0  0  0  0  0  0  0  0  0  0  0  0
    7.5224   17.2810   27.9339 O   0  0  0  0  0  0  0  0  0  0  0  0
    9.5269   14.2240   22.9445 N   0  0  0  0  0  0  0  0  0  0  0  0
   10.7143   14.3200   23.7975 C   0  0  0  0  0  0  0  0  0  0  0  0
   11.9954   14.2390   22.9856 C   0  0  0  0  0  0  0  0  0  0  0  0
   11.9706   15.2059   21.8134 C   0  0  0  0  0  0  0  0  0  0  0  0
   10.7339   14.9043   20.9583 C   0  0  0  0  0  0  0  0  0  0  0  0
    9.5007   15.1300   21.8039 C   0  0  0  0  0  0  0  0  0  0  0  0
   10.6164   15.6808   19.6520 C   0  0  0  0  0  0  0  0  0  0  0  0
   11.3414   14.9799   18.5254 C   0  0  0  0  0  0  0  0  0  0  0  0
   12.0829   13.8795   18.9900 O   0  0  0  0  0  0  0  0  0  0  0  0
   12.7521   14.1844   19.6226 H   0  0  0  0  0  0  0  0  0  0  0  0
    7.2086   15.1502   23.4254 C   0  0  0  0  0  0  0  0  0  0  0  0
    5.9749   14.6612   22.6857 C   0  0  0  0  0  0  0  0  0  0  0  0
    6.0883   13.8773   21.5894 N   0  0  0  0  0  0  0  0  0  0  0  0
    4.9493   13.6526   20.8971 C   0  0  0  0  0  0  0  0  0  0  0  0
    3.7176   14.1410   21.2550 C   0  0  0  0  0  0  0  0  0  0  0  0
    3.7030   14.9104   22.3874 C   0  0  0  0  0  0  0  0  0  0  0  0
    4.8066   15.2090   23.0960 N   0  0  0  0  0  0  0  0  0  0  0  0
 15 16  1  0  0  0
 16 14  1  0  0  0
 14 10  1  0  0  0
 10 11  2  0  0  0
 10 12  1  0  0  0
 12  2  1  0  0  0
  2  3  2  0  0  0
  3  4  1  0  0  0
  3  5  1  0  0  0
  5  6  2  0  0  0
  6  7  1  0  0  0
  6  8  1  0  0  0
  8  9  2  0  0  0
  9  1  1  0  0  0
  1 27  1  0  0  0
 27 28  1  0  0  0
 28 29  2  0  0  0
 29 30  1  0  0  0
 30 31  2  0  0  0
 31 32  1  0  0  0
 32 33  2  0  0  0
  1 17  1  0  0  0
 17 18  1  0  0  0
 18 19  1  0  0  0
 19 20  1  0  0  0
 20 21  1  0  0  0
 21 23  1  0  0  0
 23 24  1  0  0  0
 24 25  1  0  0  0
 21 22  1  0  0  0
  9  2  1  0  0  0
 33 28  1  0  0  0
 22 17  1  0  0  0
 12 13  1  0  0  0
 25 26  1  0  0  0
M  END
> <minimizedAffinity>
-7.95557

> <minimizedRMSD>
0.68993

$$$$
P60395


 27 28  0  0  0  0  0  0  0  0999 V2000
    9.6023   14.7935   22.5419 C   0  0  0  0  0  0  0  0  0  0  0  0
   10.5723   15.5303   23.2029 C   0  0  0  0  0  0  0  0  0  0  0  0
   11.4981   16.2784   22.5663 N   0  0  0  0  0  0  0  0  0  0  0  0
   11.4614   16.2604   21.2048 C   0  0  0  0  0  0  0  0  0  0  0  0
   10.5110   15.5758   20.4454 C   0  0  0  0  0  0  0  0  0  0  0  0
    9.5350   14.8780   21.1559 C   0  0  0  0  0  0  0  0  0  0  0  0
   10.6318   15.4217   18.9534 C   0  0  0  0  0  0  0  0  0  0  0  0
   11.5909   14.4246   18.6253 N   0  0  0  0  0  0  0  0  0  0  0  0
   11.0004   16.5934   18.3490 O   0  0  0  0  0  0  0  0  0  0  0  0
    9.4473   15.0663   18.3253 O   0  0  0  0  0  0  0  0  0  0  0  0
   12.4809   14.6495   19.0698 H   0  0  0  0  0  0  0  0  0  0  0  0
   11.7149   14.3919   17.6134 H   0  0  0  0  0  0  0  0  0  0  0  0
   11.7859   17.0303   18.6138 H   0  0  0  0  0  0  0  0  0  0  0  0
    9.0000   14.2826   18.5777 H   0  0  0  0  0  0  0  0  0  0  0  0
    8.7463   13.7912   23.1939 C   0  0  0  0  0  0  0  0  0  0  0  0
    7.7250   13.3640   22.6609 O   0  0  0  0  0  0  0  0  0  0  0  0
    9.2048   13.1135   24.4612 C   0  0  0  0  0  0  0  0  0  0  0  0
   10.3763   13.1146   24.8013 O   0  0  0  0  0  0  0  0  0  0  0  0
    9.1782   10.2061   24.1112 C   0  0  0  0  0  0  0  0  0  0  0  0
    8.2403   10.9120   25.0565 C   0  0  0  0  0  0  0  0  0  0  0  0
    7.3191   10.1722   25.8070 C   0  0  0  0  0  0  0  0  0  0  0  0
    6.3911   10.8107   26.6383 C   0  0  0  0  0  0  0  0  0  0  0  0
    6.3942   12.2038   26.7546 C   0  0  0  0  0  0  0  0  0  0  0  0
    7.3189   12.9585   26.0382 C   0  0  0  0  0  0  0  0  0  0  0  0
    8.2343   12.3083   25.2049 C   0  0  0  0  0  0  0  0  0  0  0  0
    5.4133   10.0489   27.3527 C   0  0  0  0  0  0  0  0  0  0  0  0
    4.5921    9.4858   27.9465 N   0  0  0  0  0  0  0  0  0  0  0  0
 19 20  1  0  0  0
 20 21  2  0  0  0
 21 22  1  0  0  0
 22 26  1  0  0  0
 26 27  3  0  0  0
 22 23  2  0  0  0
 23 24  1  0  0  0
 24 25  2  0  0  0
 25 17  1  0  0  0
 17 18  2  0  0  0
 17 15  1  0  0  0
 15 16  2  0  0  0
 15  1  1  0  0  0
  1  2  2  0  0  0
  2  3  1  0  0  0
  3  4  2  0  0  0
  4  5  1  0  0  0
  5  7  1  0  0  0
  7  8  1  0  0  0
  7  9  1  0  0  0
  7 10  1  0  0  0
  5  6  2  0  0  0
 25 20  1  0  0  0
  6  1  1  0  0  0
  8 11  1  0  0  0
  8 12  1  0  0  0
  9 13  1  0  0  0
 10 14  1  0  0  0
M  END
> <minimizedAffinity>
-7.67649

> <minimizedRMSD>
0.37782

$$$$
P60402


 27 28  0  0  0  0  0  0  0  0999 V2000
   10.3149   14.9986   22.6989 C   0  0  0  0  0  0  0  0  0  0  0  0
   11.5381   15.3380   23.2514 C   0  0  0  0  0  0  0  0  0  0  0  0
   12.5991   15.7320   22.5140 N   0  0  0  0  0  0  0  0  0  0  0  0
   12.4162   15.7985   21.1688 C   0  0  0  0  0  0  0  0  0  0  0  0
   11.2488   15.4265   20.5025 C   0  0  0  0  0  0  0  0  0  0  0  0
   10.1679   15.0786   21.3150 C   0  0  0  0  0  0  0  0  0  0  0  0
   11.1598   15.4485   19.0004 C   0  0  0  0  0  0  0  0  0  0  0  0
   10.5596   14.3360   18.3742 N   0  0  0  0  0  0  0  0  0  0  0  0
   10.3577   16.5234   18.6526 O   0  0  0  0  0  0  0  0  0  0  0  0
   12.3909   15.5463   18.3715 O   0  0  0  0  0  0  0  0  0  0  0  0
    9.6344   14.1791   18.7738 H   0  0  0  0  0  0  0  0  0  0  0  0
   11.1385   13.5093   18.5220 H   0  0  0  0  0  0  0  0  0  0  0  0
    9.4913   16.5941   19.0024 H   0  0  0  0  0  0  0  0  0  0  0  0
   13.0422   14.8875   18.5115 H   0  0  0  0  0  0  0  0  0  0  0  0
    9.2015   14.4313   23.4735 C   0  0  0  0  0  0  0  0  0  0  0  0
    8.0699   14.3302   23.0067 O   0  0  0  0  0  0  0  0  0  0  0  0
    9.4719   13.7416   24.7896 C   0  0  0  0  0  0  0  0  0  0  0  0
   10.0913   14.2884   25.6866 O   0  0  0  0  0  0  0  0  0  0  0  0
    7.8423   12.0440   25.6901 C   0  0  0  0  0  0  0  0  0  0  0  0
    7.4001   10.7262   25.7114 C   0  0  0  0  0  0  0  0  0  0  0  0
    8.0527    9.7726   24.9621 C   0  0  0  0  0  0  0  0  0  0  0  0
    9.1291   10.0938   24.1720 C   0  0  0  0  0  0  0  0  0  0  0  0
    9.8479    8.8450   23.2898 Cl  0  0  0  0  0  0  0  0  0  0  0  0
    9.5988   11.3880   24.1222 C   0  0  0  0  0  0  0  0  0  0  0  0
    8.9578   12.3630   24.8930 C   0  0  0  0  0  0  0  0  0  0  0  0
    5.6650   12.7694   26.8444 C   0  0  0  0  0  0  0  0  0  0  0  0
    7.1011   13.0954   26.4582 C   0  0  0  0  0  0  0  0  0  0  0  0
 26 27  1  0  0  0
 27 19  1  0  0  0
 19 20  2  0  0  0
 20 21  1  0  0  0
 21 22  2  0  0  0
 22 23  1  0  0  0
 22 24  1  0  0  0
 24 25  2  0  0  0
 25 17  1  0  0  0
 17 18  2  0  0  0
 17 15  1  0  0  0
 15 16  2  0  0  0
 15  1  1  0  0  0
  1  2  2  0  0  0
  2  3  1  0  0  0
  3  4  2  0  0  0
  4  5  1  0  0  0
  5  7  1  0  0  0
  7  8  1  0  0  0
  7  9  1  0  0  0
  7 10  1  0  0  0
  5  6  2  0  0  0
 25 19  1  0  0  0
  6  1  1  0  0  0
  8 11  1  0  0  0
  8 12  1  0  0  0
  9 13  1  0  0  0
 10 14  1  0  0  0
M  END
> <minimizedAffinity>
-7.33692

> <minimizedRMSD>
0.84694

$$$$
P60418


 27 28  0  0  0  0  0  0  0  0999 V2000
    9.6436   14.8193   22.4743 C   0  0  0  0  0  0  0  0  0  0  0  0
   10.5935   15.5733   23.1443 C   0  0  0  0  0  0  0  0  0  0  0  0
   11.5337   16.3104   22.5142 N   0  0  0  0  0  0  0  0  0  0  0  0
   11.5338   16.2673   21.1547 C   0  0  0  0  0  0  0  0  0  0  0  0
   10.6064   15.5579   20.3976 C   0  0  0  0  0  0  0  0  0  0  0  0
    9.6242   14.8565   21.0927 C   0  0  0  0  0  0  0  0  0  0  0  0
   10.6934   15.4246   18.9146 C   0  0  0  0  0  0  0  0  0  0  0  0
   11.5412   14.3688   18.4958 N   0  0  0  0  0  0  0  0  0  0  0  0
   11.0767   16.5755   18.2835 O   0  0  0  0  0  0  0  0  0  0  0  0
    9.4627   15.1646   18.3457 O   0  0  0  0  0  0  0  0  0  0  0  0
   12.4731   14.5055   18.8871 H   0  0  0  0  0  0  0  0  0  0  0  0
   11.5977   14.3616   17.4774 H   0  0  0  0  0  0  0  0  0  0  0  0
   11.8984   16.9737   18.4936 H   0  0  0  0  0  0  0  0  0  0  0  0
    8.9738   14.4107   18.6112 H   0  0  0  0  0  0  0  0  0  0  0  0
    8.7621   13.8339   23.1048 C   0  0  0  0  0  0  0  0  0  0  0  0
    7.7215   13.4518   22.5797 O   0  0  0  0  0  0  0  0  0  0  0  0
    9.2522   13.0960   24.3130 C   0  0  0  0  0  0  0  0  0  0  0  0
   10.4357   13.0705   24.6114 O   0  0  0  0  0  0  0  0  0  0  0  0
    8.4061   10.8687   24.8876 C   0  0  0  0  0  0  0  0  0  0  0  0
    7.5385   10.0992   25.6613 C   0  0  0  0  0  0  0  0  0  0  0  0
    6.5987   10.7110   26.5067 C   0  0  0  0  0  0  0  0  0  0  0  0
    5.4827    9.7566   27.3901 Cl  0  0  0  0  0  0  0  0  0  0  0  0
    6.5238   12.0953   26.6305 C   0  0  0  0  0  0  0  0  0  0  0  0
    7.3933   12.8853   25.8978 C   0  0  0  0  0  0  0  0  0  0  0  0
    8.3135   12.2632   25.0492 C   0  0  0  0  0  0  0  0  0  0  0  0
    9.4436    8.8329   23.6268 C   0  0  0  0  0  0  0  0  0  0  0  0
    9.3949   10.3161   23.8748 C   0  0  0  0  0  0  0  0  0  0  0  0
 26 27  1  0  0  0
 27 19  1  0  0  0
 19 20  2  0  0  0
 20 21  1  0  0  0
 21 22  1  0  0  0
 21 23  2  0  0  0
 23 24  1  0  0  0
 24 25  2  0  0  0
 25 17  1  0  0  0
 17 18  2  0  0  0
 17 15  1  0  0  0
 15 16  2  0  0  0
 15  1  1  0  0  0
  1  2  2  0  0  0
  2  3  1  0  0  0
  3  4  2  0  0  0
  4  5  1  0  0  0
  5  7  1  0  0  0
  7  8  1  0  0  0
  7  9  1  0  0  0
  7 10  1  0  0  0
  5  6  2  0  0  0
 25 19  1  0  0  0
  6  1  1  0  0  0
  8 11  1  0  0  0
  8 12  1  0  0  0
  9 13  1  0  0  0
 10 14  1  0  0  0
M  END
> <minimizedAffinity>
-7.85455

> <minimizedRMSD>
0.43259

$$$$
P60429


 32 34  0  0  0  0  0  0  0  0999 V2000
   12.9062   14.8235   22.5558 C   0  0  0  0  0  0  0  0  0  0  0  0
   12.5120   15.0914   21.3032 C   0  0  0  0  0  0  0  0  0  0  0  0
   13.0710   16.1999   20.5567 C   0  0  0  0  0  0  0  0  0  0  0  0
   13.9336   17.0145   21.1956 C   0  0  0  0  0  0  0  0  0  0  0  0
   14.3638   16.7344   22.4703 N   0  0  0  0  0  0  0  0  0  0  0  0
   14.0305   15.5769   23.1364 C   0  0  0  0  0  0  0  0  0  0  0  0
   14.6557   15.1697   24.1067 O   0  0  0  0  0  0  0  0  0  0  0  0
   14.9364   17.3916   22.9280 H   0  0  0  0  0  0  0  0  0  0  0  0
   12.6959   16.3318   19.1031 C   0  0  0  0  0  0  0  0  0  0  0  0
   11.7163   15.4195   18.6338 N   0  0  0  0  0  0  0  0  0  0  0  0
   12.1874   17.6116   18.7849 N   0  0  0  0  0  0  0  0  0  0  0  0
   13.8237   16.1067   18.3492 O   0  0  0  0  0  0  0  0  0  0  0  0
   10.8535   15.5449   19.1631 H   0  0  0  0  0  0  0  0  0  0  0  0
   12.0545   14.4649   18.7560 H   0  0  0  0  0  0  0  0  0  0  0  0
   11.3494   17.7917   19.3379 H   0  0  0  0  0  0  0  0  0  0  0  0
   11.9542   17.6477   17.7926 H   0  0  0  0  0  0  0  0  0  0  0  0
   14.1830   15.2304   18.5585 H   0  0  0  0  0  0  0  0  0  0  0  0
   10.6837   14.0200   22.9479 N   0  0  0  0  0  0  0  0  0  0  0  0
   12.1693   13.8097   23.3280 C   0  0  0  0  0  0  0  0  0  0  0  0
   12.6563   13.0817   24.0961 O   0  0  0  0  0  0  0  0  0  0  0  0
   10.5330   14.6493   22.2060 H   0  0  0  0  0  0  0  0  0  0  0  0
   10.2385   11.0309   23.2109 C   0  0  0  0  0  0  0  0  0  0  0  0
    9.4065   12.1206   23.8307 C   0  0  0  0  0  0  0  0  0  0  0  0
    9.5415   13.4712   23.4776 C   0  0  0  0  0  0  0  0  0  0  0  0
    8.5361   14.4003   23.7050 C   0  0  0  0  0  0  0  0  0  0  0  0
    7.4493   14.0694   24.4791 C   0  0  0  0  0  0  0  0  0  0  0  0
    7.4367   12.8246   25.0690 C   0  0  0  0  0  0  0  0  0  0  0  0
    6.5459   12.3059   25.9678 N   0  0  0  0  0  0  0  0  0  0  0  0
    6.8016   10.9817   26.1346 C   0  0  0  0  0  0  0  0  0  0  0  0
    7.8549   10.6638   25.3077 C   0  0  0  0  0  0  0  0  0  0  0  0
    8.3440   11.8373   24.7131 C   0  0  0  0  0  0  0  0  0  0  0  0
    5.8332   12.8112   26.4216 H   0  0  0  0  0  0  0  0  0  0  0  0
 22 23  1  0  0  0
 23 24  2  0  0  0
 24 18  1  0  0  0
 18 19  1  0  0  0
 19 20  2  0  0  0
 19  1  1  0  0  0
  1  2  2  0  0  0
  2  3  1  0  0  0
  3  9  1  0  0  0
  9 10  1  0  0  0
  9 11  1  0  0  0
  9 12  1  0  0  0
  3  4  2  0  0  0
  4  5  1  0  0  0
  5  6  1  0  0  0
  6  7  2  0  0  0
 24 25  1  0  0  0
 25 26  2  0  0  0
 26 27  1  0  0  0
 27 28  1  0  0  0
 28 29  1  0  0  0
 29 30  2  0  0  0
 30 31  1  0  0  0
 31 23  1  0  0  0
  6  1  1  0  0  0
 31 27  2  0  0  0
 18 21  1  0  0  0
 10 13  1  0  0  0
 10 14  1  0  0  0
 11 15  1  0  0  0
 11 16  1  0  0  0
 12 17  1  0  0  0
  5  8  1  0  0  0
 28 32  1  0  0  0
M  END
> <minimizedAffinity>
-7.03382

> <minimizedRMSD>
0.67752

$$$$
P60452


 32 34  0  0  0  0  0  0  0  0999 V2000
   10.1929   13.2980   23.0128 N   0  0  0  0  0  0  0  0  0  0  0  0
   11.7065   13.4681   23.2974 C   0  0  0  0  0  0  0  0  0  0  0  0
   12.3862   12.9628   24.0994 O   0  0  0  0  0  0  0  0  0  0  0  0
    9.8648   13.7846   22.2223 H   0  0  0  0  0  0  0  0  0  0  0  0
   10.2115   10.3056   23.0296 C   0  0  0  0  0  0  0  0  0  0  0  0
    9.3316   11.1853   23.8745 C   0  0  0  0  0  0  0  0  0  0  0  0
    8.5052   10.5489   24.8124 C   0  0  0  0  0  0  0  0  0  0  0  0
    7.5610   11.2725   25.5470 C   0  0  0  0  0  0  0  0  0  0  0  0
    6.6527   10.9610   26.5965 C   0  0  0  0  0  0  0  0  0  0  0  0
    5.9150   12.0874   26.8589 C   0  0  0  0  0  0  0  0  0  0  0  0
    6.2613   13.0058   25.9119 N   0  0  0  0  0  0  0  0  0  0  0  0
    7.3638   12.6005   25.2022 C   0  0  0  0  0  0  0  0  0  0  0  0
    8.1344   13.2811   24.2410 C   0  0  0  0  0  0  0  0  0  0  0  0
    7.8829   14.7095   23.8750 C   0  0  0  0  0  0  0  0  0  0  0  0
    9.2201   12.5675   23.6944 C   0  0  0  0  0  0  0  0  0  0  0  0
    5.7816   13.8514   25.7571 H   0  0  0  0  0  0  0  0  0  0  0  0
   12.2509   14.4561   22.3277 C   0  0  0  0  0  0  0  0  0  0  0  0
   11.8073   14.4924   21.0591 C   0  0  0  0  0  0  0  0  0  0  0  0
   12.3564   15.4155   20.0715 C   0  0  0  0  0  0  0  0  0  0  0  0
   13.2951   16.2862   20.4845 C   0  0  0  0  0  0  0  0  0  0  0  0
   13.7644   16.2659   21.7731 N   0  0  0  0  0  0  0  0  0  0  0  0
   13.3967   15.3231   22.7033 C   0  0  0  0  0  0  0  0  0  0  0  0
   14.0089   15.1879   23.7565 O   0  0  0  0  0  0  0  0  0  0  0  0
   14.4002   16.9659   22.0472 H   0  0  0  0  0  0  0  0  0  0  0  0
   11.8189   15.3540   18.6565 C   0  0  0  0  0  0  0  0  0  0  0  0
   11.8004   14.0325   18.1238 N   0  0  0  0  0  0  0  0  0  0  0  0
   12.5794   16.1749   17.8241 O   0  0  0  0  0  0  0  0  0  0  0  0
   10.4930   15.8049   18.7003 O   0  0  0  0  0  0  0  0  0  0  0  0
   12.7532   13.6712   18.0774 H   0  0  0  0  0  0  0  0  0  0  0  0
   11.3970   14.0491   17.1871 H   0  0  0  0  0  0  0  0  0  0  0  0
   13.4903   15.9967   17.6956 H   0  0  0  0  0  0  0  0  0  0  0  0
    9.8607   15.3507   19.2217 H   0  0  0  0  0  0  0  0  0  0  0  0
  5  6  1  0  0  0
  6  7  2  0  0  0
  7  8  1  0  0  0
  8  9  1  0  0  0
  9 10  2  0  0  0
 10 11  1  0  0  0
 11 12  1  0  0  0
 12 13  1  0  0  0
 13 14  1  0  0  0
 13 15  2  0  0  0
 15  1  1  0  0  0
  1  2  1  0  0  0
  2  3  2  0  0  0
  2 17  1  0  0  0
 17 18  2  0  0  0
 18 19  1  0  0  0
 19 25  1  0  0  0
 25 26  1  0  0  0
 25 27  1  0  0  0
 25 28  1  0  0  0
 19 20  2  0  0  0
 20 21  1  0  0  0
 21 22  1  0  0  0
 22 23  2  0  0  0
 15  6  1  0  0  0
 22 17  1  0  0  0
 12  8  2  0  0  0
 11 16  1  0  0  0
  1  4  1  0  0  0
 26 29  1  0  0  0
 26 30  1  0  0  0
 27 31  1  0  0  0
 28 32  1  0  0  0
 21 24  1  0  0  0
M  END
> <minimizedAffinity>
-8.80115

> <minimizedRMSD>
0.49287

$$$$
P60453


 27 28  0  0  0  0  0  0  0  0999 V2000
   12.0363   14.3371   22.5679 C   0  0  0  0  0  0  0  0  0  0  0  0
   11.5044   14.4217   21.3353 C   0  0  0  0  0  0  0  0  0  0  0  0
   12.0507   15.3211   20.3212 C   0  0  0  0  0  0  0  0  0  0  0  0
   13.0717   16.1207   20.6803 C   0  0  0  0  0  0  0  0  0  0  0  0
   13.6256   16.0493   21.9332 N   0  0  0  0  0  0  0  0  0  0  0  0
   13.2650   15.1110   22.8701 C   0  0  0  0  0  0  0  0  0  0  0  0
   13.9428   14.9076   23.8710 O   0  0  0  0  0  0  0  0  0  0  0  0
   14.3188   16.7055   22.1741 H   0  0  0  0  0  0  0  0  0  0  0  0
   11.4350   15.3145   18.9361 C   0  0  0  0  0  0  0  0  0  0  0  0
   11.7155   14.1251   18.2038 N   0  0  0  0  0  0  0  0  0  0  0  0
   11.8899   16.4153   18.2084 O   0  0  0  0  0  0  0  0  0  0  0  0
   10.0443   15.3912   19.0984 O   0  0  0  0  0  0  0  0  0  0  0  0
   12.7227   14.0390   18.0680 H   0  0  0  0  0  0  0  0  0  0  0  0
   11.2524   14.1676   17.2960 H   0  0  0  0  0  0  0  0  0  0  0  0
   12.8028   16.5059   18.0174 H   0  0  0  0  0  0  0  0  0  0  0  0
    9.5898   14.7201   19.5686 H   0  0  0  0  0  0  0  0  0  0  0  0
    9.9772   13.3016   23.4342 N   0  0  0  0  0  0  0  0  0  0  0  0
   11.5228   13.3392   23.5389 C   0  0  0  0  0  0  0  0  0  0  0  0
   12.2523   12.6995   24.1868 O   0  0  0  0  0  0  0  0  0  0  0  0
    9.5956   13.8986   22.7507 H   0  0  0  0  0  0  0  0  0  0  0  0
    9.8600   10.2962   23.2507 C   0  0  0  0  0  0  0  0  0  0  0  0
    9.0411   11.1594   24.1737 C   0  0  0  0  0  0  0  0  0  0  0  0
    8.1564   10.5093   25.0464 C   0  0  0  0  0  0  0  0  0  0  0  0
    7.2591   11.2220   25.8347 C   0  0  0  0  0  0  0  0  0  0  0  0
    7.2113   12.6047   25.7325 C   0  0  0  0  0  0  0  0  0  0  0  0
    8.0889   13.2741   24.8797 C   0  0  0  0  0  0  0  0  0  0  0  0
    9.0423   12.5620   24.1483 C   0  0  0  0  0  0  0  0  0  0  0  0
 21 22  1  0  0  0
 22 23  2  0  0  0
 23 24  1  0  0  0
 24 25  2  0  0  0
 25 26  1  0  0  0
 26 27  2  0  0  0
 27 17  1  0  0  0
 17 18  1  0  0  0
 18 19  2  0  0  0
 18  1  1  0  0  0
  1  2  2  0  0  0
  2  3  1  0  0  0
  3  9  1  0  0  0
  9 10  1  0  0  0
  9 11  1  0  0  0
  9 12  1  0  0  0
  3  4  2  0  0  0
  4  5  1  0  0  0
  5  6  1  0  0  0
  6  7  2  0  0  0
 27 22  1  0  0  0
  6  1  1  0  0  0
 17 20  1  0  0  0
 10 13  1  0  0  0
 10 14  1  0  0  0
 11 15  1  0  0  0
 12 16  1  0  0  0
  5  8  1  0  0  0
M  END
> <minimizedAffinity>
-8.11526

> <minimizedRMSD>
0.42114

$$$$
P60461


 29 30  0  0  0  0  0  0  0  0999 V2000
   12.0197   14.3497   22.5787 C   0  0  0  0  0  0  0  0  0  0  0  0
   11.4917   14.4213   21.3435 C   0  0  0  0  0  0  0  0  0  0  0  0
   12.0493   15.3053   20.3222 C   0  0  0  0  0  0  0  0  0  0  0  0
   13.0801   16.0973   20.6681 C   0  0  0  0  0  0  0  0  0  0  0  0
   13.6246   16.0435   21.9239 N   0  0  0  0  0  0  0  0  0  0  0  0
   13.2529   15.1216   22.8722 C   0  0  0  0  0  0  0  0  0  0  0  0
   13.9282   14.9326   23.8769 O   0  0  0  0  0  0  0  0  0  0  0  0
   14.3191   16.7004   22.1595 H   0  0  0  0  0  0  0  0  0  0  0  0
   11.4176   15.3053   18.9438 C   0  0  0  0  0  0  0  0  0  0  0  0
   11.6975   14.1293   18.1977 N   0  0  0  0  0  0  0  0  0  0  0  0
   11.8563   16.4170   18.2224 O   0  0  0  0  0  0  0  0  0  0  0  0
   10.0267   15.4162   19.1085 O   0  0  0  0  0  0  0  0  0  0  0  0
   12.7056   14.0384   18.0718 H   0  0  0  0  0  0  0  0  0  0  0  0
   11.2450   14.1896   17.2855 H   0  0  0  0  0  0  0  0  0  0  0  0
   12.7653   16.5129   18.0164 H   0  0  0  0  0  0  0  0  0  0  0  0
    9.5556   14.7530   19.5734 H   0  0  0  0  0  0  0  0  0  0  0  0
    9.9805   13.2992   23.4981 N   0  0  0  0  0  0  0  0  0  0  0  0
   11.5299   13.3376   23.5462 C   0  0  0  0  0  0  0  0  0  0  0  0
   12.2830   12.6997   24.1689 O   0  0  0  0  0  0  0  0  0  0  0  0
    9.5677   13.9994   22.9426 H   0  0  0  0  0  0  0  0  0  0  0  0
    7.3075   12.1599   25.7544 C   0  0  0  0  0  0  0  0  0  0  0  0
    7.4438   10.7863   25.6620 C   0  0  0  0  0  0  0  0  0  0  0  0
    8.3635   10.2534   24.7866 C   0  0  0  0  0  0  0  0  0  0  0  0
    9.1707   11.0506   23.9814 C   0  0  0  0  0  0  0  0  0  0  0  0
   10.0330   10.3210   22.9979 C   0  0  0  0  0  0  0  0  0  0  0  0
    9.0807   12.4375   24.1115 C   0  0  0  0  0  0  0  0  0  0  0  0
    8.1032   12.9889   24.9422 C   0  0  0  0  0  0  0  0  0  0  0  0
    5.6798   11.8375   27.7204 C   0  0  0  0  0  0  0  0  0  0  0  0
    6.3447   12.7690   26.7186 C   0  0  0  0  0  0  0  0  0  0  0  0
 28 29  1  0  0  0
 29 21  1  0  0  0
 21 22  2  0  0  0
 22 23  1  0  0  0
 23 24  2  0  0  0
 24 25  1  0  0  0
 24 26  1  0  0  0
 26 17  1  0  0  0
 17 18  1  0  0  0
 18 19  2  0  0  0
 18  1  1  0  0  0
  1  2  2  0  0  0
  2  3  1  0  0  0
  3  9  1  0  0  0
  9 10  1  0  0  0
  9 11  1  0  0  0
  9 12  1  0  0  0
  3  4  2  0  0  0
  4  5  1  0  0  0
  5  6  1  0  0  0
  6  7  2  0  0  0
 26 27  2  0  0  0
 27 21  1  0  0  0
  6  1  1  0  0  0
 17 20  1  0  0  0
 10 13  1  0  0  0
 10 14  1  0  0  0
 11 15  1  0  0  0
 12 16  1  0  0  0
  5  8  1  0  0  0
M  END
> <minimizedAffinity>
-7.84222

> <minimizedRMSD>
0.41507

$$$$
P60464


 28 29  0  0  0  0  0  0  0  0999 V2000
   12.1094   14.3439   22.5504 C   0  0  0  0  0  0  0  0  0  0  0  0
   11.5758   14.4088   21.3186 C   0  0  0  0  0  0  0  0  0  0  0  0
   12.1057   15.3066   20.2978 C   0  0  0  0  0  0  0  0  0  0  0  0
   13.1093   16.1305   20.6496 C   0  0  0  0  0  0  0  0  0  0  0  0
   13.6554   16.0887   21.9080 N   0  0  0  0  0  0  0  0  0  0  0  0
   13.3144   15.1505   22.8537 C   0  0  0  0  0  0  0  0  0  0  0  0
   13.9890   14.9737   23.8613 O   0  0  0  0  0  0  0  0  0  0  0  0
   14.3277   16.7672   22.1465 H   0  0  0  0  0  0  0  0  0  0  0  0
   11.4580   15.2991   18.9275 C   0  0  0  0  0  0  0  0  0  0  0  0
   11.7049   14.1190   18.1721 N   0  0  0  0  0  0  0  0  0  0  0  0
   11.8708   16.4161   18.2027 O   0  0  0  0  0  0  0  0  0  0  0  0
   10.0698   15.4081   19.1122 O   0  0  0  0  0  0  0  0  0  0  0  0
   12.7085   14.0147   18.0227 H   0  0  0  0  0  0  0  0  0  0  0  0
   11.2323   14.1871   17.2708 H   0  0  0  0  0  0  0  0  0  0  0  0
   12.7747   16.5219   17.9794 H   0  0  0  0  0  0  0  0  0  0  0  0
    9.6061   14.7434   19.5825 H   0  0  0  0  0  0  0  0  0  0  0  0
   10.0490   13.3508   23.4341 N   0  0  0  0  0  0  0  0  0  0  0  0
   11.5952   13.3494   23.5219 C   0  0  0  0  0  0  0  0  0  0  0  0
   12.3150   12.6907   24.1603 O   0  0  0  0  0  0  0  0  0  0  0  0
    9.6752   13.9585   22.7557 H   0  0  0  0  0  0  0  0  0  0  0  0
    6.4113   10.7285   26.9068 C   0  0  0  0  0  0  0  0  0  0  0  0
    7.3150   11.3755   25.9051 C   0  0  0  0  0  0  0  0  0  0  0  0
    7.3223   12.7598   25.7766 C   0  0  0  0  0  0  0  0  0  0  0  0
    8.1919   13.3873   24.8911 C   0  0  0  0  0  0  0  0  0  0  0  0
    9.1054   12.6351   24.1559 C   0  0  0  0  0  0  0  0  0  0  0  0
    9.0602   11.2348   24.1958 C   0  0  0  0  0  0  0  0  0  0  0  0
    9.8389   10.3449   23.2627 C   0  0  0  0  0  0  0  0  0  0  0  0
    8.1704   10.6225   25.0958 C   0  0  0  0  0  0  0  0  0  0  0  0
 21 22  1  0  0  0
 22 23  2  0  0  0
 23 24  1  0  0  0
 24 25  2  0  0  0
 25 17  1  0  0  0
 17 18  1  0  0  0
 18 19  2  0  0  0
 18  1  1  0  0  0
  1  2  2  0  0  0
  2  3  1  0  0  0
  3  9  1  0  0  0
  9 10  1  0  0  0
  9 11  1  0  0  0
  9 12  1  0  0  0
  3  4  2  0  0  0
  4  5  1  0  0  0
  5  6  1  0  0  0
  6  7  2  0  0  0
 25 26  1  0  0  0
 26 27  1  0  0  0
 26 28  2  0  0  0
 28 22  1  0  0  0
  6  1  1  0  0  0
 17 20  1  0  0  0
 10 13  1  0  0  0
 10 14  1  0  0  0
 11 15  1  0  0  0
 12 16  1  0  0  0
  5  8  1  0  0  0
M  END
> <minimizedAffinity>
-8.34214

> <minimizedRMSD>
0.39622

$$$$
P62257


 34 35  0  0  0  0  0  0  0  0999 V2000
    8.7901   13.5608   24.9515 C   0  0  0  0  0  0  0  0  0  0  0  0
    8.2951   14.5332   23.8378 C   0  0  0  0  0  0  0  0  0  0  0  0
    7.2481   15.1193   23.9508 O   0  0  0  0  0  0  0  0  0  0  0  0
    9.3116   14.6265   22.8303 N   0  0  0  0  0  0  0  0  0  0  0  0
   10.3405   15.6600   23.2262 C   0  0  0  0  0  0  0  0  0  0  0  0
   11.7330   15.2330   22.7875 C   0  0  0  0  0  0  0  0  0  0  0  0
   11.8634   15.6213   21.3444 C   0  0  0  0  0  0  0  0  0  0  0  0
   10.5847   15.2006   20.6070 C   0  0  0  0  0  0  0  0  0  0  0  0
    9.3473   15.4138   21.5141 C   0  0  0  0  0  0  0  0  0  0  0  0
   10.4832   15.9096   19.2465 C   0  0  0  0  0  0  0  0  0  0  0  0
   11.5945   15.6313   18.3973 N   0  0  0  0  0  0  0  0  0  0  0  0
   10.4342   17.2810   19.4274 O   0  0  0  0  0  0  0  0  0  0  0  0
    9.3632   15.6189   18.4966 O   0  0  0  0  0  0  0  0  0  0  0  0
   12.4618   15.8276   18.8969 H   0  0  0  0  0  0  0  0  0  0  0  0
   11.5415   16.2181   17.5646 H   0  0  0  0  0  0  0  0  0  0  0  0
   11.1060   17.7133   19.9170 H   0  0  0  0  0  0  0  0  0  0  0  0
    9.1834   14.7339   18.2469 H   0  0  0  0  0  0  0  0  0  0  0  0
    8.1026   11.1219   24.7045 C   0  0  0  0  0  0  0  0  0  0  0  0
    7.2779   10.0562   25.0743 C   0  0  0  0  0  0  0  0  0  0  0  0
    6.2023   10.2494   25.9421 C   0  0  0  0  0  0  0  0  0  0  0  0
    5.9281   11.5148   26.4390 C   0  0  0  0  0  0  0  0  0  0  0  0
    6.7427   12.5836   26.0825 C   0  0  0  0  0  0  0  0  0  0  0  0
    7.8592   12.4009   25.2417 C   0  0  0  0  0  0  0  0  0  0  0  0
    9.6090    9.6863   23.5317 C   0  0  0  0  0  0  0  0  0  0  0  0
    9.1585   11.0029   23.8379 O   0  0  0  0  0  0  0  0  0  0  0  0
    8.9578   14.4159   26.1184 N   0  0  0  0  0  0  0  0  0  0  0  0
   10.0746   14.6716   26.9163 C   0  0  0  0  0  0  0  0  0  0  0  0
   11.1662   14.1989   26.9033 O   0  0  0  0  0  0  0  0  0  0  0  0
    8.1433   14.8966   26.3916 H   0  0  0  0  0  0  0  0  0  0  0  0
    9.6705   15.6425   27.7736 O   0  0  0  0  0  0  0  0  0  0  0  0
   10.5971   16.3311   28.6516 C   0  0  0  0  0  0  0  0  0  0  0  0
    9.7256   17.3314   29.4251 C   0  0  0  0  0  0  0  0  0  0  0  0
   11.6440   17.1106   27.8509 C   0  0  0  0  0  0  0  0  0  0  0  0
   11.2441   15.3656   29.6463 C   0  0  0  0  0  0  0  0  0  0  0  0
 24 25  1  0  0  0
 25 18  1  0  0  0
 18 19  2  0  0  0
 19 20  1  0  0  0
 20 21  2  0  0  0
 21 22  1  0  0  0
 22 23  2  0  0  0
 23  1  1  0  0  0
  1 26  1  0  0  0
 26 27  1  0  0  0
 27 28  2  0  0  0
 27 30  1  0  0  0
 30 31  1  0  0  0
 31 32  1  0  0  0
 31 33  1  0  0  0
 31 34  1  0  0  0
  1  2  1  0  0  0
  2  3  2  0  0  0
  2  4  1  0  0  0
  4  5  1  0  0  0
  5  6  1  0  0  0
  6  7  1  0  0  0
  7  8  1  0  0  0
  8 10  1  0  0  0
 10 11  1  0  0  0
 10 12  1  0  0  0
 10 13  1  0  0  0
  8  9  1  0  0  0
 23 18  1  0  0  0
  9  4  1  0  0  0
 26 29  1  0  0  0
 11 14  1  0  0  0
 11 15  1  0  0  0
 12 16  1  0  0  0
 13 17  1  0  0  0
M  END
> <minimizedAffinity>
-7.27099

> <minimizedRMSD>
0.32385

$$$$
P62380


 39 41  0  0  0  0  0  0  0  0999 V2000
    9.0016   14.1549   24.0259 C   0  0  0  0  0  0  0  0  0  0  0  0
    9.5412   15.4541   24.3663 O   0  0  0  0  0  0  0  0  0  0  0  0
    9.6358   13.8100   22.6860 C   0  0  0  0  0  0  0  0  0  0  0  0
    8.7562   14.6007   21.7498 C   0  0  0  0  0  0  0  0  0  0  0  0
    9.0126   14.7487   20.5688 O   0  0  0  0  0  0  0  0  0  0  0  0
    7.5333   15.1649   22.4084 C   0  0  0  0  0  0  0  0  0  0  0  0
    6.2097   15.0240   21.6810 C   0  0  0  0  0  0  0  0  0  0  0  0
    5.0856   15.5045   22.6260 C   0  0  0  0  0  0  0  0  0  0  0  0
    5.1682   14.7746   23.9799 C   0  0  0  0  0  0  0  0  0  0  0  0
    6.5155   14.8582   24.5858 N   0  0  0  0  0  0  0  0  0  0  0  0
    7.4989   14.2890   23.6519 C   0  0  0  0  0  0  0  0  0  0  0  0
   10.4787   15.3641   24.5987 H   0  0  0  0  0  0  0  0  0  0  0  0
    6.5303   14.3325   25.4597 H   0  0  0  0  0  0  0  0  0  0  0  0
    3.7070   15.4266   21.9373 C   0  0  0  0  0  0  0  0  0  0  0  0
    2.5999   15.8937   22.7103 N   0  0  0  0  0  0  0  0  0  0  0  0
    3.7409   16.2302   20.7866 O   0  0  0  0  0  0  0  0  0  0  0  0
    3.4052   14.1232   21.5542 O   0  0  0  0  0  0  0  0  0  0  0  0
    2.7775   16.8509   23.0147 H   0  0  0  0  0  0  0  0  0  0  0  0
    2.4781   15.2944   23.5266 H   0  0  0  0  0  0  0  0  0  0  0  0
    3.9312   17.1447   20.8593 H   0  0  0  0  0  0  0  0  0  0  0  0
    3.3415   13.4477   22.2004 H   0  0  0  0  0  0  0  0  0  0  0  0
    9.3178   13.1350   25.1608 C   0  0  0  0  0  0  0  0  0  0  0  0
    8.3461   10.7978   24.7672 C   0  0  0  0  0  0  0  0  0  0  0  0
    7.3327    9.8589   24.9815 C   0  0  0  0  0  0  0  0  0  0  0  0
    6.2309   10.1526   25.7838 C   0  0  0  0  0  0  0  0  0  0  0  0
    6.1524   11.3731   26.4287 C   0  0  0  0  0  0  0  0  0  0  0  0
    7.1763   12.2984   26.2606 C   0  0  0  0  0  0  0  0  0  0  0  0
    8.2722   12.0519   25.4036 C   0  0  0  0  0  0  0  0  0  0  0  0
    9.6281    9.2299   23.4999 C   0  0  0  0  0  0  0  0  0  0  0  0
    9.4249   10.5690   23.9548 O   0  0  0  0  0  0  0  0  0  0  0  0
    9.5732   13.9210   26.3515 N   0  0  0  0  0  0  0  0  0  0  0  0
   10.8546   14.1834   27.0950 C   0  0  0  0  0  0  0  0  0  0  0  0
   11.9156   13.7579   26.9332 O   0  0  0  0  0  0  0  0  0  0  0  0
    8.7777   14.3544   26.7369 H   0  0  0  0  0  0  0  0  0  0  0  0
   10.4923   15.1223   27.9973 O   0  0  0  0  0  0  0  0  0  0  0  0
   11.2311   16.3534   28.1364 C   0  0  0  0  0  0  0  0  0  0  0  0
   10.4407   17.1535   29.1806 C   0  0  0  0  0  0  0  0  0  0  0  0
   11.2539   17.1472   26.8277 C   0  0  0  0  0  0  0  0  0  0  0  0
   12.6337   16.0635   28.6669 C   0  0  0  0  0  0  0  0  0  0  0  0
 29 30  1  0  0  0
 30 23  1  0  0  0
 23 24  2  0  0  0
 24 25  1  0  0  0
 25 26  2  0  0  0
 26 27  1  0  0  0
 27 28  2  0  0  0
 28 22  1  0  0  0
 22 31  1  0  0  0
 31 32  1  0  0  0
 32 33  2  0  0  0
 32 35  1  0  0  0
 35 36  1  0  0  0
 36 37  1  0  0  0
 36 38  1  0  0  0
 36 39  1  0  0  0
 22  1  1  0  0  0
  1  2  1  0  0  0
  1  3  1  0  0  0
  3  4  1  0  0  0
  4  5  2  0  0  0
  4  6  1  0  0  0
  6  7  1  0  0  0
  7  8  1  0  0  0
  8 14  1  0  0  0
 14 15  1  0  0  0
 14 16  1  0  0  0
 14 17  1  0  0  0
  8  9  1  0  0  0
  9 10  1  0  0  0
 11 10  1  0  0  0
 28 23  1  0  0  0
 11  1  1  0  0  0
 11  6  1  0  0  0
 31 34  1  0  0  0
  2 12  1  0  0  0
 15 18  1  0  0  0
 15 19  1  0  0  0
 16 20  1  0  0  0
 17 21  1  0  0  0
 10 13  1  0  0  0
M  END
> <minimizedAffinity>
-7.12030

> <minimizedRMSD>
0.89941

$$$$
P62739


 30 33  0  0  0  0  0  0  0  0999 V2000
    8.2034   14.2198   23.4420 C   0  0  0  0  0  0  0  0  0  0  0  0
    7.5035   14.0561   22.3130 C   0  0  0  0  0  0  0  0  0  0  0  0
    8.2253   14.5376   21.2488 N   0  0  0  0  0  0  0  0  0  0  0  0
    9.2535   15.4242   21.7663 C   0  0  0  0  0  0  0  0  0  0  0  0
   10.6629   15.3487   21.2603 C   0  0  0  0  0  0  0  0  0  0  0  0
   11.3160   14.2718   22.1044 C   0  0  0  0  0  0  0  0  0  0  0  0
   10.5971   14.4190   23.4166 C   0  0  0  0  0  0  0  0  0  0  0  0
   11.0782   14.0739   24.4833 O   0  0  0  0  0  0  0  0  0  0  0  0
    9.3355   14.9706   23.1701 N   0  0  0  0  0  0  0  0  0  0  0  0
    8.0729   14.3201   20.3008 H   0  0  0  0  0  0  0  0  0  0  0  0
    5.4652   14.7566   27.3737 C   0  0  0  0  0  0  0  0  0  0  0  0
    6.3437   14.0081   26.4432 C   0  0  0  0  0  0  0  0  0  0  0  0
    7.1485   14.6559   25.5213 N   0  0  0  0  0  0  0  0  0  0  0  0
    7.7492   13.7439   24.6763 C   0  0  0  0  0  0  0  0  0  0  0  0
    7.5276   12.4952   25.2157 C   0  0  0  0  0  0  0  0  0  0  0  0
    8.0230   11.2624   24.7704 C   0  0  0  0  0  0  0  0  0  0  0  0
    9.1307   11.0166   23.8051 C   0  0  0  0  0  0  0  0  0  0  0  0
    7.3430   10.2034   25.4267 C   0  0  0  0  0  0  0  0  0  0  0  0
    6.3125   10.3780   26.4138 C   0  0  0  0  0  0  0  0  0  0  0  0
    5.8792   11.6320   26.8925 C   0  0  0  0  0  0  0  0  0  0  0  0
    6.5412   12.6618   26.2369 C   0  0  0  0  0  0  0  0  0  0  0  0
    7.2749   15.6311   25.4748 H   0  0  0  0  0  0  0  0  0  0  0  0
   10.9041   15.2853   19.7691 C   0  0  0  0  0  0  0  0  0  0  0  0
   10.1461   14.4087   19.0018 N   0  0  0  0  0  0  0  0  0  0  0  0
   10.6994   16.5271   19.1541 O   0  0  0  0  0  0  0  0  0  0  0  0
   12.1838   14.7834   19.5541 O   0  0  0  0  0  0  0  0  0  0  0  0
    9.1608   14.6642   19.0674 H   0  0  0  0  0  0  0  0  0  0  0  0
   10.2743   13.4572   19.3462 H   0  0  0  0  0  0  0  0  0  0  0  0
    9.8714   16.9585   19.2337 H   0  0  0  0  0  0  0  0  0  0  0  0
   12.4306   13.9571   19.9205 H   0  0  0  0  0  0  0  0  0  0  0  0
 11 12  1  0  0  0
 12 13  1  0  0  0
 13 14  1  0  0  0
 14  1  1  0  0  0
  1  2  2  0  0  0
  2  3  1  0  0  0
  4  3  1  0  0  0
  4  5  1  0  0  0
  5 23  1  0  0  0
 23 24  1  0  0  0
 23 25  1  0  0  0
 23 26  1  0  0  0
  5  6  1  0  0  0
  6  7  1  0  0  0
  7  8  2  0  0  0
  7  9  1  0  0  0
 14 15  2  0  0  0
 15 16  1  0  0  0
 16 17  1  0  0  0
 16 18  2  0  0  0
 18 19  1  0  0  0
 19 20  2  0  0  0
 20 21  1  0  0  0
 21 12  2  0  0  0
  9  1  1  0  0  0
 21 15  1  0  0  0
  9  4  1  0  0  0
 13 22  1  0  0  0
  3 10  1  0  0  0
 24 27  1  0  0  0
 24 28  1  0  0  0
 25 29  1  0  0  0
 26 30  1  0  0  0
M  END
> <minimizedAffinity>
-8.16733

> <minimizedRMSD>
0.18351

$$$$
P67648


 16 16  0  0  0  0  0  0  0  0999 V2000
    8.0285   11.5851   24.8475 C   0  0  0  0  0  0  0  0  0  0  0  0
    7.2808   12.2755   25.7788 C   0  0  0  0  0  0  0  0  0  0  0  0
    6.3613   11.3664   26.3776 C   0  0  0  0  0  0  0  0  0  0  0  0
    6.6289   10.1272   25.8249 C   0  0  0  0  0  0  0  0  0  0  0  0
    7.6543   10.2626   24.9268 N   0  0  0  0  0  0  0  0  0  0  0  0
    8.0618    9.5263   24.4159 H   0  0  0  0  0  0  0  0  0  0  0  0
    5.2775   11.7164   27.3526 C   0  0  0  0  0  0  0  0  0  0  0  0
    5.8136   12.3091   28.6475 C   0  0  0  0  0  0  0  0  0  0  0  0
    4.3624   12.6539   26.7840 O   0  0  0  0  0  0  0  0  0  0  0  0
    4.8279   13.4821   26.5882 H   0  0  0  0  0  0  0  0  0  0  0  0
    9.0049   12.0755   23.8305 C   0  0  0  0  0  0  0  0  0  0  0  0
    9.5643   10.9061   23.2470 O   0  0  0  0  0  0  0  0  0  0  0  0
    9.9938   10.3749   23.9356 H   0  0  0  0  0  0  0  0  0  0  0  0
   10.0957   12.9534   24.4451 C   0  0  0  0  0  0  0  0  0  0  0  0
   11.1608   15.0797   23.6259 C   0  0  0  0  0  0  0  0  0  0  0  0
    9.8778   14.4303   24.1051 C   0  0  0  0  0  0  0  0  0  0  0  0
 15 16  1  0  0  0
 16 14  1  0  0  0
 14 11  1  0  0  0
 11 12  1  0  0  0
 11  1  1  0  0  0
  1  2  2  0  0  0
  2  3  1  0  0  0
  3  7  1  0  0  0
  7  8  1  0  0  0
  7  9  1  0  0  0
  3  4  2  0  0  0
  4  5  1  0  0  0
  5  1  1  0  0  0
 12 13  1  0  0  0
  9 10  1  0  0  0
  5  6  1  0  0  0
M  END
> <minimizedAffinity>
-4.06322

> <minimizedRMSD>
0.89373

$$$$
P68546


 33 36  0  0  0  0  0  0  0  0999 V2000
    9.0790    9.1449   23.4507 C   0  0  0  0  0  0  0  0  0  0  0  0
    8.9480   10.4856   24.0139 N   0  0  0  0  0  0  0  0  0  0  0  0
    9.7153   11.5070   23.4495 N   0  0  0  0  0  0  0  0  0  0  0  0
    9.7710   12.6764   24.3288 C   0  0  0  0  0  0  0  0  0  0  0  0
    8.3765   13.2262   24.7598 C   0  0  0  0  0  0  0  0  0  0  0  0
    8.2944   14.2554   25.8288 N   0  0  0  0  0  0  0  0  0  0  0  0
    9.4251   14.7098   26.5792 C   0  0  0  0  0  0  0  0  0  0  0  0
    9.9938   16.0131   26.0814 C   0  0  0  0  0  0  0  0  0  0  0  0
   10.2661   15.9422   24.5931 C   0  0  0  0  0  0  0  0  0  0  0  0
    8.9656   16.0567   23.7799 C   0  0  0  0  0  0  0  0  0  0  0  0
    8.6495   14.9300   22.9329 N   0  0  0  0  0  0  0  0  0  0  0  0
    7.9134   13.8244   23.3981 C   0  0  0  0  0  0  0  0  0  0  0  0
    7.1199   13.2428   22.6515 O   0  0  0  0  0  0  0  0  0  0  0  0
    7.5290   12.0425   25.2413 C   0  0  0  0  0  0  0  0  0  0  0  0
    6.4669   12.2305   26.1516 C   0  0  0  0  0  0  0  0  0  0  0  0
    5.8076   11.1488   26.6993 C   0  0  0  0  0  0  0  0  0  0  0  0
    6.1855    9.9014   26.2713 C   0  0  0  0  0  0  0  0  0  0  0  0
    7.1580    9.6734   25.3661 N   0  0  0  0  0  0  0  0  0  0  0  0
    7.8426   10.7309   24.8534 C   0  0  0  0  0  0  0  0  0  0  0  0
    9.3012   11.7804   22.5584 H   0  0  0  0  0  0  0  0  0  0  0  0
    7.6330   13.8919   26.5149 H   0  0  0  0  0  0  0  0  0  0  0  0
    8.6668   15.1248   21.4901 C   0  0  0  0  0  0  0  0  0  0  0  0
    9.6306   16.1600   20.8654 C   0  0  0  0  0  0  0  0  0  0  0  0
   10.9653   16.3158   21.5943 C   0  0  0  0  0  0  0  0  0  0  0  0
   12.1075   15.4268   20.6844 S   0  0  0  0  0  0  0  0  0  0  0  0
   11.7678   13.9434   21.2759 O   0  0  0  0  0  0  0  0  0  0  0  0
   11.2182   15.5355   19.1805 C   0  0  0  0  0  0  0  0  0  0  0  0
   11.2901   14.3188   18.4700 N   0  0  0  0  0  0  0  0  0  0  0  0
    9.8378   15.7099   19.4823 N   0  0  0  0  0  0  0  0  0  0  0  0
   12.2335   13.8163   22.1173 H   0  0  0  0  0  0  0  0  0  0  0  0
   10.8908   13.5703   19.0362 H   0  0  0  0  0  0  0  0  0  0  0  0
   12.2652   14.1041   18.2613 H   0  0  0  0  0  0  0  0  0  0  0  0
    9.3566   14.8203   19.3496 H   0  0  0  0  0  0  0  0  0  0  0  0
  1  2  1  0  0  0
  2  3  1  0  0  0
  3  4  1  0  0  0
  5  4  1  0  0  0
  5  6  1  0  0  0
  6  7  1  0  0  0
  7  8  1  0  0  0
  8  9  1  0  0  0
  9 10  1  0  0  0
 10 11  1  0  0  0
 11 22  1  0  0  0
 23 22  1  0  0  0
 23 24  1  0  0  0
 24 25  1  0  0  0
 25 26  1  0  0  0
 25 27  1  0  0  0
 27 28  1  0  0  0
 27 29  1  0  0  0
 11 12  1  0  0  0
 12 13  2  0  0  0
  5 14  1  0  0  0
 14 15  2  0  0  0
 15 16  1  0  0  0
 16 17  2  0  0  0
 17 18  1  0  0  0
 18 19  2  0  0  0
 19  2  1  0  0  0
 12  5  1  0  0  0
 19 14  1  0  0  0
 29 23  1  0  0  0
  3 20  1  0  0  0
  6 21  1  0  0  0
 26 30  1  0  0  0
 28 31  1  0  0  0
 28 32  1  0  0  0
 29 33  1  0  0  0
M  END
> <minimizedAffinity>
-9.22165

> <minimizedRMSD>
0.20875

$$$$
P69030


 30 34  0  0  0  0  0  0  0  0999 V2000
   12.9108   13.7298   25.3277 C   0  0  0  0  0  0  0  0  0  0  0  0
   11.8128   14.0992   24.3659 C   0  0  0  0  0  0  0  0  0  0  0  0
   10.5880   14.4810   25.1790 C   0  0  0  0  0  0  0  0  0  0  0  0
    9.4900   14.5809   24.2411 N   0  0  0  0  0  0  0  0  0  0  0  0
    9.6289   15.6944   23.2906 C   0  0  0  0  0  0  0  0  0  0  0  0
   10.9119   15.5030   22.4514 C   0  0  0  0  0  0  0  0  0  0  0  0
   12.1276   15.2647   23.4084 C   0  0  0  0  0  0  0  0  0  0  0  0
   10.8186   14.3907   21.5086 N   0  0  0  0  0  0  0  0  0  0  0  0
   11.9009   14.6527   20.5758 C   0  0  0  0  0  0  0  0  0  0  0  0
   12.2108   16.0387   20.6532 O   0  0  0  0  0  0  0  0  0  0  0  0
   11.1387   16.5944   21.3854 C   0  0  0  0  0  0  0  0  0  0  0  0
   10.1215   16.7728   20.3610 N   0  0  0  0  0  0  0  0  0  0  0  0
    9.9170   14.3903   21.0316 H   0  0  0  0  0  0  0  0  0  0  0  0
   10.0034   15.9017   19.8437 H   0  0  0  0  0  0  0  0  0  0  0  0
   10.4102   17.5122   19.7203 H   0  0  0  0  0  0  0  0  0  0  0  0
    8.1902   14.4113   24.8731 C   0  0  0  0  0  0  0  0  0  0  0  0
    7.8482   15.3379   26.0704 C   0  0  0  0  0  0  0  0  0  0  0  0
    7.8031   14.7136   27.3974 N   0  0  0  0  0  0  0  0  0  0  0  0
    6.5746   14.0260   27.5682 N   0  0  0  0  0  0  0  0  0  0  0  0
    6.5692   12.6698   27.1935 C   0  0  0  0  0  0  0  0  0  0  0  0
    5.7128   11.7805   27.8553 C   0  0  0  0  0  0  0  0  0  0  0  0
    5.6202   10.4345   27.4704 C   0  0  0  0  0  0  0  0  0  0  0  0
    6.4201    9.9432   26.4420 C   0  0  0  0  0  0  0  0  0  0  0  0
    7.2784   10.8054   25.8015 C   0  0  0  0  0  0  0  0  0  0  0  0
    7.2725   12.1756   26.1112 C   0  0  0  0  0  0  0  0  0  0  0  0
    7.9193   12.8951   24.9746 C   0  0  0  0  0  0  0  0  0  0  0  0
    8.9569   11.8254   24.5325 C   0  0  0  0  0  0  0  0  0  0  0  0
    8.1995   10.4934   24.6594 C   0  0  0  0  0  0  0  0  0  0  0  0
    7.8888   15.4351   28.1133 H   0  0  0  0  0  0  0  0  0  0  0  0
    5.7733   14.4711   27.9274 H   0  0  0  0  0  0  0  0  0  0  0  0
  2  1  1  0  0  0
  2  3  1  0  0  0
  3  4  1  0  0  0
 16  4  1  0  0  0
 16 17  1  0  0  0
 17 18  1  0  0  0
 18 19  1  0  0  0
 19 20  1  0  0  0
 20 21  2  0  0  0
 21 22  1  0  0  0
 22 23  2  0  0  0
 23 24  1  0  0  0
 24 25  2  0  0  0
 25 26  1  0  0  0
 26 27  1  0  0  0
 27 28  1  0  0  0
  4  5  1  0  0  0
  6  5  1  0  0  0
  6  7  1  0  0  0
  6  8  1  0  0  0
  8  9  1  0  0  0
  9 10  1  0  0  0
 10 11  1  0  0  0
 11 12  1  0  0  0
  7  2  1  0  0  0
 26 16  1  0  0  0
 11  6  1  0  0  0
 25 20  1  0  0  0
 28 24  1  0  0  0
 18 29  1  0  0  0
 19 30  1  0  0  0
  8 13  1  0  0  0
 12 14  1  0  0  0
 12 15  1  0  0  0
M  END
> <minimizedAffinity>
-7.97387

> <minimizedRMSD>
1.23306

$$$$
P69715


 24 25  0  0  0  0  0  0  0  0999 V2000
   10.0735   13.4241   23.9332 C   0  0  0  0  0  0  0  0  0  0  0  0
   10.3459   14.1523   22.6999 N   0  0  0  0  0  0  0  0  0  0  0  0
    9.7743   13.8638   21.4287 C   0  0  0  0  0  0  0  0  0  0  0  0
   10.4078   14.8252   20.4346 C   0  0  0  0  0  0  0  0  0  0  0  0
   11.7265   15.1822   21.1058 C   0  0  0  0  0  0  0  0  0  0  0  0
   11.5892   14.6594   22.5055 C   0  0  0  0  0  0  0  0  0  0  0  0
   12.4323   14.6073   23.3807 O   0  0  0  0  0  0  0  0  0  0  0  0
    9.4049   15.9268   20.0749 C   0  0  0  0  0  0  0  0  0  0  0  0
    9.6396   16.4631   18.7394 N   0  0  0  0  0  0  0  0  0  0  0  0
   10.5451   16.9321   18.7157 H   0  0  0  0  0  0  0  0  0  0  0  0
    8.9045   17.1310   18.5072 H   0  0  0  0  0  0  0  0  0  0  0  0
    9.1748   16.9308   21.1471 N   0  0  0  0  0  0  0  0  0  0  0  0
    9.1548   18.0881   20.7099 O   0  0  0  0  0  0  0  0  0  0  0  0
    9.0584   14.1245   24.8445 C   0  0  0  0  0  0  0  0  0  0  0  0
    7.0216   13.2732   26.2180 C   0  0  0  0  0  0  0  0  0  0  0  0
    6.2846   12.1730   26.6113 C   0  0  0  0  0  0  0  0  0  0  0  0
    6.6163   10.8884   26.1841 C   0  0  0  0  0  0  0  0  0  0  0  0
    7.6594   10.6522   25.3410 C   0  0  0  0  0  0  0  0  0  0  0  0
    8.3795   11.7418   24.9351 C   0  0  0  0  0  0  0  0  0  0  0  0
    8.1002   13.0676   25.3588 C   0  0  0  0  0  0  0  0  0  0  0  0
    5.6894   15.2615   26.0135 C   0  0  0  0  0  0  0  0  0  0  0  0
    6.7356   14.5320   26.6274 O   0  0  0  0  0  0  0  0  0  0  0  0
    9.7045   15.0417   25.8428 N   0  0  0  0  0  0  0  0  0  0  0  0
   10.8634   14.7292   26.1441 O   0  0  0  0  0  0  0  0  0  0  0  0
 21 22  1  0  0  0
 22 15  1  0  0  0
 15 16  2  0  0  0
 16 17  1  0  0  0
 17 18  2  0  0  0
 18 19  1  0  0  0
 19 20  2  0  0  0
 20 14  1  0  0  0
 14  1  1  0  0  0
  1  2  1  0  0  0
  2  3  1  0  0  0
  4  3  1  0  0  0
  4  8  1  0  0  0
  8  9  1  0  0  0
  8 12  1  0  0  0
 12 13  2  0  0  0
  4  5  1  0  0  0
  5  6  1  0  0  0
  6  7  2  0  0  0
 14 23  1  0  0  0
 23 24  2  0  0  0
 20 15  1  0  0  0
  6  2  1  0  0  0
  9 10  1  0  0  0
  9 11  1  0  0  0
M  END
> <minimizedAffinity>
-6.14481

> <minimizedRMSD>
2.16265

$$$$
P69735


 24 25  0  0  0  0  0  0  0  0999 V2000
    9.4148   14.1788   25.1861 C   0  0  0  0  0  0  0  0  0  0  0  0
   10.0470   14.3551   23.8931 N   0  0  0  0  0  0  0  0  0  0  0  0
    9.3161   14.3915   22.6741 C   0  0  0  0  0  0  0  0  0  0  0  0
   10.3398   14.2114   21.5434 C   0  0  0  0  0  0  0  0  0  0  0  0
   11.7005   14.2314   22.2301 C   0  0  0  0  0  0  0  0  0  0  0  0
   11.3699   14.1244   23.6960 C   0  0  0  0  0  0  0  0  0  0  0  0
   12.1223   13.8910   24.6251 O   0  0  0  0  0  0  0  0  0  0  0  0
   10.0520   15.2319   20.4352 C   0  0  0  0  0  0  0  0  0  0  0  0
   10.6092   14.9752   19.1134 N   0  0  0  0  0  0  0  0  0  0  0  0
   11.6220   15.0927   19.1428 H   0  0  0  0  0  0  0  0  0  0  0  0
   10.2101   15.6319   18.4428 H   0  0  0  0  0  0  0  0  0  0  0  0
   10.0994   16.6440   20.9330 N   0  0  0  0  0  0  0  0  0  0  0  0
    9.0960   17.3038   20.6339 O   0  0  0  0  0  0  0  0  0  0  0  0
    7.8904   14.0897   25.0803 C   0  0  0  0  0  0  0  0  0  0  0  0
    7.3255   15.3204   25.5385 O   0  0  0  0  0  0  0  0  0  0  0  0
    7.5778   15.4674   26.4635 H   0  0  0  0  0  0  0  0  0  0  0  0
    7.5175   11.6213   25.3422 C   0  0  0  0  0  0  0  0  0  0  0  0
    6.9148   10.5573   25.9971 C   0  0  0  0  0  0  0  0  0  0  0  0
    6.1576   10.7609   27.1557 C   0  0  0  0  0  0  0  0  0  0  0  0
    6.0411   12.0294   27.7030 C   0  0  0  0  0  0  0  0  0  0  0  0
    6.6452   13.1033   27.0629 C   0  0  0  0  0  0  0  0  0  0  0  0
    7.3621   12.9157   25.8691 C   0  0  0  0  0  0  0  0  0  0  0  0
    9.3037   10.6776   24.0040 C   0  0  0  0  0  0  0  0  0  0  0  0
    8.1860   11.5425   24.1500 O   0  0  0  0  0  0  0  0  0  0  0  0
 23 24  1  0  0  0
 24 17  1  0  0  0
 17 18  2  0  0  0
 18 19  1  0  0  0
 19 20  2  0  0  0
 20 21  1  0  0  0
 21 22  2  0  0  0
 22 14  1  0  0  0
 14 15  1  0  0  0
 14  1  1  0  0  0
  1  2  1  0  0  0
  2  3  1  0  0  0
  4  3  1  0  0  0
  4  8  1  0  0  0
  8  9  1  0  0  0
  8 12  1  0  0  0
 12 13  2  0  0  0
  4  5  1  0  0  0
  5  6  1  0  0  0
  6  7  2  0  0  0
 22 17  1  0  0  0
  6  2  1  0  0  0
 15 16  1  0  0  0
  9 10  1  0  0  0
  9 11  1  0  0  0
M  END
> <minimizedAffinity>
-6.78703

> <minimizedRMSD>
1.20545

$$$$
P69742


 26 27  0  0  0  0  0  0  0  0999 V2000
   10.3921   14.2168   23.1078 N   0  0  0  0  0  0  0  0  0  0  0  0
   10.1169   13.9613   21.7205 C   0  0  0  0  0  0  0  0  0  0  0  0
   11.2763   14.5756   20.9736 C   0  0  0  0  0  0  0  0  0  0  0  0
   11.8744   15.5886   21.9302 C   0  0  0  0  0  0  0  0  0  0  0  0
   13.2214   15.5222   21.8564 F   0  0  0  0  0  0  0  0  0  0  0  0
   11.5598   16.8493   21.6041 F   0  0  0  0  0  0  0  0  0  0  0  0
   11.3760   15.1474   23.2924 C   0  0  0  0  0  0  0  0  0  0  0  0
   11.7675   15.4696   24.4059 O   0  0  0  0  0  0  0  0  0  0  0  0
   10.9935   15.1815   19.6089 C   0  0  0  0  0  0  0  0  0  0  0  0
   11.4353   14.3230   18.5276 N   0  0  0  0  0  0  0  0  0  0  0  0
   10.8744   13.4711   18.5190 H   0  0  0  0  0  0  0  0  0  0  0  0
   12.4170   14.0824   18.6639 H   0  0  0  0  0  0  0  0  0  0  0  0
    9.6042   15.6676   19.3789 N   0  0  0  0  0  0  0  0  0  0  0  0
    9.5323   16.8152   18.9302 O   0  0  0  0  0  0  0  0  0  0  0  0
    9.8642   13.4098   24.1777 C   0  0  0  0  0  0  0  0  0  0  0  0
    8.5027   13.8377   24.7442 C   0  0  0  0  0  0  0  0  0  0  0  0
    7.9038   11.3622   25.0675 C   0  0  0  0  0  0  0  0  0  0  0  0
    7.1437   10.4064   25.7303 C   0  0  0  0  0  0  0  0  0  0  0  0
    6.2738   10.7556   26.7656 C   0  0  0  0  0  0  0  0  0  0  0  0
    6.1571   12.0794   27.1575 C   0  0  0  0  0  0  0  0  0  0  0  0
    6.9059   13.0514   26.5050 C   0  0  0  0  0  0  0  0  0  0  0  0
    7.7856   12.7092   25.4576 C   0  0  0  0  0  0  0  0  0  0  0  0
    9.2960    9.8347   23.7894 C   0  0  0  0  0  0  0  0  0  0  0  0
    8.6432   11.0914   23.9501 O   0  0  0  0  0  0  0  0  0  0  0  0
    7.5925   14.4245   23.7161 N   0  0  0  0  0  0  0  0  0  0  0  0
    7.0313   15.4533   24.1082 O   0  0  0  0  0  0  0  0  0  0  0  0
 23 24  1  0  0  0
 24 17  1  0  0  0
 17 18  2  0  0  0
 18 19  1  0  0  0
 19 20  2  0  0  0
 20 21  1  0  0  0
 21 22  2  0  0  0
 22 16  1  0  0  0
 16 15  1  0  0  0
 15  1  1  0  0  0
  1  2  1  0  0  0
  3  2  1  0  0  0
  3  9  1  0  0  0
  9 10  1  0  0  0
  9 13  1  0  0  0
 13 14  2  0  0  0
  3  4  1  0  0  0
  4  5  1  0  0  0
  4  6  1  0  0  0
  4  7  1  0  0  0
  7  8  2  0  0  0
 16 25  1  0  0  0
 25 26  2  0  0  0
 22 17  1  0  0  0
  7  1  1  0  0  0
 10 11  1  0  0  0
 10 12  1  0  0  0
M  END
> <minimizedAffinity>
-5.90410

> <minimizedRMSD>
0.47801

$$$$
P69784


 26 27  0  0  0  0  0  0  0  0999 V2000
    8.6505   13.7957   24.5623 C   0  0  0  0  0  0  0  0  0  0  0  0
    7.7454   14.8439   24.2136 O   0  0  0  0  0  0  0  0  0  0  0  0
    9.5584   14.3267   25.5247 O   0  0  0  0  0  0  0  0  0  0  0  0
    7.0664   14.6875   23.5871 H   0  0  0  0  0  0  0  0  0  0  0  0
   10.2355   13.7845   25.8791 H   0  0  0  0  0  0  0  0  0  0  0  0
    7.9988   11.3193   24.9832 C   0  0  0  0  0  0  0  0  0  0  0  0
    7.2253   10.4085   25.6986 C   0  0  0  0  0  0  0  0  0  0  0  0
    6.2746   10.8288   26.6323 C   0  0  0  0  0  0  0  0  0  0  0  0
    6.0996   12.1784   26.8827 C   0  0  0  0  0  0  0  0  0  0  0  0
    6.8835   13.0999   26.2001 C   0  0  0  0  0  0  0  0  0  0  0  0
    7.8413   12.6978   25.2396 C   0  0  0  0  0  0  0  0  0  0  0  0
    9.2391    9.6002   23.7553 C   0  0  0  0  0  0  0  0  0  0  0  0
    8.9041   10.9542   24.0310 O   0  0  0  0  0  0  0  0  0  0  0  0
    9.3982   13.3519   23.2916 C   0  0  0  0  0  0  0  0  0  0  0  0
   10.0222   14.4559   22.5820 N   0  0  0  0  0  0  0  0  0  0  0  0
    9.6590   14.7267   21.2224 C   0  0  0  0  0  0  0  0  0  0  0  0
   10.9748   14.6741   20.4960 C   0  0  0  0  0  0  0  0  0  0  0  0
   11.9208   15.3138   21.4990 C   0  0  0  0  0  0  0  0  0  0  0  0
   11.3659   14.7480   22.7865 C   0  0  0  0  0  0  0  0  0  0  0  0
   11.9462   14.5585   23.8438 O   0  0  0  0  0  0  0  0  0  0  0  0
   10.8682   15.1611   19.0586 C   0  0  0  0  0  0  0  0  0  0  0  0
   11.4805   14.6224   18.2238 O   0  0  0  0  0  0  0  0  0  0  0  0
    9.8987   16.3592   18.9735 N   0  0  0  0  0  0  0  0  0  0  0  0
    9.4261   17.0564   17.8758 O   0  0  0  0  0  0  0  0  0  0  0  0
    9.5619   16.6794   19.8414 H   0  0  0  0  0  0  0  0  0  0  0  0
    9.8042   16.6793   17.0660 H   0  0  0  0  0  0  0  0  0  0  0  0
 12 13  1  0  0  0
 13  6  1  0  0  0
  6  7  2  0  0  0
  7  8  1  0  0  0
  8  9  2  0  0  0
  9 10  1  0  0  0
 10 11  2  0  0  0
 11  1  1  0  0  0
  1  2  1  0  0  0
  1  3  1  0  0  0
  1 14  1  0  0  0
 14 15  1  0  0  0
 15 16  1  0  0  0
 16 17  1  0  0  0
 17 21  1  0  0  0
 21 22  2  0  0  0
 21 23  1  0  0  0
 23 24  1  0  0  0
 17 18  1  0  0  0
 18 19  1  0  0  0
 19 20  2  0  0  0
 11  6  1  0  0  0
 19 15  1  0  0  0
  2  4  1  0  0  0
  3  5  1  0  0  0
 23 25  1  0  0  0
 24 26  1  0  0  0
M  END
> <minimizedAffinity>
-7.38016

> <minimizedRMSD>
0.29124

$$$$
P70192


 16 16  0  0  0  0  0  0  0  0999 V2000
    8.6093   12.3613   24.7454 C   0  0  0  0  0  0  0  0  0  0  0  0
    8.8435   11.0474   24.3381 C   0  0  0  0  0  0  0  0  0  0  0  0
    8.1355    9.9905   24.9164 C   0  0  0  0  0  0  0  0  0  0  0  0
    7.1433   10.2207   25.8707 C   0  0  0  0  0  0  0  0  0  0  0  0
    6.9207   11.5195   26.2911 C   0  0  0  0  0  0  0  0  0  0  0  0
    7.6741   12.5635   25.7688 C   0  0  0  0  0  0  0  0  0  0  0  0
    5.8786   11.8682   27.2735 C   0  0  0  0  0  0  0  0  0  0  0  0
    5.8897   11.0933   28.5699 C   0  0  0  0  0  0  0  0  0  0  0  0
    4.8337   13.1986   26.7620 S   0  0  0  0  0  0  0  0  0  0  0  0
    5.3627   14.6222   27.6160 C   0  0  0  0  0  0  0  0  0  0  0  0
    3.4677   12.8124   27.5958 O   0  0  0  0  0  0  0  0  0  0  0  0
    9.4014   13.5283   24.1720 C   0  0  0  0  0  0  0  0  0  0  0  0
   11.7710   14.0934   23.4321 C   0  0  0  0  0  0  0  0  0  0  0  0
   10.6120   13.1119   23.3189 C   0  0  0  0  0  0  0  0  0  0  0  0
    8.5300   14.4654   23.5180 O   0  0  0  0  0  0  0  0  0  0  0  0
    8.1505   14.1288   22.1892 C   0  0  0  0  0  0  0  0  0  0  0  0
 13 14  1  0  0  0
 12 14  1  0  0  0
 12 15  1  0  0  0
 15 16  1  0  0  0
 12  1  1  0  0  0
  1  2  2  0  0  0
  2  3  1  0  0  0
  3  4  2  0  0  0
  4  5  1  0  0  0
  5  7  1  0  0  0
  7  8  1  0  0  0
  7  9  2  0  0  0
  9 10  1  0  0  0
  9 11  2  0  0  0
  5  6  2  0  0  0
  6  1  1  0  0  0
M  END
> <minimizedAffinity>
-4.21131

> <minimizedRMSD>
1.29051

$$$$
P70193


 16 16  0  0  0  0  0  0  0  0999 V2000
    8.8449   13.3781   23.7917 C   0  0  0  0  0  0  0  0  0  0  0  0
    8.9824   12.0101   24.0181 C   0  0  0  0  0  0  0  0  0  0  0  0
    8.2005   11.3985   24.9845 C   0  0  0  0  0  0  0  0  0  0  0  0
    7.3308   12.1496   25.7832 C   0  0  0  0  0  0  0  0  0  0  0  0
    7.2315   13.5235   25.6232 C   0  0  0  0  0  0  0  0  0  0  0  0
    7.9191   14.1025   24.5630 C   0  0  0  0  0  0  0  0  0  0  0  0
    6.5391   14.3758   26.6447 C   0  0  0  0  0  0  0  0  0  0  0  0
    7.4053   14.9425   27.7657 C   0  0  0  0  0  0  0  0  0  0  0  0
    4.8357   14.8269   26.4333 S   0  0  0  0  0  0  0  0  0  0  0  0
    4.7357   16.0199   25.1640 C   0  0  0  0  0  0  0  0  0  0  0  0
    4.2278   13.5008   25.6870 O   0  0  0  0  0  0  0  0  0  0  0  0
    9.7203   14.0614   22.7605 C   0  0  0  0  0  0  0  0  0  0  0  0
    9.7212   15.2180   20.5063 C   0  0  0  0  0  0  0  0  0  0  0  0
    8.9136   14.3954   21.5002 C   0  0  0  0  0  0  0  0  0  0  0  0
   10.2856   15.2828   23.2566 O   0  0  0  0  0  0  0  0  0  0  0  0
   11.4928   15.1154   23.9739 C   0  0  0  0  0  0  0  0  0  0  0  0
 13 14  1  0  0  0
 12 14  1  0  0  0
 12 15  1  0  0  0
 15 16  1  0  0  0
 12  1  1  0  0  0
  1  2  2  0  0  0
  2  3  1  0  0  0
  3  4  2  0  0  0
  4  5  1  0  0  0
  5  7  1  0  0  0
  7  8  1  0  0  0
  7  9  2  0  0  0
  9 10  1  0  0  0
  9 11  2  0  0  0
  5  6  2  0  0  0
  6  1  1  0  0  0
M  END
> <minimizedAffinity>
-4.15824

> <minimizedRMSD>
2.49107

$$$$
P71075


 36 38  0  0  0  0  0  0  0  0999 V2000
    8.7455   13.4989   22.9887 C   0  0  0  0  0  0  0  0  0  0  0  0
    9.5552   12.5657   22.3827 O   0  0  0  0  0  0  0  0  0  0  0  0
    7.4291   13.3580   22.5245 O   0  0  0  0  0  0  0  0  0  0  0  0
   10.4683   12.5324   22.5902 H   0  0  0  0  0  0  0  0  0  0  0  0
    6.7559   13.9250   22.8458 H   0  0  0  0  0  0  0  0  0  0  0  0
    9.2319   14.7875   22.5487 N   0  0  0  0  0  0  0  0  0  0  0  0
   10.5270   15.0473   23.1741 C   0  0  0  0  0  0  0  0  0  0  0  0
   11.1188   16.3750   22.7362 C   0  0  0  0  0  0  0  0  0  0  0  0
   10.9073   16.7440   21.2672 C   0  0  0  0  0  0  0  0  0  0  0  0
    9.7726   17.5884   21.0936 O   0  0  0  0  0  0  0  0  0  0  0  0
   10.6500   15.5080   20.4383 C   0  0  0  0  0  0  0  0  0  0  0  0
   10.3814   15.8289   18.9581 C   0  0  0  0  0  0  0  0  0  0  0  0
   11.4524   15.1587   18.2258 N   0  0  0  0  0  0  0  0  0  0  0  0
   11.8763   14.1317   19.0896 N   0  0  0  0  0  0  0  0  0  0  0  0
   11.8827   14.6892   20.3969 N   0  0  0  0  0  0  0  0  0  0  0  0
    9.3848   14.8204   21.0513 C   0  0  0  0  0  0  0  0  0  0  0  0
    8.9735   17.1191   21.3803 H   0  0  0  0  0  0  0  0  0  0  0  0
   12.2167   15.8056   18.0315 H   0  0  0  0  0  0  0  0  0  0  0  0
   12.8130   13.8192   18.8340 H   0  0  0  0  0  0  0  0  0  0  0  0
   12.7093   15.2694   20.5403 H   0  0  0  0  0  0  0  0  0  0  0  0
    8.7367   13.1955   24.4019 N   0  0  0  0  0  0  0  0  0  0  0  0
    9.3303   13.6873   25.0145 H   0  0  0  0  0  0  0  0  0  0  0  0
    6.8474   12.5928   25.8123 C   0  0  0  0  0  0  0  0  0  0  0  0
    6.0511   11.6727   26.5023 C   0  0  0  0  0  0  0  0  0  0  0  0
    6.2307   10.3169   26.2372 C   0  0  0  0  0  0  0  0  0  0  0  0
    7.2043    9.8912   25.3418 C   0  0  0  0  0  0  0  0  0  0  0  0
    8.0337   10.7916   24.6723 C   0  0  0  0  0  0  0  0  0  0  0  0
    7.8683   12.1839   24.9095 C   0  0  0  0  0  0  0  0  0  0  0  0
    5.0751   12.0876   27.5628 C   0  0  0  0  0  0  0  0  0  0  0  0
    4.5520   11.0160   28.2355 F   0  0  0  0  0  0  0  0  0  0  0  0
    3.9948   12.7632   27.0914 F   0  0  0  0  0  0  0  0  0  0  0  0
    5.6436   12.8654   28.5242 F   0  0  0  0  0  0  0  0  0  0  0  0
    5.8102   14.5807   25.2306 C   0  0  0  0  0  0  0  0  0  0  0  0
    6.7336   13.9321   26.1158 O   0  0  0  0  0  0  0  0  0  0  0  0
    9.4004   10.1312   23.7189 S   0  0  0  0  0  0  0  0  0  0  0  0
    9.0838    8.3953   23.4468 C   0  0  0  0  0  0  0  0  0  0  0  0
 33 34  1  0  0  0
 34 23  1  0  0  0
 23 24  2  0  0  0
 24 29  1  0  0  0
 29 30  1  0  0  0
 29 31  1  0  0  0
 29 32  1  0  0  0
 24 25  1  0  0  0
 25 26  2  0  0  0
 26 27  1  0  0  0
 27 35  1  0  0  0
 35 36  1  0  0  0
 27 28  2  0  0  0
 28 21  1  0  0  0
 21  1  1  0  0  0
  1  2  1  0  0  0
  1  3  1  0  0  0
  1  6  1  0  0  0
  6  7  1  0  0  0
  7  8  1  0  0  0
  8  9  1  0  0  0
  9 10  1  0  0  0
  9 11  1  0  0  0
 11 12  1  0  0  0
 12 13  1  0  0  0
 13 14  1  0  0  0
 14 15  1  0  0  0
 11 16  1  0  0  0
 28 23  1  0  0  0
 16  6  1  0  0  0
 15 11  1  0  0  0
 21 22  1  0  0  0
  2  4  1  0  0  0
  3  5  1  0  0  0
 10 17  1  0  0  0
 13 18  1  0  0  0
 14 19  1  0  0  0
 15 20  1  0  0  0
M  END
> <minimizedAffinity>
-7.76239

> <minimizedRMSD>
0.31959

$$$$
P71485


 34 36  0  0  0  0  0  0  0  0999 V2000
    8.1202   14.5049   23.2898 C   0  0  0  0  0  0  0  0  0  0  0  0
    8.4158   13.6157   22.2847 O   0  0  0  0  0  0  0  0  0  0  0  0
    6.7450   14.7318   23.2398 O   0  0  0  0  0  0  0  0  0  0  0  0
    9.2998   13.3343   22.1531 H   0  0  0  0  0  0  0  0  0  0  0  0
    6.3441   15.3168   23.8522 H   0  0  0  0  0  0  0  0  0  0  0  0
    8.8326   15.7316   23.0019 N   0  0  0  0  0  0  0  0  0  0  0  0
   10.1751   15.7821   23.6028 C   0  0  0  0  0  0  0  0  0  0  0  0
   11.3343   15.2954   22.7390 C   0  0  0  0  0  0  0  0  0  0  0  0
   11.4044   16.0696   21.4384 C   0  0  0  0  0  0  0  0  0  0  0  0
   11.6337   17.4292   21.7222 O   0  0  0  0  0  0  0  0  0  0  0  0
   10.1032   15.8535   20.6772 C   0  0  0  0  0  0  0  0  0  0  0  0
   10.2020   14.4841   20.0579 C   0  0  0  0  0  0  0  0  0  0  0  0
   10.6430   14.6850   18.6821 N   0  0  0  0  0  0  0  0  0  0  0  0
   10.4320   16.0474   18.3865 N   0  0  0  0  0  0  0  0  0  0  0  0
    9.9241   16.7123   19.5071 N   0  0  0  0  0  0  0  0  0  0  0  0
    8.8542   16.1193   21.5747 C   0  0  0  0  0  0  0  0  0  0  0  0
   10.9155   17.7690   22.2786 H   0  0  0  0  0  0  0  0  0  0  0  0
   10.0988   14.0990   18.0489 H   0  0  0  0  0  0  0  0  0  0  0  0
    9.7663   16.1261   17.6177 H   0  0  0  0  0  0  0  0  0  0  0  0
    8.9320   16.9065   19.3715 H   0  0  0  0  0  0  0  0  0  0  0  0
    8.3961   13.9593   24.5980 N   0  0  0  0  0  0  0  0  0  0  0  0
    9.1720   14.3383   25.0710 H   0  0  0  0  0  0  0  0  0  0  0  0
    7.9712   11.5816   25.0344 C   0  0  0  0  0  0  0  0  0  0  0  0
    7.2966   10.5539   25.6997 C   0  0  0  0  0  0  0  0  0  0  0  0
    6.3672   10.8557   26.6672 C   0  0  0  0  0  0  0  0  0  0  0  0
    6.1277   12.1852   26.9829 C   0  0  0  0  0  0  0  0  0  0  0  0
    6.7733   13.2641   26.3259 C   0  0  0  0  0  0  0  0  0  0  0  0
    7.6900   12.9532   25.2757 C   0  0  0  0  0  0  0  0  0  0  0  0
    6.4642   14.7049   26.8203 C   0  0  0  0  0  0  0  0  0  0  0  0
    5.9311   14.7569   28.2809 C   0  0  0  0  0  0  0  0  0  0  0  0
    7.7561   15.5587   26.8440 C   0  0  0  0  0  0  0  0  0  0  0  0
    5.3623   15.3790   25.9737 C   0  0  0  0  0  0  0  0  0  0  0  0
   10.6604   12.1173   24.5304 C   0  0  0  0  0  0  0  0  0  0  0  0
    9.2944   10.9908   24.0002 S   0  0  0  0  0  0  0  0  0  0  0  0
 33 34  1  0  0  0
 34 23  1  0  0  0
 23 24  2  0  0  0
 24 25  1  0  0  0
 25 26  2  0  0  0
 26 27  1  0  0  0
 27 29  1  0  0  0
 29 30  1  0  0  0
 29 31  1  0  0  0
 29 32  1  0  0  0
 27 28  2  0  0  0
 28 21  1  0  0  0
 21  1  1  0  0  0
  1  2  1  0  0  0
  1  3  1  0  0  0
  1  6  1  0  0  0
  6  7  1  0  0  0
  7  8  1  0  0  0
  8  9  1  0  0  0
  9 10  1  0  0  0
  9 11  1  0  0  0
 11 12  1  0  0  0
 12 13  1  0  0  0
 13 14  1  0  0  0
 14 15  1  0  0  0
 11 16  1  0  0  0
 28 23  1  0  0  0
 16  6  1  0  0  0
 15 11  1  0  0  0
 21 22  1  0  0  0
  2  4  1  0  0  0
  3  5  1  0  0  0
 10 17  1  0  0  0
 13 18  1  0  0  0
 14 19  1  0  0  0
 15 20  1  0  0  0
M  END
> <minimizedAffinity>
-6.92706

> <minimizedRMSD>
0.70025

$$$$
P72126


 29 32  0  0  0  0  0  0  0  0999 V2000
    9.8759   14.7634   22.8398 N   0  0  0  0  0  0  0  0  0  0  0  0
   10.0432   15.0354   21.4049 C   0  0  0  0  0  0  0  0  0  0  0  0
   11.4480   14.7644   20.8762 C   0  0  0  0  0  0  0  0  0  0  0  0
   12.4653   15.4468   21.7919 C   0  0  0  0  0  0  0  0  0  0  0  0
   12.3188   14.9485   23.2096 C   0  0  0  0  0  0  0  0  0  0  0  0
   10.9054   14.9401   23.7463 C   0  0  0  0  0  0  0  0  0  0  0  0
   10.7344   14.9907   24.9659 O   0  0  0  0  0  0  0  0  0  0  0  0
    9.8172    9.2666   23.1135 C   0  0  0  0  0  0  0  0  0  0  0  0
    9.1571   10.4500   23.7453 C   0  0  0  0  0  0  0  0  0  0  0  0
    8.1146   10.3059   24.6949 C   0  0  0  0  0  0  0  0  0  0  0  0
    7.5749   11.4391   25.2553 C   0  0  0  0  0  0  0  0  0  0  0  0
    8.0782   12.6440   24.9124 C   0  0  0  0  0  0  0  0  0  0  0  0
    8.8790   12.8110   23.8323 C   0  0  0  0  0  0  0  0  0  0  0  0
    9.5300   11.7266   23.2976 C   0  0  0  0  0  0  0  0  0  0  0  0
    8.6306   14.1851   23.3153 C   0  0  0  0  0  0  0  0  0  0  0  0
    7.7084   13.9976   22.2201 O   0  0  0  0  0  0  0  0  0  0  0  0
    7.7889   14.8234   24.5349 C   0  0  0  0  0  0  0  0  0  0  0  0
    7.5204   13.7676   25.5502 N   0  0  0  0  0  0  0  0  0  0  0  0
    6.2722   13.1071   25.9202 C   0  0  0  0  0  0  0  0  0  0  0  0
    6.4766   11.6359   26.0414 O   0  0  0  0  0  0  0  0  0  0  0  0
    8.1786   13.6136   21.4636 H   0  0  0  0  0  0  0  0  0  0  0  0
   11.6349   15.1953   19.4090 C   0  0  0  0  0  0  0  0  0  0  0  0
   11.2470   14.2601   18.4349 N   0  0  0  0  0  0  0  0  0  0  0  0
   10.8738   16.3060   19.0541 O   0  0  0  0  0  0  0  0  0  0  0  0
   12.9879   15.3609   19.1728 O   0  0  0  0  0  0  0  0  0  0  0  0
   10.2495   14.0677   18.5265 H   0  0  0  0  0  0  0  0  0  0  0  0
   11.7732   13.3960   18.5645 H   0  0  0  0  0  0  0  0  0  0  0  0
    9.9447   16.2951   19.1747 H   0  0  0  0  0  0  0  0  0  0  0  0
   13.5872   14.6703   19.3776 H   0  0  0  0  0  0  0  0  0  0  0  0
  8  9  1  0  0  0
  9 10  2  0  0  0
 10 11  1  0  0  0
 11 12  2  0  0  0
 12 13  1  0  0  0
 13 14  2  0  0  0
 13 15  1  0  0  0
 15 16  1  0  0  0
 15  1  1  0  0  0
  1  2  1  0  0  0
  2  3  1  0  0  0
  3 22  1  0  0  0
 22 23  1  0  0  0
 22 24  1  0  0  0
 22 25  1  0  0  0
  3  4  1  0  0  0
  4  5  1  0  0  0
  5  6  1  0  0  0
  6  7  2  0  0  0
 15 17  1  0  0  0
 17 18  1  0  0  0
 18 19  1  0  0  0
 19 20  1  0  0  0
 14  9  1  0  0  0
  6  1  1  0  0  0
 20 11  1  0  0  0
 18 12  1  0  0  0
 16 21  1  0  0  0
 23 26  1  0  0  0
 23 27  1  0  0  0
 24 28  1  0  0  0
 25 29  1  0  0  0
M  END
> <minimizedAffinity>
-8.27965

> <minimizedRMSD>
0.50962

$$$$
P75349


 27 30  0  0  0  0  0  0  0  0999 V2000
   10.0326    8.6658   23.3911 C   0  0  0  0  0  0  0  0  0  0  0  0
    9.2700    9.8657   23.8357 C   0  0  0  0  0  0  0  0  0  0  0  0
    9.8073   10.9704   23.3562 N   0  0  0  0  0  0  0  0  0  0  0  0
    9.3822   12.1225   23.8394 C   0  0  0  0  0  0  0  0  0  0  0  0
    8.2718   12.2541   24.6625 C   0  0  0  0  0  0  0  0  0  0  0  0
    7.6654   13.5049   24.9816 C   0  0  0  0  0  0  0  0  0  0  0  0
    6.6858   13.5531   25.9721 C   0  0  0  0  0  0  0  0  0  0  0  0
    6.2818   12.3740   26.5816 C   0  0  0  0  0  0  0  0  0  0  0  0
    6.8280   11.1514   26.1692 C   0  0  0  0  0  0  0  0  0  0  0  0
    7.8134   11.0506   25.1863 C   0  0  0  0  0  0  0  0  0  0  0  0
    8.3142    9.8540   24.7824 N   0  0  0  0  0  0  0  0  0  0  0  0
    8.0509   14.7662   24.2258 C   0  0  0  0  0  0  0  0  0  0  0  0
    8.3795   14.4805   22.7572 C   0  0  0  0  0  0  0  0  0  0  0  0
    7.4768   14.4281   21.9160 O   0  0  0  0  0  0  0  0  0  0  0  0
    9.8149   13.9792   22.4497 C   0  0  0  0  0  0  0  0  0  0  0  0
   10.8949   15.0316   22.0940 C   0  0  0  0  0  0  0  0  0  0  0  0
   11.9064   15.2299   23.2234 C   0  0  0  0  0  0  0  0  0  0  0  0
   12.3869   14.0258   24.0023 C   0  0  0  0  0  0  0  0  0  0  0  0
   11.6168   12.8145   23.6210 C   0  0  0  0  0  0  0  0  0  0  0  0
   10.2288   13.2150   23.6385 N   0  0  0  0  0  0  0  0  0  0  0  0
   11.7032   14.6977   20.7904 C   0  0  0  0  0  0  0  0  0  0  0  0
   11.1662   15.1700   19.4245 C   0  0  0  0  0  0  0  0  0  0  0  0
   11.3050   14.2015   18.3624 N   0  0  0  0  0  0  0  0  0  0  0  0
   10.6986   13.4029   18.5490 H   0  0  0  0  0  0  0  0  0  0  0  0
   12.2744   13.8879   18.3126 H   0  0  0  0  0  0  0  0  0  0  0  0
    9.8700   15.8686   19.4912 N   0  0  0  0  0  0  0  0  0  0  0  0
    9.2208   15.7319   18.4600 O   0  0  0  0  0  0  0  0  0  0  0  0
  1  2  1  0  0  0
  2  3  2  0  0  0
  3  4  1  0  0  0
  4  5  2  0  0  0
  5  6  1  0  0  0
  6  7  2  0  0  0
  7  8  1  0  0  0
  8  9  2  0  0  0
  9 10  1  0  0  0
 10 11  2  0  0  0
  6 12  1  0  0  0
 12 13  1  0  0  0
 13 14  2  0  0  0
 15 13  1  0  0  0
 15 16  1  0  0  0
 16 21  1  0  0  0
 21 22  1  0  0  0
 22 23  1  0  0  0
 22 26  1  0  0  0
 26 27  2  0  0  0
 16 17  1  0  0  0
 17 18  1  0  0  0
 18 19  1  0  0  0
 19 20  1  0  0  0
 11  2  1  0  0  0
 20 15  1  0  0  0
 20  4  1  0  0  0
 10  5  1  0  0  0
 23 24  1  0  0  0
 23 25  1  0  0  0
M  END
> <minimizedAffinity>
-6.36972

> <minimizedRMSD>
0.41457

$$$$
P75418


 30 33  0  0  0  0  0  0  0  0999 V2000
   11.3857   14.4315   21.9672 C   0  0  0  0  0  0  0  0  0  0  0  0
   12.3218   14.8062   23.1000 C   0  0  0  0  0  0  0  0  0  0  0  0
   12.4545   13.7826   24.2027 C   0  0  0  0  0  0  0  0  0  0  0  0
   11.3897   12.7204   24.2810 C   0  0  0  0  0  0  0  0  0  0  0  0
   10.4201   12.6802   23.1891 N   0  0  0  0  0  0  0  0  0  0  0  0
    9.4035   11.7958   23.4984 C   0  0  0  0  0  0  0  0  0  0  0  0
    9.7700   10.5883   23.1152 N   0  0  0  0  0  0  0  0  0  0  0  0
    9.2584    9.5920   23.7801 C   0  0  0  0  0  0  0  0  0  0  0  0
    8.3628    9.6948   24.7708 N   0  0  0  0  0  0  0  0  0  0  0  0
    7.9189   10.9132   25.0854 C   0  0  0  0  0  0  0  0  0  0  0  0
    7.0369   11.0480   26.1551 C   0  0  0  0  0  0  0  0  0  0  0  0
    6.5188   12.2826   26.5684 C   0  0  0  0  0  0  0  0  0  0  0  0
    6.8087   13.4040   25.7977 C   0  0  0  0  0  0  0  0  0  0  0  0
    7.6800   13.2953   24.7049 C   0  0  0  0  0  0  0  0  0  0  0  0
    8.3319   12.0499   24.4017 C   0  0  0  0  0  0  0  0  0  0  0  0
    7.8882   14.4923   23.8047 C   0  0  0  0  0  0  0  0  0  0  0  0
    9.3673   14.6842   23.6891 C   0  0  0  0  0  0  0  0  0  0  0  0
    9.9791   15.0537   24.6975 O   0  0  0  0  0  0  0  0  0  0  0  0
   10.0623   13.9286   22.5579 C   0  0  0  0  0  0  0  0  0  0  0  0
    5.6368   12.3843   27.7826 C   0  0  0  0  0  0  0  0  0  0  0  0
    5.8037   13.5551   28.4584 F   0  0  0  0  0  0  0  0  0  0  0  0
    4.3106   12.3014   27.4943 F   0  0  0  0  0  0  0  0  0  0  0  0
    5.8808   11.4015   28.6972 F   0  0  0  0  0  0  0  0  0  0  0  0
   11.4038   15.6301   21.0253 C   0  0  0  0  0  0  0  0  0  0  0  0
   10.9784   14.4086   18.9096 N   0  0  0  0  0  0  0  0  0  0  0  0
   10.6592   15.5877   19.6963 C   0  0  0  0  0  0  0  0  0  0  0  0
   11.9910   14.3218   18.8225 H   0  0  0  0  0  0  0  0  0  0  0  0
   10.5637   14.4962   17.9818 H   0  0  0  0  0  0  0  0  0  0  0  0
    9.2281   15.8659   19.9218 N   0  0  0  0  0  0  0  0  0  0  0  0
    9.0195   16.7540   20.7568 O   0  0  0  0  0  0  0  0  0  0  0  0
 26 25  1  0  0  0
 26 24  1  0  0  0
  1 24  1  0  0  0
  1  2  1  0  0  0
  2  3  1  0  0  0
  3  4  1  0  0  0
  4  5  1  0  0  0
  5  6  1  0  0  0
  6  7  1  0  0  0
  7  8  2  0  0  0
  8  9  1  0  0  0
  9 10  2  0  0  0
 10 11  1  0  0  0
 11 12  2  0  0  0
 12 20  1  0  0  0
 20 21  1  0  0  0
 20 22  1  0  0  0
 20 23  1  0  0  0
 12 13  1  0  0  0
 13 14  2  0  0  0
 14 15  1  0  0  0
 14 16  1  0  0  0
 16 17  1  0  0  0
 17 18  2  0  0  0
 19 17  1  0  0  0
 26 29  1  0  0  0
 29 30  2  0  0  0
 19  1  1  0  0  0
 19  5  1  0  0  0
 15  6  2  0  0  0
 15 10  1  0  0  0
 25 27  1  0  0  0
 25 28  1  0  0  0
M  END
> <minimizedAffinity>
-6.07829

> <minimizedRMSD>
0.35924

$$$$
P75423


 25 28  0  0  0  0  0  0  0  0999 V2000
   10.6314   14.9398   22.1469 C   0  0  0  0  0  0  0  0  0  0  0  0
   11.9445   14.9158   22.9215 C   0  0  0  0  0  0  0  0  0  0  0  0
   12.0619   13.8153   23.9739 C   0  0  0  0  0  0  0  0  0  0  0  0
   11.2051   12.6300   23.6224 C   0  0  0  0  0  0  0  0  0  0  0  0
    9.8327   13.0257   23.3259 N   0  0  0  0  0  0  0  0  0  0  0  0
    8.8813   12.2927   23.9998 C   0  0  0  0  0  0  0  0  0  0  0  0
    9.0437   10.9845   23.9938 N   0  0  0  0  0  0  0  0  0  0  0  0
    8.2795   10.3025   24.8195 C   0  0  0  0  0  0  0  0  0  0  0  0
    7.4368   10.8291   25.7278 N   0  0  0  0  0  0  0  0  0  0  0  0
    7.2554   12.1552   25.6985 C   0  0  0  0  0  0  0  0  0  0  0  0
    6.4356   12.8378   26.5981 C   0  0  0  0  0  0  0  0  0  0  0  0
    6.1867   14.2164   26.4649 C   0  0  0  0  0  0  0  0  0  0  0  0
    6.7005   14.9202   25.3701 C   0  0  0  0  0  0  0  0  0  0  0  0
    7.5396   14.2432   24.4983 C   0  0  0  0  0  0  0  0  0  0  0  0
    7.8838   12.9120   24.7304 C   0  0  0  0  0  0  0  0  0  0  0  0
    8.1067   14.7609   23.2240 C   0  0  0  0  0  0  0  0  0  0  0  0
    7.3936   15.2594   22.3736 O   0  0  0  0  0  0  0  0  0  0  0  0
    9.5975   14.4430   23.1513 C   0  0  0  0  0  0  0  0  0  0  0  0
   10.9492   14.2063   20.8323 C   0  0  0  0  0  0  0  0  0  0  0  0
   11.2824   14.6032   18.5111 N   0  0  0  0  0  0  0  0  0  0  0  0
   10.4031   14.9189   19.6326 C   0  0  0  0  0  0  0  0  0  0  0  0
   11.3273   13.5916   18.3886 H   0  0  0  0  0  0  0  0  0  0  0  0
   12.2174   14.9646   18.7000 H   0  0  0  0  0  0  0  0  0  0  0  0
   10.2486   16.3578   19.9205 N   0  0  0  0  0  0  0  0  0  0  0  0
    9.2030   16.7981   19.4521 O   0  0  0  0  0  0  0  0  0  0  0  0
 21 20  1  0  0  0
 21 19  1  0  0  0
  1 19  1  0  0  0
  1  2  1  0  0  0
  2  3  1  0  0  0
  3  4  1  0  0  0
  4  5  1  0  0  0
  5  6  1  0  0  0
  6  7  2  0  0  0
  7  8  1  0  0  0
  8  9  2  0  0  0
  9 10  1  0  0  0
 10 11  2  0  0  0
 11 12  1  0  0  0
 12 13  2  0  0  0
 13 14  1  0  0  0
 14 15  2  0  0  0
 14 16  1  0  0  0
 16 17  2  0  0  0
 18 16  1  0  0  0
 21 24  1  0  0  0
 24 25  2  0  0  0
 18  1  1  0  0  0
 18  5  1  0  0  0
 15  6  1  0  0  0
 15 10  1  0  0  0
 20 22  1  0  0  0
 20 23  1  0  0  0
M  END
> <minimizedAffinity>
-7.30668

> <minimizedRMSD>
1.03191

$$$$
P77468


 29 32  0  0  0  0  0  0  0  0999 V2000
    9.5460   15.5586   23.3522 N   0  0  0  0  0  0  0  0  0  0  0  0
   10.8972   15.7556   23.9119 C   0  0  0  0  0  0  0  0  0  0  0  0
   11.9194   15.3600   22.8703 C   0  0  0  0  0  0  0  0  0  0  0  0
   11.7312   16.1102   21.5521 C   0  0  0  0  0  0  0  0  0  0  0  0
   12.6358   15.5404   20.6167 O   0  0  0  0  0  0  0  0  0  0  0  0
   10.2606   16.0704   21.0332 C   0  0  0  0  0  0  0  0  0  0  0  0
    9.8538   14.7589   20.3992 C   0  0  0  0  0  0  0  0  0  0  0  0
   10.3705   14.8379   19.0457 N   0  0  0  0  0  0  0  0  0  0  0  0
   10.2651   16.2052   18.7037 N   0  0  0  0  0  0  0  0  0  0  0  0
   10.0777   16.9910   19.8944 N   0  0  0  0  0  0  0  0  0  0  0  0
    9.3018   16.4235   22.1735 C   0  0  0  0  0  0  0  0  0  0  0  0
   12.4303   14.5996   20.5001 H   0  0  0  0  0  0  0  0  0  0  0  0
    9.8125   14.2644   18.4131 H   0  0  0  0  0  0  0  0  0  0  0  0
    9.4682   16.3383   18.0810 H   0  0  0  0  0  0  0  0  0  0  0  0
    9.1390   17.3896   19.9101 H   0  0  0  0  0  0  0  0  0  0  0  0
    8.2886   15.4786   24.4737 S   0  0  0  0  0  0  0  0  0  0  0  0
    7.0615   15.9228   23.8547 O   0  0  0  0  0  0  0  0  0  0  0  0
    8.7664   16.0494   25.7180 O   0  0  0  0  0  0  0  0  0  0  0  0
    9.4867   10.3821   23.6768 C   0  0  0  0  0  0  0  0  0  0  0  0
    8.6736   11.4285   24.3593 C   0  0  0  0  0  0  0  0  0  0  0  0
    8.8761   12.7876   24.1304 C   0  0  0  0  0  0  0  0  0  0  0  0
    8.0681   13.7454   24.7614 C   0  0  0  0  0  0  0  0  0  0  0  0
    7.0349   13.2907   25.5951 C   0  0  0  0  0  0  0  0  0  0  0  0
    6.0508   13.9820   26.2680 N   0  0  0  0  0  0  0  0  0  0  0  0
    5.2591   13.1097   26.9679 C   0  0  0  0  0  0  0  0  0  0  0  0
    5.7156   11.8371   26.7202 C   0  0  0  0  0  0  0  0  0  0  0  0
    6.8311   11.9429   25.8543 C   0  0  0  0  0  0  0  0  0  0  0  0
    7.6795   11.0143   25.2448 C   0  0  0  0  0  0  0  0  0  0  0  0
    5.9337   14.9593   26.2486 H   0  0  0  0  0  0  0  0  0  0  0  0
 19 20  1  0  0  0
 20 21  2  0  0  0
 21 22  1  0  0  0
 22 16  1  0  0  0
 16 17  2  0  0  0
 16 18  2  0  0  0
 16  1  1  0  0  0
  1  2  1  0  0  0
  2  3  1  0  0  0
  3  4  1  0  0  0
  4  5  1  0  0  0
  4  6  1  0  0  0
  6  7  1  0  0  0
  7  8  1  0  0  0
  8  9  1  0  0  0
  9 10  1  0  0  0
  6 11  1  0  0  0
 22 23  2  0  0  0
 23 24  1  0  0  0
 24 25  1  0  0  0
 25 26  2  0  0  0
 26 27  1  0  0  0
 27 28  2  0  0  0
 28 20  1  0  0  0
 11  1  1  0  0  0
 27 23  1  0  0  0
 10  6  1  0  0  0
  5 12  1  0  0  0
  8 13  1  0  0  0
  9 14  1  0  0  0
 10 15  1  0  0  0
 24 29  1  0  0  0
M  END
> <minimizedAffinity>
-9.09073

> <minimizedRMSD>
0.71577

$$$$
P78117


 16 17  0  0  0  0  0  0  0  0999 V2000
    6.3132   13.7932   25.7083 N   0  0  0  0  0  0  0  0  0  0  0  0
    7.7030   13.8517   25.1345 C   0  0  0  0  0  0  0  0  0  0  0  0
    8.0791   12.4432   24.7773 C   0  0  0  0  0  0  0  0  0  0  0  0
    9.1315   11.9556   24.0108 C   0  0  0  0  0  0  0  0  0  0  0  0
   10.1619   12.8563   23.4058 C   0  0  0  0  0  0  0  0  0  0  0  0
    9.1795   10.5720   23.7947 C   0  0  0  0  0  0  0  0  0  0  0  0
    8.2258    9.7161   24.3658 C   0  0  0  0  0  0  0  0  0  0  0  0
    7.2081   10.2218   25.1735 C   0  0  0  0  0  0  0  0  0  0  0  0
    7.1617   11.5848   25.3849 C   0  0  0  0  0  0  0  0  0  0  0  0
    6.2400   12.3910   26.2504 C   0  0  0  0  0  0  0  0  0  0  0  0
    6.6692   12.4261   27.5485 F   0  0  0  0  0  0  0  0  0  0  0  0
    4.9588   11.9351   26.2991 F   0  0  0  0  0  0  0  0  0  0  0  0
    5.3136   13.9547   24.6138 N   0  0  0  0  0  0  0  0  0  0  0  0
    5.7933   14.2456   23.7619 H   0  0  0  0  0  0  0  0  0  0  0  0
    4.9196   16.2849   25.4208 C   0  0  0  0  0  0  0  0  0  0  0  0
    4.3176   14.9618   24.9716 C   0  0  0  0  0  0  0  0  0  0  0  0
 15 16  1  0  0  0
 16 13  1  0  0  0
 13  1  1  0  0  0
  1  2  1  0  0  0
  2  3  1  0  0  0
  3  4  2  0  0  0
  4  5  1  0  0  0
  4  6  1  0  0  0
  6  7  2  0  0  0
  7  8  1  0  0  0
  8  9  2  0  0  0
  9 10  1  0  0  0
 10 11  1  0  0  0
 10 12  1  0  0  0
 10  1  1  0  0  0
  9  3  1  0  0  0
 13 14  1  0  0  0
M  END
> <minimizedAffinity>
-4.73473

> <minimizedRMSD>
1.69371

$$$$
P79138


 29 31  0  0  0  0  0  0  0  0999 V2000
    8.3267   10.5581   24.6803 C   0  0  0  0  0  0  0  0  0  0  0  0
    7.4826    9.5785   25.0661 N   0  0  0  0  0  0  0  0  0  0  0  0
    6.4914    9.9397   25.9141 C   0  0  0  0  0  0  0  0  0  0  0  0
    6.2821   11.2347   26.3647 C   0  0  0  0  0  0  0  0  0  0  0  0
    4.8506   11.5894   27.5515 Br  0  0  0  0  0  0  0  0  0  0  0  0
    7.1474   12.2443   25.9294 C   0  0  0  0  0  0  0  0  0  0  0  0
    8.2313   11.8814   25.1160 C   0  0  0  0  0  0  0  0  0  0  0  0
    9.2722   12.9030   24.7350 C   0  0  0  0  0  0  0  0  0  0  0  0
    8.7648   13.9668   23.7332 C   0  0  0  0  0  0  0  0  0  0  0  0
    8.0012   13.2854   22.7282 O   0  0  0  0  0  0  0  0  0  0  0  0
    7.8785   15.0103   24.4237 C   0  0  0  0  0  0  0  0  0  0  0  0
    6.6324   14.4310   25.0869 C   0  0  0  0  0  0  0  0  0  0  0  0
    6.9395   13.6088   26.2765 N   0  0  0  0  0  0  0  0  0  0  0  0
    8.5601   12.6247   22.2901 H   0  0  0  0  0  0  0  0  0  0  0  0
    6.9934   13.9611   27.1943 H   0  0  0  0  0  0  0  0  0  0  0  0
    9.8792   14.6294   23.0270 N   0  0  0  0  0  0  0  0  0  0  0  0
    9.9912   14.5387   21.5655 C   0  0  0  0  0  0  0  0  0  0  0  0
   10.5595   15.8162   20.9365 C   0  0  0  0  0  0  0  0  0  0  0  0
   11.7401   16.3924   21.7228 C   0  0  0  0  0  0  0  0  0  0  0  0
   12.1423   15.4833   22.8656 C   0  0  0  0  0  0  0  0  0  0  0  0
   10.9407   15.1931   23.7289 C   0  0  0  0  0  0  0  0  0  0  0  0
   10.9615   15.4027   24.9385 O   0  0  0  0  0  0  0  0  0  0  0  0
   11.0233   15.5315   19.4984 C   0  0  0  0  0  0  0  0  0  0  0  0
    9.9992   15.8801   18.5505 N   0  0  0  0  0  0  0  0  0  0  0  0
   12.1303   15.1127   19.3295 O   0  0  0  0  0  0  0  0  0  0  0  0
    9.1294   16.2157   18.8667 H   0  0  0  0  0  0  0  0  0  0  0  0
   10.1681   15.7832   17.5854 H   0  0  0  0  0  0  0  0  0  0  0  0
    9.4973    8.9039   23.4630 C   0  0  0  0  0  0  0  0  0  0  0  0
    9.3498   10.2776   23.7957 O   0  0  0  0  0  0  0  0  0  0  0  0
 28 29  1  0  0  0
 29  1  1  0  0  0
  1  2  2  0  0  0
  2  3  1  0  0  0
  3  4  2  0  0  0
  4  5  1  0  0  0
  4  6  1  0  0  0
  6  7  2  0  0  0
  7  8  1  0  0  0
  8  9  1  0  0  0
  9 10  1  0  0  0
  9 16  1  0  0  0
 16 17  1  0  0  0
 17 18  1  0  0  0
 18 23  1  0  0  0
 23 24  1  0  0  0
 23 25  2  0  0  0
 18 19  1  0  0  0
 19 20  1  0  0  0
 20 21  1  0  0  0
 21 22  2  0  0  0
  9 11  1  0  0  0
 11 12  1  0  0  0
 12 13  1  0  0  0
  7  1  1  0  0  0
 21 16  1  0  0  0
 13  6  1  0  0  0
 10 14  1  0  0  0
 24 26  1  0  0  0
 24 27  1  0  0  0
 13 15  1  0  0  0
M  END
> <minimizedAffinity>
-8.76027

> <minimizedRMSD>
0.44073

$$$$
P79214


 28 30  0  0  0  0  0  0  0  0999 V2000
    8.5852   14.0156   24.1859 C   0  0  0  0  0  0  0  0  0  0  0  0
    8.6903   14.4768   22.7147 C   0  0  0  0  0  0  0  0  0  0  0  0
    9.5293   15.6745   22.8331 N   0  0  0  0  0  0  0  0  0  0  0  0
    9.9411   16.4409   21.6698 C   0  0  0  0  0  0  0  0  0  0  0  0
   11.1816   16.0528   20.8458 C   0  0  0  0  0  0  0  0  0  0  0  0
   12.2069   15.2887   21.6837 C   0  0  0  0  0  0  0  0  0  0  0  0
   11.6971   14.5241   22.8990 C   0  0  0  0  0  0  0  0  0  0  0  0
   10.6454   15.3082   23.6692 C   0  0  0  0  0  0  0  0  0  0  0  0
   11.2138   16.4271   24.3165 O   0  0  0  0  0  0  0  0  0  0  0  0
    9.9345   14.4500   24.6979 C   0  0  0  0  0  0  0  0  0  0  0  0
   10.3859   14.2676   25.8224 O   0  0  0  0  0  0  0  0  0  0  0  0
   11.9586   16.1383   24.8669 H   0  0  0  0  0  0  0  0  0  0  0  0
   10.7213   15.3993   19.5567 C   0  0  0  0  0  0  0  0  0  0  0  0
   11.6481   14.6516   18.7831 N   0  0  0  0  0  0  0  0  0  0  0  0
   10.2202   16.3591   18.6793 O   0  0  0  0  0  0  0  0  0  0  0  0
    9.6724   14.5660   19.9032 O   0  0  0  0  0  0  0  0  0  0  0  0
   12.4302   15.2500   18.5174 H   0  0  0  0  0  0  0  0  0  0  0  0
   11.1864   14.3026   17.9432 H   0  0  0  0  0  0  0  0  0  0  0  0
   10.7882   17.0184   18.3319 H   0  0  0  0  0  0  0  0  0  0  0  0
    9.8165   13.8516   20.4922 H   0  0  0  0  0  0  0  0  0  0  0  0
    7.2947   12.2768   25.4824 C   0  0  0  0  0  0  0  0  0  0  0  0
    7.0769   10.9718   25.9268 C   0  0  0  0  0  0  0  0  0  0  0  0
    7.7938    9.9239   25.3624 C   0  0  0  0  0  0  0  0  0  0  0  0
    8.7275   10.1855   24.3606 C   0  0  0  0  0  0  0  0  0  0  0  0
    8.9604   11.5001   23.9335 C   0  0  0  0  0  0  0  0  0  0  0  0
    8.2594   12.5749   24.5037 C   0  0  0  0  0  0  0  0  0  0  0  0
    5.4150   12.7382   26.7108 C   0  0  0  0  0  0  0  0  0  0  0  0
    6.5898   13.2780   26.1000 O   0  0  0  0  0  0  0  0  0  0  0  0
 27 28  1  0  0  0
 28 21  1  0  0  0
 21 22  2  0  0  0
 22 23  1  0  0  0
 23 24  2  0  0  0
 24 25  1  0  0  0
 25 26  2  0  0  0
  1 26  1  0  0  0
  1  2  1  0  0  0
  2  3  1  0  0  0
  3  4  1  0  0  0
  4  5  1  0  0  0
  5 13  1  0  0  0
 13 14  1  0  0  0
 13 15  1  0  0  0
 13 16  1  0  0  0
  5  6  1  0  0  0
  6  7  1  0  0  0
  7  8  1  0  0  0
  8  9  1  0  0  0
  8 10  1  0  0  0
 10 11  2  0  0  0
 26 21  1  0  0  0
 10  1  1  0  0  0
  8  3  1  0  0  0
 14 17  1  0  0  0
 14 18  1  0  0  0
 15 19  1  0  0  0
 16 20  1  0  0  0
  9 12  1  0  0  0
M  END
> <minimizedAffinity>
-8.11103

> <minimizedRMSD>
0.75758

$$$$
P79970


 29 31  0  0  0  0  0  0  0  0999 V2000
    9.6180   14.4583   22.8135 N   0  0  0  0  0  0  0  0  0  0  0  0
    9.4530   15.2401   21.5677 C   0  0  0  0  0  0  0  0  0  0  0  0
   10.7418   15.5811   20.7445 C   0  0  0  0  0  0  0  0  0  0  0  0
   10.3917   16.6164   19.7010 C   0  0  0  0  0  0  0  0  0  0  0  0
    9.7964   15.8341   18.6465 N   0  0  0  0  0  0  0  0  0  0  0  0
   10.6593   14.7139   18.5818 N   0  0  0  0  0  0  0  0  0  0  0  0
   11.2593   14.5340   19.8517 N   0  0  0  0  0  0  0  0  0  0  0  0
   11.8721   16.0051   21.6702 C   0  0  0  0  0  0  0  0  0  0  0  0
   11.9964   15.0428   22.8404 C   0  0  0  0  0  0  0  0  0  0  0  0
   12.2854   13.7016   22.4311 O   0  0  0  0  0  0  0  0  0  0  0  0
   10.7163   14.9639   23.6602 C   0  0  0  0  0  0  0  0  0  0  0  0
    9.7891   16.3468   17.7647 H   0  0  0  0  0  0  0  0  0  0  0  0
   11.3816   14.8763   17.8801 H   0  0  0  0  0  0  0  0  0  0  0  0
   12.2729   14.6159   19.7715 H   0  0  0  0  0  0  0  0  0  0  0  0
   11.5448   13.3564   21.9083 H   0  0  0  0  0  0  0  0  0  0  0  0
   10.4797   16.2308   24.3921 N   0  0  0  0  0  0  0  0  0  0  0  0
   10.9291   16.2164   25.5453 O   0  0  0  0  0  0  0  0  0  0  0  0
    8.3116   14.3144   23.4930 C   0  0  0  0  0  0  0  0  0  0  0  0
    8.2743   14.1706   25.0381 C   0  0  0  0  0  0  0  0  0  0  0  0
    9.5424   13.8491   25.6183 O   0  0  0  0  0  0  0  0  0  0  0  0
    9.8182   12.9669   25.3242 H   0  0  0  0  0  0  0  0  0  0  0  0
    7.7060   11.7416   25.2385 C   0  0  0  0  0  0  0  0  0  0  0  0
    7.0440   10.7652   25.9566 C   0  0  0  0  0  0  0  0  0  0  0  0
    6.0339   11.0757   26.8795 C   0  0  0  0  0  0  0  0  0  0  0  0
    5.6527   12.3918   27.0855 C   0  0  0  0  0  0  0  0  0  0  0  0
    6.3292   13.3945   26.4113 C   0  0  0  0  0  0  0  0  0  0  0  0
    7.3741   13.0758   25.5268 C   0  0  0  0  0  0  0  0  0  0  0  0
    9.2746   10.3182   23.9907 C   0  0  0  0  0  0  0  0  0  0  0  0
    8.6883   11.5756   24.2940 O   0  0  0  0  0  0  0  0  0  0  0  0
 28 29  1  0  0  0
 29 22  1  0  0  0
 22 23  2  0  0  0
 23 24  1  0  0  0
 24 25  2  0  0  0
 25 26  1  0  0  0
 26 27  2  0  0  0
 27 19  1  0  0  0
 19 20  1  0  0  0
 19 18  1  0  0  0
 18  1  1  0  0  0
  1  2  1  0  0  0
  3  2  1  0  0  0
  3  4  1  0  0  0
  4  5  1  0  0  0
  5  6  1  0  0  0
  6  7  1  0  0  0
  3  8  1  0  0  0
  8  9  1  0  0  0
  9 10  1  0  0  0
  9 11  1  0  0  0
 11 16  1  0  0  0
 16 17  2  0  0  0
 27 22  1  0  0  0
 11  1  1  0  0  0
  7  3  1  0  0  0
 20 21  1  0  0  0
  5 12  1  0  0  0
  6 13  1  0  0  0
  7 14  1  0  0  0
 10 15  1  0  0  0
M  END
> <minimizedAffinity>
-6.71547

> <minimizedRMSD>
0.39880

$$$$
P80496


 21 22  0  0  0  0  0  0  0  0999 V2000
    9.5249   13.8800   25.0350 C   0  0  0  0  0  0  0  0  0  0  0  0
    9.2181   12.3951   24.7871 C   0  0  0  0  0  0  0  0  0  0  0  0
    9.9583   11.6463   23.8557 C   0  0  0  0  0  0  0  0  0  0  0  0
    9.6683   10.2996   23.6160 C   0  0  0  0  0  0  0  0  0  0  0  0
    8.6519    9.6664   24.3023 C   0  0  0  0  0  0  0  0  0  0  0  0
    8.3658    8.3843   24.0487 F   0  0  0  0  0  0  0  0  0  0  0  0
    7.8945   10.3733   25.2128 C   0  0  0  0  0  0  0  0  0  0  0  0
    8.1643   11.7246   25.4464 C   0  0  0  0  0  0  0  0  0  0  0  0
    7.0900   12.5217   26.5363 Cl  0  0  0  0  0  0  0  0  0  0  0  0
    9.1006   14.8682   23.8956 C   0  0  0  0  0  0  0  0  0  0  0  0
   10.3135   15.5754   23.2664 C   0  0  0  0  0  0  0  0  0  0  0  0
    8.2816   14.1388   22.8044 C   0  0  0  0  0  0  0  0  0  0  0  0
    7.6528   15.0878   21.7892 C   0  0  0  0  0  0  0  0  0  0  0  0
    7.1015   16.3437   22.4541 C   0  0  0  0  0  0  0  0  0  0  0  0
    7.0307   16.1872   23.9617 C   0  0  0  0  0  0  0  0  0  0  0  0
    8.3031   15.8928   24.5275 O   0  0  0  0  0  0  0  0  0  0  0  0
   10.9720   14.1725   25.4975 C   0  0  0  0  0  0  0  0  0  0  0  0
   11.9665   13.8147   24.8623 O   0  0  0  0  0  0  0  0  0  0  0  0
   11.1234   14.9335   26.8236 C   0  0  0  0  0  0  0  0  0  0  0  0
    9.6185   16.4207   27.8409 C   0  0  0  0  0  0  0  0  0  0  0  0
   10.5429   16.2264   26.7802 O   0  0  0  0  0  0  0  0  0  0  0  0
 20 21  1  0  0  0
 21 19  1  0  0  0
 19 17  1  0  0  0
 17 18  2  0  0  0
  1 17  1  0  0  0
  1  2  1  0  0  0
  2  3  2  0  0  0
  3  4  1  0  0  0
  4  5  2  0  0  0
  5  6  1  0  0  0
  5  7  1  0  0  0
  7  8  2  0  0  0
  8  9  1  0  0  0
  1 10  1  0  0  0
 10 11  1  0  0  0
 10 12  1  0  0  0
 12 13  1  0  0  0
 13 14  1  0  0  0
 14 15  1  0  0  0
 15 16  1  0  0  0
  8  2  1  0  0  0
 16 10  1  0  0  0
M  END
> <minimizedAffinity>
-5.99915

> <minimizedRMSD>
1.94902

$$$$
P81034


 11 12  0  0  0  0  0  0  0  0999 V2000
   10.3564   13.5308   22.8899 C   0  0  0  0  0  0  0  0  0  0  0  0
    9.4078   12.6721   23.6735 C   0  0  0  0  0  0  0  0  0  0  0  0
    9.4307   11.2722   23.5349 C   0  0  0  0  0  0  0  0  0  0  0  0
    8.5086   10.4705   24.2145 C   0  0  0  0  0  0  0  0  0  0  0  0
    7.5896   11.0748   25.0571 C   0  0  0  0  0  0  0  0  0  0  0  0
    7.5548   12.4662   25.1933 C   0  0  0  0  0  0  0  0  0  0  0  0
    8.4404   13.2710   24.4923 C   0  0  0  0  0  0  0  0  0  0  0  0
    6.4487   12.8824   26.1236 C   0  0  0  0  0  0  0  0  0  0  0  0
    6.7781   14.0463   27.0456 C   0  0  0  0  0  0  0  0  0  0  0  0
    6.2278   11.5709   26.9021 C   0  0  0  0  0  0  0  0  0  0  0  0
    6.5425   10.4350   25.9174 C   0  0  0  0  0  0  0  0  0  0  0  0
  1  2  1  0  0  0
  2  3  2  0  0  0
  3  4  1  0  0  0
  4  5  2  0  0  0
  5  6  1  0  0  0
  6  7  2  0  0  0
  6  8  1  0  0  0
  8  9  1  0  0  0
  8 10  1  0  0  0
 10 11  1  0  0  0
  7  2  1  0  0  0
 11  5  1  0  0  0
M  END
> <minimizedAffinity>
-4.52386

> <minimizedRMSD>
1.99407

$$$$
P81110


 24 25  0  0  0  0  0  0  0  0999 V2000
    8.7827   13.6746   23.7129 C   0  0  0  0  0  0  0  0  0  0  0  0
    9.6177   14.8647   23.4229 N   0  0  0  0  0  0  0  0  0  0  0  0
   10.9894   14.6849   23.9053 C   0  0  0  0  0  0  0  0  0  0  0  0
   12.0175   15.3874   23.0516 C   0  0  0  0  0  0  0  0  0  0  0  0
   11.9878   14.8480   21.6467 C   0  0  0  0  0  0  0  0  0  0  0  0
   10.5686   14.8173   21.0806 C   0  0  0  0  0  0  0  0  0  0  0  0
    9.5341   15.3984   22.0478 C   0  0  0  0  0  0  0  0  0  0  0  0
   10.5602   15.5323   19.7380 C   0  0  0  0  0  0  0  0  0  0  0  0
    9.8999   16.5468   19.5241 O   0  0  0  0  0  0  0  0  0  0  0  0
   11.4020   14.8915   18.6456 C   0  0  0  0  0  0  0  0  0  0  0  0
   11.4675   15.6659   17.4780 O   0  0  0  0  0  0  0  0  0  0  0  0
   10.5766   15.7703   17.1088 H   0  0  0  0  0  0  0  0  0  0  0  0
    8.7344   13.3540   25.2538 C   0  0  0  0  0  0  0  0  0  0  0  0
    8.4772   14.6390   26.0844 C   0  0  0  0  0  0  0  0  0  0  0  0
    8.0909   10.8679   25.1892 C   0  0  0  0  0  0  0  0  0  0  0  0
    7.2742    9.8353   25.6368 C   0  0  0  0  0  0  0  0  0  0  0  0
    6.2400   10.1216   26.5123 C   0  0  0  0  0  0  0  0  0  0  0  0
    5.9812   11.3481   26.9831 N   0  0  0  0  0  0  0  0  0  0  0  0
    6.7609   12.3435   26.5118 C   0  0  0  0  0  0  0  0  0  0  0  0
    7.8428   12.1751   25.6428 C   0  0  0  0  0  0  0  0  0  0  0  0
    9.3065    9.4181   23.7035 C   0  0  0  0  0  0  0  0  0  0  0  0
    9.1357   10.6957   24.3191 O   0  0  0  0  0  0  0  0  0  0  0  0
    7.3803   13.6733   23.1637 N   0  0  0  0  0  0  0  0  0  0  0  0
    6.7335   14.6860   23.4544 O   0  0  0  0  0  0  0  0  0  0  0  0
 21 22  1  0  0  0
 22 15  1  0  0  0
 15 16  2  0  0  0
 16 17  1  0  0  0
 17 18  2  0  0  0
 18 19  1  0  0  0
 19 20  2  0  0  0
 20 13  1  0  0  0
 13 14  1  0  0  0
 13  1  1  0  0  0
  1 23  1  0  0  0
 23 24  2  0  0  0
  1  2  1  0  0  0
  2  3  1  0  0  0
  3  4  1  0  0  0
  4  5  1  0  0  0
  5  6  1  0  0  0
  6  8  1  0  0  0
  8  9  2  0  0  0
  8 10  1  0  0  0
 10 11  1  0  0  0
  6  7  1  0  0  0
 20 15  1  0  0  0
  7  2  1  0  0  0
 11 12  1  0  0  0
M  END
> <minimizedAffinity>
-7.23234

> <minimizedRMSD>
0.31456

$$$$
P81113


 26 28  0  0  0  0  0  0  0  0999 V2000
    8.2616   10.6317   24.8190 C   0  0  0  0  0  0  0  0  0  0  0  0
    7.3973    9.6717   25.3126 C   0  0  0  0  0  0  0  0  0  0  0  0
    6.5330   10.0217   26.3327 C   0  0  0  0  0  0  0  0  0  0  0  0
    6.4622   11.2557   26.8655 N   0  0  0  0  0  0  0  0  0  0  0  0
    7.2622   12.2181   26.3402 C   0  0  0  0  0  0  0  0  0  0  0  0
    8.2301   11.9212   25.3770 C   0  0  0  0  0  0  0  0  0  0  0  0
    9.2028   12.9749   24.9233 C   0  0  0  0  0  0  0  0  0  0  0  0
    8.5900   13.9811   23.9161 C   0  0  0  0  0  0  0  0  0  0  0  0
    8.1856   13.2194   22.7798 O   0  0  0  0  0  0  0  0  0  0  0  0
    7.3119   14.6401   24.5054 C   0  0  0  0  0  0  0  0  0  0  0  0
    7.3674   14.8506   26.0210 C   0  0  0  0  0  0  0  0  0  0  0  0
    7.0083   13.6127   26.8703 C   0  0  0  0  0  0  0  0  0  0  0  0
    8.9613   12.7918   22.3845 H   0  0  0  0  0  0  0  0  0  0  0  0
    9.5218   15.0293   23.4838 N   0  0  0  0  0  0  0  0  0  0  0  0
   10.9051   15.0611   23.9466 C   0  0  0  0  0  0  0  0  0  0  0  0
   11.9362   15.1059   22.8189 C   0  0  0  0  0  0  0  0  0  0  0  0
   11.4979   14.2077   21.6856 C   0  0  0  0  0  0  0  0  0  0  0  0
   10.1897   14.7266   21.0744 C   0  0  0  0  0  0  0  0  0  0  0  0
    9.3602   15.5239   22.1027 C   0  0  0  0  0  0  0  0  0  0  0  0
   10.4350   15.5343   19.7951 C   0  0  0  0  0  0  0  0  0  0  0  0
    9.8575   16.5945   19.5509 O   0  0  0  0  0  0  0  0  0  0  0  0
   11.3897   14.9276   18.7737 C   0  0  0  0  0  0  0  0  0  0  0  0
   11.4407   15.6388   17.5576 O   0  0  0  0  0  0  0  0  0  0  0  0
   10.5655   15.6277   17.1396 H   0  0  0  0  0  0  0  0  0  0  0  0
    9.5038    9.0997   23.4414 C   0  0  0  0  0  0  0  0  0  0  0  0
    9.1489   10.4334   23.7923 O   0  0  0  0  0  0  0  0  0  0  0  0
 25 26  1  0  0  0
 26  1  1  0  0  0
  1  2  2  0  0  0
  2  3  1  0  0  0
  3  4  2  0  0  0
  4  5  1  0  0  0
  5  6  2  0  0  0
  6  7  1  0  0  0
  7  8  1  0  0  0
  8  9  1  0  0  0
  8 14  1  0  0  0
 14 15  1  0  0  0
 15 16  1  0  0  0
 16 17  1  0  0  0
 17 18  1  0  0  0
 18 20  1  0  0  0
 20 21  2  0  0  0
 20 22  1  0  0  0
 22 23  1  0  0  0
 18 19  1  0  0  0
  8 10  1  0  0  0
 10 11  1  0  0  0
 11 12  1  0  0  0
  6  1  1  0  0  0
 19 14  1  0  0  0
 12  5  1  0  0  0
  9 13  1  0  0  0
 23 24  1  0  0  0
M  END
> <minimizedAffinity>
-8.84009

> <minimizedRMSD>
0.18331

$$$$
P81114


 29 31  0  0  0  0  0  0  0  0999 V2000
    8.4610   13.5769   25.2065 C   0  0  0  0  0  0  0  0  0  0  0  0
    8.1786   10.9779   25.0699 C   0  0  0  0  0  0  0  0  0  0  0  0
    7.4882    9.8314   25.4694 C   0  0  0  0  0  0  0  0  0  0  0  0
    6.3952    9.9512   26.3056 C   0  0  0  0  0  0  0  0  0  0  0  0
    5.9535   11.1202   26.7708 N   0  0  0  0  0  0  0  0  0  0  0  0
    6.6076   12.2194   26.3336 C   0  0  0  0  0  0  0  0  0  0  0  0
    7.7491   12.2412   25.5256 C   0  0  0  0  0  0  0  0  0  0  0  0
    9.5798    9.6790   23.6074 C   0  0  0  0  0  0  0  0  0  0  0  0
    9.2674   10.9231   24.2411 O   0  0  0  0  0  0  0  0  0  0  0  0
    7.7701   14.8756   25.8003 C   0  0  0  0  0  0  0  0  0  0  0  0
    8.3907   15.4342   27.0979 C   0  0  0  0  0  0  0  0  0  0  0  0
    7.7367   16.7652   27.5086 C   0  0  0  0  0  0  0  0  0  0  0  0
    8.0112   16.9266   29.0042 C   0  0  0  0  0  0  0  0  0  0  0  0
    8.5835   15.5937   29.4709 C   0  0  0  0  0  0  0  0  0  0  0  0
    8.2055   14.6125   28.3712 C   0  0  0  0  0  0  0  0  0  0  0  0
    8.8219   13.8102   23.6829 C   0  0  0  0  0  0  0  0  0  0  0  0
    9.5441   15.0830   23.4541 N   0  0  0  0  0  0  0  0  0  0  0  0
   10.9088   15.0527   23.9781 C   0  0  0  0  0  0  0  0  0  0  0  0
   11.9832   15.0991   22.8916 C   0  0  0  0  0  0  0  0  0  0  0  0
   11.5943   14.2545   21.6969 C   0  0  0  0  0  0  0  0  0  0  0  0
   10.2830   14.7495   21.0766 C   0  0  0  0  0  0  0  0  0  0  0  0
    9.4987   15.6077   22.0769 C   0  0  0  0  0  0  0  0  0  0  0  0
   10.4754   15.5175   19.7701 C   0  0  0  0  0  0  0  0  0  0  0  0
    9.8487   16.5477   19.5212 O   0  0  0  0  0  0  0  0  0  0  0  0
   11.3977   14.8975   18.7331 C   0  0  0  0  0  0  0  0  0  0  0  0
   11.4708   15.6257   17.5306 O   0  0  0  0  0  0  0  0  0  0  0  0
   10.5943   15.6541   17.1161 H   0  0  0  0  0  0  0  0  0  0  0  0
    7.6349   13.5840   22.8146 N   0  0  0  0  0  0  0  0  0  0  0  0
    6.7541   14.4420   22.9344 O   0  0  0  0  0  0  0  0  0  0  0  0
  8  9  1  0  0  0
  9  2  1  0  0  0
  2  3  2  0  0  0
  3  4  1  0  0  0
  4  5  2  0  0  0
  5  6  1  0  0  0
  6  7  2  0  0  0
  7  1  1  0  0  0
  1 10  1  0  0  0
 10 11  1  0  0  0
 11 12  1  0  0  0
 12 13  1  0  0  0
 13 14  1  0  0  0
 14 15  1  0  0  0
  1 16  1  0  0  0
 16 28  1  0  0  0
 28 29  2  0  0  0
 16 17  1  0  0  0
 17 18  1  0  0  0
 18 19  1  0  0  0
 19 20  1  0  0  0
 20 21  1  0  0  0
 21 23  1  0  0  0
 23 24  2  0  0  0
 23 25  1  0  0  0
 25 26  1  0  0  0
 21 22  1  0  0  0
  7  2  1  0  0  0
 15 11  1  0  0  0
 22 17  1  0  0  0
 26 27  1  0  0  0
M  END
> <minimizedAffinity>
-7.22632

> <minimizedRMSD>
0.32539

$$$$
P81120


 24 26  0  0  0  0  0  0  0  0999 V2000
    9.1529   13.0031   24.3588 C   0  0  0  0  0  0  0  0  0  0  0  0
   10.3129   13.5867   24.6805 C   0  0  0  0  0  0  0  0  0  0  0  0
   10.4712   14.9113   24.0091 C   0  0  0  0  0  0  0  0  0  0  0  0
   11.7227   15.0894   23.1586 C   0  0  0  0  0  0  0  0  0  0  0  0
   11.5998   14.5039   21.7610 C   0  0  0  0  0  0  0  0  0  0  0  0
   10.2782   14.8734   21.0566 C   0  0  0  0  0  0  0  0  0  0  0  0
    9.3227   15.6629   21.9479 C   0  0  0  0  0  0  0  0  0  0  0  0
    9.2649   14.9876   23.2236 N   0  0  0  0  0  0  0  0  0  0  0  0
    8.5143   13.8341   23.3285 C   0  0  0  0  0  0  0  0  0  0  0  0
    7.5637   13.4680   22.6571 O   0  0  0  0  0  0  0  0  0  0  0  0
    8.4800   10.5971   24.5848 C   0  0  0  0  0  0  0  0  0  0  0  0
    7.6425    9.6878   25.2179 C   0  0  0  0  0  0  0  0  0  0  0  0
    6.7951   10.1192   26.2258 C   0  0  0  0  0  0  0  0  0  0  0  0
    6.7527   11.3787   26.6612 N   0  0  0  0  0  0  0  0  0  0  0  0
    7.5368   12.2559   26.0091 C   0  0  0  0  0  0  0  0  0  0  0  0
    7.3534   13.8645   26.5969 Cl  0  0  0  0  0  0  0  0  0  0  0  0
    8.4324   11.9258   24.9936 C   0  0  0  0  0  0  0  0  0  0  0  0
    9.5892    8.9159   23.3205 C   0  0  0  0  0  0  0  0  0  0  0  0
    9.3282   10.2854   23.5638 O   0  0  0  0  0  0  0  0  0  0  0  0
   10.4910   15.5975   19.7505 C   0  0  0  0  0  0  0  0  0  0  0  0
    9.9072   16.6453   19.4783 O   0  0  0  0  0  0  0  0  0  0  0  0
   11.4096   14.9166   18.7595 C   0  0  0  0  0  0  0  0  0  0  0  0
   11.4720   15.6116   17.5426 O   0  0  0  0  0  0  0  0  0  0  0  0
   10.5886   15.6441   17.1432 H   0  0  0  0  0  0  0  0  0  0  0  0
 18 19  1  0  0  0
 19 11  1  0  0  0
 11 12  2  0  0  0
 12 13  1  0  0  0
 13 14  2  0  0  0
 14 15  1  0  0  0
 15 16  1  0  0  0
 15 17  2  0  0  0
 17  1  1  0  0  0
  1  2  2  0  0  0
  2  3  1  0  0  0
  3  4  1  0  0  0
  4  5  1  0  0  0
  5  6  1  0  0  0
  6 20  1  0  0  0
 20 21  2  0  0  0
 20 22  1  0  0  0
 22 23  1  0  0  0
  6  7  1  0  0  0
  7  8  1  0  0  0
  8  9  1  0  0  0
  9 10  2  0  0  0
 17 11  1  0  0  0
  9  1  1  0  0  0
  8  3  1  0  0  0
 23 24  1  0  0  0
M  END
> <minimizedAffinity>
-8.97042

> <minimizedRMSD>
0.39476

$$$$
P81149


 27 28  0  0  0  0  0  0  0  0999 V2000
    8.4715   13.9424   24.0416 C   0  0  0  0  0  0  0  0  0  0  0  0
    7.6816   13.1839   23.1577 O   0  0  0  0  0  0  0  0  0  0  0  0
    7.7282   15.0161   24.5480 O   0  0  0  0  0  0  0  0  0  0  0  0
    8.0429   12.4288   22.7369 H   0  0  0  0  0  0  0  0  0  0  0  0
    8.1212   15.6140   25.1530 H   0  0  0  0  0  0  0  0  0  0  0  0
    9.5891   14.4083   23.2650 N   0  0  0  0  0  0  0  0  0  0  0  0
   10.7001   15.0200   23.9839 C   0  0  0  0  0  0  0  0  0  0  0  0
   11.8247   15.3589   23.0051 C   0  0  0  0  0  0  0  0  0  0  0  0
   11.7673   14.5153   21.7475 C   0  0  0  0  0  0  0  0  0  0  0  0
   10.3905   14.6312   21.0727 C   0  0  0  0  0  0  0  0  0  0  0  0
    9.3127   15.1484   22.0322 C   0  0  0  0  0  0  0  0  0  0  0  0
   10.5006   15.4457   19.8159 C   0  0  0  0  0  0  0  0  0  0  0  0
    9.9038   16.5112   19.6548 O   0  0  0  0  0  0  0  0  0  0  0  0
   11.4327   14.9080   18.7401 C   0  0  0  0  0  0  0  0  0  0  0  0
   11.3240   15.7425   17.6112 O   0  0  0  0  0  0  0  0  0  0  0  0
   10.4057   15.7456   17.2988 H   0  0  0  0  0  0  0  0  0  0  0  0
    8.9679   13.0563   25.1957 C   0  0  0  0  0  0  0  0  0  0  0  0
    8.1057   10.7012   25.0095 C   0  0  0  0  0  0  0  0  0  0  0  0
    7.2403    9.7144   25.4391 C   0  0  0  0  0  0  0  0  0  0  0  0
    6.3115   10.0135   26.4235 C   0  0  0  0  0  0  0  0  0  0  0  0
    6.1984   11.2172   27.0095 N   0  0  0  0  0  0  0  0  0  0  0  0
    7.0370   12.1745   26.5669 C   0  0  0  0  0  0  0  0  0  0  0  0
    8.0214   11.9631   25.6059 C   0  0  0  0  0  0  0  0  0  0  0  0
    9.3945    9.2486   23.5826 C   0  0  0  0  0  0  0  0  0  0  0  0
    9.0457   10.5551   24.0259 O   0  0  0  0  0  0  0  0  0  0  0  0
    6.9701   13.4344   27.1276 O   0  0  0  0  0  0  0  0  0  0  0  0
    5.6418   13.9334   27.2316 C   0  0  0  0  0  0  0  0  0  0  0  0
 24 25  1  0  0  0
 25 18  1  0  0  0
 18 19  2  0  0  0
 19 20  1  0  0  0
 20 21  2  0  0  0
 21 22  1  0  0  0
 22 26  1  0  0  0
 26 27  1  0  0  0
 22 23  2  0  0  0
 23 17  1  0  0  0
 17  1  1  0  0  0
  1  2  1  0  0  0
  1  3  1  0  0  0
  1  6  1  0  0  0
  6  7  1  0  0  0
  7  8  1  0  0  0
  8  9  1  0  0  0
  9 10  1  0  0  0
 10 12  1  0  0  0
 12 13  2  0  0  0
 12 14  1  0  0  0
 14 15  1  0  0  0
 10 11  1  0  0  0
 23 18  1  0  0  0
 11  6  1  0  0  0
  2  4  1  0  0  0
  3  5  1  0  0  0
 15 16  1  0  0  0
M  END
> <minimizedAffinity>
-7.65708

> <minimizedRMSD>
0.34077

$$$$
P81154


 29 31  0  0  0  0  0  0  0  0999 V2000
    8.0705   10.6946   25.0224 C   0  0  0  0  0  0  0  0  0  0  0  0
    7.2124    9.7199   25.5024 C   0  0  0  0  0  0  0  0  0  0  0  0
    6.2608   10.0758   26.4519 C   0  0  0  0  0  0  0  0  0  0  0  0
    6.0788   11.3315   26.9134 N   0  0  0  0  0  0  0  0  0  0  0  0
    6.9118   12.2624   26.4098 C   0  0  0  0  0  0  0  0  0  0  0  0
    7.9573   11.9875   25.5434 C   0  0  0  0  0  0  0  0  0  0  0  0
    8.9474   13.0594   25.2148 C   0  0  0  0  0  0  0  0  0  0  0  0
    8.5496   14.0246   24.0743 C   0  0  0  0  0  0  0  0  0  0  0  0
    7.9222   13.2411   23.0572 O   0  0  0  0  0  0  0  0  0  0  0  0
    7.6293   15.1726   24.5709 C   0  0  0  0  0  0  0  0  0  0  0  0
    6.1629   14.8172   24.8467 C   0  0  0  0  0  0  0  0  0  0  0  0
    5.7865   14.2627   26.2288 C   0  0  0  0  0  0  0  0  0  0  0  0
    6.8140   13.5415   26.9022 O   0  0  0  0  0  0  0  0  0  0  0  0
    8.5256   12.5367   22.7733 H   0  0  0  0  0  0  0  0  0  0  0  0
    9.7608   14.5068   23.4332 N   0  0  0  0  0  0  0  0  0  0  0  0
   10.9364   14.8824   24.1941 C   0  0  0  0  0  0  0  0  0  0  0  0
   12.1341   14.4613   23.3504 C   0  0  0  0  0  0  0  0  0  0  0  0
   12.1129   15.1901   22.0171 C   0  0  0  0  0  0  0  0  0  0  0  0
   10.7783   14.9592   21.2869 C   0  0  0  0  0  0  0  0  0  0  0  0
    9.6077   15.3028   22.2153 C   0  0  0  0  0  0  0  0  0  0  0  0
   10.8020   15.7287   19.9649 C   0  0  0  0  0  0  0  0  0  0  0  0
    9.5610   16.3568   19.5673 N   0  0  0  0  0  0  0  0  0  0  0  0
    8.8703   15.6381   19.3510 H   0  0  0  0  0  0  0  0  0  0  0  0
    9.7212   16.9339   18.7417 H   0  0  0  0  0  0  0  0  0  0  0  0
   11.3073   14.8765   18.8116 C   0  0  0  0  0  0  0  0  0  0  0  0
   11.3708   15.6597   17.6308 O   0  0  0  0  0  0  0  0  0  0  0  0
   10.4861   15.9954   17.4174 H   0  0  0  0  0  0  0  0  0  0  0  0
    9.3114    9.1874   23.6123 C   0  0  0  0  0  0  0  0  0  0  0  0
    9.0390   10.5079   24.0702 O   0  0  0  0  0  0  0  0  0  0  0  0
 28 29  1  0  0  0
 29  1  1  0  0  0
  1  2  2  0  0  0
  2  3  1  0  0  0
  3  4  2  0  0  0
  4  5  1  0  0  0
  5  6  2  0  0  0
  6  7  1  0  0  0
  7  8  1  0  0  0
  8  9  1  0  0  0
  8 15  1  0  0  0
 15 16  1  0  0  0
 16 17  1  0  0  0
 17 18  1  0  0  0
 19 18  1  0  0  0
 19 21  1  0  0  0
 21 22  1  0  0  0
 21 25  1  0  0  0
 25 26  1  0  0  0
 19 20  1  0  0  0
  8 10  1  0  0  0
 10 11  1  0  0  0
 11 12  1  0  0  0
 12 13  1  0  0  0
  6  1  1  0  0  0
 20 15  1  0  0  0
 13  5  1  0  0  0
  9 14  1  0  0  0
 22 23  1  0  0  0
 22 24  1  0  0  0
 26 27  1  0  0  0
M  END
> <minimizedAffinity>
-8.96854

> <minimizedRMSD>
0.32251

$$$$
P81159


 23 25  0  0  0  0  0  0  0  0999 V2000
    8.8530   13.1587   24.6827 C   0  0  0  0  0  0  0  0  0  0  0  0
    9.9982   13.7875   24.9905 C   0  0  0  0  0  0  0  0  0  0  0  0
   10.4364   14.7399   23.9202 C   0  0  0  0  0  0  0  0  0  0  0  0
   11.7154   14.3042   23.2119 C   0  0  0  0  0  0  0  0  0  0  0  0
   11.8064   14.7826   21.7555 C   0  0  0  0  0  0  0  0  0  0  0  0
   10.7024   15.7527   21.3168 C   0  0  0  0  0  0  0  0  0  0  0  0
    9.3108   15.3272   21.7571 C   0  0  0  0  0  0  0  0  0  0  0  0
    9.3251   14.6509   23.0262 N   0  0  0  0  0  0  0  0  0  0  0  0
    8.4145   13.6941   23.3793 C   0  0  0  0  0  0  0  0  0  0  0  0
    7.4477   13.3270   22.7381 O   0  0  0  0  0  0  0  0  0  0  0  0
    8.2471   10.7660   24.8923 C   0  0  0  0  0  0  0  0  0  0  0  0
    7.4199    9.8056   25.4559 C   0  0  0  0  0  0  0  0  0  0  0  0
    6.5585   10.1763   26.4791 C   0  0  0  0  0  0  0  0  0  0  0  0
    6.4929   11.4180   26.9963 N   0  0  0  0  0  0  0  0  0  0  0  0
    7.2577   12.3535   26.3874 C   0  0  0  0  0  0  0  0  0  0  0  0
    8.1479   12.0841   25.3533 C   0  0  0  0  0  0  0  0  0  0  0  0
    9.4430    9.1899   23.5254 C   0  0  0  0  0  0  0  0  0  0  0  0
    9.1521   10.5355   23.8896 O   0  0  0  0  0  0  0  0  0  0  0  0
   10.6071   15.9966   19.8232 C   0  0  0  0  0  0  0  0  0  0  0  0
    9.9285   16.9359   19.3986 O   0  0  0  0  0  0  0  0  0  0  0  0
   11.2937   15.0451   18.8686 C   0  0  0  0  0  0  0  0  0  0  0  0
   11.4248   15.6177   17.5873 O   0  0  0  0  0  0  0  0  0  0  0  0
   10.5451   15.8174   17.2308 H   0  0  0  0  0  0  0  0  0  0  0  0
 17 18  1  0  0  0
 18 11  1  0  0  0
 11 12  2  0  0  0
 12 13  1  0  0  0
 13 14  2  0  0  0
 14 15  1  0  0  0
 15 16  2  0  0  0
 16  1  1  0  0  0
  1  2  2  0  0  0
  2  3  1  0  0  0
  3  4  1  0  0  0
  4  5  1  0  0  0
  5  6  1  0  0  0
  6 19  1  0  0  0
 19 20  2  0  0  0
 19 21  1  0  0  0
 21 22  1  0  0  0
  6  7  1  0  0  0
  7  8  1  0  0  0
  8  9  1  0  0  0
  9 10  2  0  0  0
 16 11  1  0  0  0
  9  1  1  0  0  0
  8  3  1  0  0  0
 22 23  1  0  0  0
M  END
> <minimizedAffinity>
-8.85560

> <minimizedRMSD>
0.25473

$$$$
P81173


 27 28  0  0  0  0  0  0  0  0999 V2000
    8.8369   13.3735   23.9521 C   0  0  0  0  0  0  0  0  0  0  0  0
    9.6866   12.1957   23.5446 C   0  0  0  0  0  0  0  0  0  0  0  0
    7.6369   13.2858   23.1891 O   0  0  0  0  0  0  0  0  0  0  0  0
    7.1520   12.4841   23.4403 H   0  0  0  0  0  0  0  0  0  0  0  0
    9.5572   14.6003   23.5527 N   0  0  0  0  0  0  0  0  0  0  0  0
   10.9080   14.7547   24.0817 C   0  0  0  0  0  0  0  0  0  0  0  0
   11.8582   15.4575   23.1306 C   0  0  0  0  0  0  0  0  0  0  0  0
   11.9150   14.7178   21.8205 C   0  0  0  0  0  0  0  0  0  0  0  0
   10.5301   14.6275   21.1758 C   0  0  0  0  0  0  0  0  0  0  0  0
    9.3985   15.0454   22.1455 C   0  0  0  0  0  0  0  0  0  0  0  0
   10.4999   15.4216   19.8647 C   0  0  0  0  0  0  0  0  0  0  0  0
    9.7926   16.4151   19.6992 O   0  0  0  0  0  0  0  0  0  0  0  0
   11.3659   14.8829   18.7250 C   0  0  0  0  0  0  0  0  0  0  0  0
   11.3810   15.7017   17.5793 O   0  0  0  0  0  0  0  0  0  0  0  0
   10.4846   15.7627   17.2137 H   0  0  0  0  0  0  0  0  0  0  0  0
    8.4725   13.2904   25.4772 C   0  0  0  0  0  0  0  0  0  0  0  0
    8.0108   14.6824   25.9840 C   0  0  0  0  0  0  0  0  0  0  0  0
    5.6837   10.3925   27.0288 C   0  0  0  0  0  0  0  0  0  0  0  0
    6.7197    9.9407   26.2121 C   0  0  0  0  0  0  0  0  0  0  0  0
    7.6303   10.8568   25.6698 C   0  0  0  0  0  0  0  0  0  0  0  0
    7.4268   12.2256   25.8637 C   0  0  0  0  0  0  0  0  0  0  0  0
    6.3304   12.6659   26.5180 N   0  0  0  0  0  0  0  0  0  0  0  0
    5.5023   11.7637   27.0846 C   0  0  0  0  0  0  0  0  0  0  0  0
    4.9369    9.5131   28.0052 C   0  0  0  0  0  0  0  0  0  0  0  0
    2.7635    9.7433   29.2567 C   0  0  0  0  0  0  0  0  0  0  0  0
    3.4062    9.4669   27.8931 C   0  0  0  0  0  0  0  0  0  0  0  0
    2.9297    8.1030   27.3891 C   0  0  0  0  0  0  0  0  0  0  0  0
 25 26  1  0  0  0
 26 27  1  0  0  0
 26 24  1  0  0  0
 24 18  1  0  0  0
 18 19  2  0  0  0
 19 20  1  0  0  0
 20 21  2  0  0  0
 21 16  1  0  0  0
 16 17  1  0  0  0
 16  1  1  0  0  0
  1  2  1  0  0  0
  1  3  1  0  0  0
  1  5  1  0  0  0
  5  6  1  0  0  0
  6  7  1  0  0  0
  7  8  1  0  0  0
  8  9  1  0  0  0
  9 11  1  0  0  0
 11 12  2  0  0  0
 11 13  1  0  0  0
 13 14  1  0  0  0
  9 10  1  0  0  0
 21 22  1  0  0  0
 22 23  2  0  0  0
 23 18  1  0  0  0
 10  5  1  0  0  0
  3  4  1  0  0  0
 14 15  1  0  0  0
M  END
> <minimizedAffinity>
-7.52108

> <minimizedRMSD>
0.56533

$$$$
P81184


 27 29  0  0  0  0  0  0  0  0999 V2000
    9.0886   13.6330   23.7381 C   0  0  0  0  0  0  0  0  0  0  0  0
    8.1432   13.5536   22.5966 N   0  0  0  0  0  0  0  0  0  0  0  0
    8.5116   14.5501   21.8524 C   0  0  0  0  0  0  0  0  0  0  0  0
    9.5563   15.4773   22.3775 C   0  0  0  0  0  0  0  0  0  0  0  0
   10.8539   15.6422   21.5700 C   0  0  0  0  0  0  0  0  0  0  0  0
   11.8800   14.5488   21.8558 C   0  0  0  0  0  0  0  0  0  0  0  0
   12.0647   14.2190   23.3288 C   0  0  0  0  0  0  0  0  0  0  0  0
   11.0851   14.9521   24.2308 C   0  0  0  0  0  0  0  0  0  0  0  0
    9.7155   14.9663   23.7419 N   0  0  0  0  0  0  0  0  0  0  0  0
   10.7708   15.9715   20.0562 C   0  0  0  0  0  0  0  0  0  0  0  0
    9.6564   16.8003   19.6272 N   0  0  0  0  0  0  0  0  0  0  0  0
    8.8009   16.2448   19.6242 H   0  0  0  0  0  0  0  0  0  0  0  0
    9.8365   17.1523   18.6870 H   0  0  0  0  0  0  0  0  0  0  0  0
   11.1051   14.8988   19.0273 C   0  0  0  0  0  0  0  0  0  0  0  0
   11.3429   15.4878   17.7549 O   0  0  0  0  0  0  0  0  0  0  0  0
   10.5471   15.9594   17.4631 H   0  0  0  0  0  0  0  0  0  0  0  0
    8.3754   13.4196   25.0830 C   0  0  0  0  0  0  0  0  0  0  0  0
    8.0941   10.8342   24.9511 C   0  0  0  0  0  0  0  0  0  0  0  0
    7.3946    9.7115   25.3881 C   0  0  0  0  0  0  0  0  0  0  0  0
    6.3827    9.8629   26.3197 C   0  0  0  0  0  0  0  0  0  0  0  0
    6.0430   11.0390   26.8647 N   0  0  0  0  0  0  0  0  0  0  0  0
    6.7155   12.1232   26.4164 C   0  0  0  0  0  0  0  0  0  0  0  0
    7.7388   12.0948   25.4527 C   0  0  0  0  0  0  0  0  0  0  0  0
    9.5509    9.5018   23.5668 C   0  0  0  0  0  0  0  0  0  0  0  0
    9.1197   10.7685   24.0535 O   0  0  0  0  0  0  0  0  0  0  0  0
    6.4317   13.3437   27.0039 O   0  0  0  0  0  0  0  0  0  0  0  0
    5.0813   13.7504   26.8250 C   0  0  0  0  0  0  0  0  0  0  0  0
 24 25  1  0  0  0
 25 18  1  0  0  0
 18 19  2  0  0  0
 19 20  1  0  0  0
 20 21  2  0  0  0
 21 22  1  0  0  0
 22 26  1  0  0  0
 26 27  1  0  0  0
 22 23  2  0  0  0
 23 17  1  0  0  0
  1 17  1  0  0  0
  1  2  1  0  0  0
  2  3  2  0  0  0
  4  3  1  0  0  0
  4  5  1  0  0  0
  5 10  1  0  0  0
 10 11  1  0  0  0
 10 14  1  0  0  0
 14 15  1  0  0  0
  5  6  1  0  0  0
  6  7  1  0  0  0
  7  8  1  0  0  0
  8  9  1  0  0  0
 23 18  1  0  0  0
  9  1  1  0  0  0
  9  4  1  0  0  0
 11 12  1  0  0  0
 11 13  1  0  0  0
 15 16  1  0  0  0
M  END
> <minimizedAffinity>
-7.67810

> <minimizedRMSD>
0.35027

$$$$
P81190


 24 25  0  0  0  0  0  0  0  0999 V2000
    8.9607   13.6089   23.7041 C   0  0  0  0  0  0  0  0  0  0  0  0
    7.4692   13.7295   23.3416 C   0  0  0  0  0  0  0  0  0  0  0  0
    9.5589   14.9646   23.5030 N   0  0  0  0  0  0  0  0  0  0  0  0
   10.9085   15.1144   24.0520 C   0  0  0  0  0  0  0  0  0  0  0  0
   12.0028   15.3662   23.0146 C   0  0  0  0  0  0  0  0  0  0  0  0
   11.8489   14.6226   21.7123 C   0  0  0  0  0  0  0  0  0  0  0  0
   10.4563   14.8161   21.1163 C   0  0  0  0  0  0  0  0  0  0  0  0
    9.5051   15.5034   22.1139 C   0  0  0  0  0  0  0  0  0  0  0  0
   10.5306   15.5584   19.7888 C   0  0  0  0  0  0  0  0  0  0  0  0
    9.8755   16.5766   19.5694 O   0  0  0  0  0  0  0  0  0  0  0  0
   11.3853   14.9172   18.7002 C   0  0  0  0  0  0  0  0  0  0  0  0
   11.4352   15.6742   17.5158 O   0  0  0  0  0  0  0  0  0  0  0  0
   10.5424   15.7534   17.1449 H   0  0  0  0  0  0  0  0  0  0  0  0
    9.5749   12.5689   22.8244 N   0  0  0  0  0  0  0  0  0  0  0  0
   10.5592   12.0103   23.3218 O   0  0  0  0  0  0  0  0  0  0  0  0
    9.0472   13.0801   25.1885 C   0  0  0  0  0  0  0  0  0  0  0  0
    7.8751   10.7522   25.3877 C   0  0  0  0  0  0  0  0  0  0  0  0
    6.8374    9.9970   25.9189 C   0  0  0  0  0  0  0  0  0  0  0  0
    5.9428   10.5969   26.7837 C   0  0  0  0  0  0  0  0  0  0  0  0
    6.0060   11.8919   27.1349 N   0  0  0  0  0  0  0  0  0  0  0  0
    6.9935   12.6229   26.5682 C   0  0  0  0  0  0  0  0  0  0  0  0
    7.9658   12.1205   25.7002 C   0  0  0  0  0  0  0  0  0  0  0  0
    8.6427    8.9554   23.9600 C   0  0  0  0  0  0  0  0  0  0  0  0
    8.8522   10.2026   24.6170 O   0  0  0  0  0  0  0  0  0  0  0  0
 23 24  1  0  0  0
 24 17  1  0  0  0
 17 18  2  0  0  0
 18 19  1  0  0  0
 19 20  2  0  0  0
 20 21  1  0  0  0
 21 22  2  0  0  0
 22 16  1  0  0  0
 16  1  1  0  0  0
  1  2  1  0  0  0
  1 14  1  0  0  0
 14 15  2  0  0  0
  1  3  1  0  0  0
  3  4  1  0  0  0
  4  5  1  0  0  0
  5  6  1  0  0  0
  6  7  1  0  0  0
  7  9  1  0  0  0
  9 10  2  0  0  0
  9 11  1  0  0  0
 11 12  1  0  0  0
  7  8  1  0  0  0
 22 17  1  0  0  0
  8  3  1  0  0  0
 12 13  1  0  0  0
M  END
> <minimizedAffinity>
-6.89710

> <minimizedRMSD>
0.39808

$$$$
P81193


 28 30  0  0  0  0  0  0  0  0999 V2000
    8.1285   10.6715   24.9334 C   0  0  0  0  0  0  0  0  0  0  0  0
    7.2918    9.8022   25.6045 C   0  0  0  0  0  0  0  0  0  0  0  0
    6.4237   10.3205   26.5459 C   0  0  0  0  0  0  0  0  0  0  0  0
    6.3245   11.6322   26.8318 N   0  0  0  0  0  0  0  0  0  0  0  0
    7.1008   12.4788   26.1300 C   0  0  0  0  0  0  0  0  0  0  0  0
    8.0495   12.0447   25.2072 C   0  0  0  0  0  0  0  0  0  0  0  0
    9.0683   12.9411   24.5608 C   0  0  0  0  0  0  0  0  0  0  0  0
    8.8314   14.4623   24.4773 C   0  0  0  0  0  0  0  0  0  0  0  0
    9.0887   15.0912   25.7106 O   0  0  0  0  0  0  0  0  0  0  0  0
    7.3670   14.7739   24.1314 C   0  0  0  0  0  0  0  0  0  0  0  0
    6.4041   14.6375   25.3196 C   0  0  0  0  0  0  0  0  0  0  0  0
    6.9059   13.8234   26.4406 N   0  0  0  0  0  0  0  0  0  0  0  0
   10.0070   14.9228   25.9740 H   0  0  0  0  0  0  0  0  0  0  0  0
    7.0881   14.1974   27.3329 H   0  0  0  0  0  0  0  0  0  0  0  0
    9.8496   15.0121   23.5680 N   0  0  0  0  0  0  0  0  0  0  0  0
    9.5379   15.4619   22.2089 C   0  0  0  0  0  0  0  0  0  0  0  0
   10.3621   14.7045   21.1593 C   0  0  0  0  0  0  0  0  0  0  0  0
   11.7411   14.3108   21.6888 C   0  0  0  0  0  0  0  0  0  0  0  0
   12.1471   15.2269   22.8141 C   0  0  0  0  0  0  0  0  0  0  0  0
   11.2005   14.9473   23.9488 C   0  0  0  0  0  0  0  0  0  0  0  0
   11.6465   14.6056   25.0419 O   0  0  0  0  0  0  0  0  0  0  0  0
   10.4695   15.5035   19.8693 C   0  0  0  0  0  0  0  0  0  0  0  0
    9.8268   16.5363   19.6844 O   0  0  0  0  0  0  0  0  0  0  0  0
   11.3518   14.9222   18.7758 C   0  0  0  0  0  0  0  0  0  0  0  0
   11.3656   15.7004   17.6058 O   0  0  0  0  0  0  0  0  0  0  0  0
   10.4700   15.7441   17.2359 H   0  0  0  0  0  0  0  0  0  0  0  0
    9.1639    8.9433   23.6234 C   0  0  0  0  0  0  0  0  0  0  0  0
    9.0538   10.3085   23.9923 O   0  0  0  0  0  0  0  0  0  0  0  0
 27 28  1  0  0  0
 28  1  1  0  0  0
  1  2  2  0  0  0
  2  3  1  0  0  0
  3  4  2  0  0  0
  4  5  1  0  0  0
  5  6  2  0  0  0
  6  7  1  0  0  0
  7  8  1  0  0  0
  8  9  1  0  0  0
  8 15  1  0  0  0
 15 16  1  0  0  0
 16 17  1  0  0  0
 17 22  1  0  0  0
 22 23  2  0  0  0
 22 24  1  0  0  0
 24 25  1  0  0  0
 17 18  1  0  0  0
 18 19  1  0  0  0
 19 20  1  0  0  0
 20 21  2  0  0  0
  8 10  1  0  0  0
 10 11  1  0  0  0
 11 12  1  0  0  0
  6  1  1  0  0  0
 20 15  1  0  0  0
 12  5  1  0  0  0
  9 13  1  0  0  0
 25 26  1  0  0  0
 12 14  1  0  0  0
M  END
> <minimizedAffinity>
-8.64995

> <minimizedRMSD>
0.31777

$$$$
P81212


 25 27  0  0  0  0  0  0  0  0999 V2000
    8.1021   11.0289   24.8118 C   0  0  0  0  0  0  0  0  0  0  0  0
    7.5443   10.0970   25.6640 C   0  0  0  0  0  0  0  0  0  0  0  0
    6.7088   10.5481   26.6702 C   0  0  0  0  0  0  0  0  0  0  0  0
    6.4725   11.8517   26.9231 N   0  0  0  0  0  0  0  0  0  0  0  0
    6.9963   12.7630   26.0664 C   0  0  0  0  0  0  0  0  0  0  0  0
    7.7187   12.3706   24.9377 C   0  0  0  0  0  0  0  0  0  0  0  0
    8.1400   13.3767   23.8977 C   0  0  0  0  0  0  0  0  0  0  0  0
    9.4348   13.9744   24.3870 C   0  0  0  0  0  0  0  0  0  0  0  0
    9.1947   14.7124   25.7191 C   0  0  0  0  0  0  0  0  0  0  0  0
   10.0926   14.8445   26.5576 O   0  0  0  0  0  0  0  0  0  0  0  0
    7.8035   15.2642   25.9793 C   0  0  0  0  0  0  0  0  0  0  0  0
    6.7731   14.2152   26.4291 C   0  0  0  0  0  0  0  0  0  0  0  0
   10.1886   14.8471   23.4671 N   0  0  0  0  0  0  0  0  0  0  0  0
   11.6023   14.4804   23.6426 C   0  0  0  0  0  0  0  0  0  0  0  0
   12.4747   15.3748   22.8212 C   0  0  0  0  0  0  0  0  0  0  0  0
   12.1746   15.2603   21.3703 C   0  0  0  0  0  0  0  0  0  0  0  0
   10.7498   15.7446   21.1896 C   0  0  0  0  0  0  0  0  0  0  0  0
    9.8003   14.8629   22.0267 C   0  0  0  0  0  0  0  0  0  0  0  0
   10.4586   15.9166   19.7157 C   0  0  0  0  0  0  0  0  0  0  0  0
    9.7633   16.8541   19.3243 O   0  0  0  0  0  0  0  0  0  0  0  0
   11.0772   14.9642   18.7101 C   0  0  0  0  0  0  0  0  0  0  0  0
   11.4497   15.6596   17.5422 O   0  0  0  0  0  0  0  0  0  0  0  0
   10.6643   16.0662   17.1436 H   0  0  0  0  0  0  0  0  0  0  0  0
    9.4460    9.4267   23.6331 C   0  0  0  0  0  0  0  0  0  0  0  0
    9.0139   10.7663   23.8244 O   0  0  0  0  0  0  0  0  0  0  0  0
 24 25  1  0  0  0
 25  1  1  0  0  0
  1  2  2  0  0  0
  2  3  1  0  0  0
  3  4  2  0  0  0
  4  5  1  0  0  0
  5  6  2  0  0  0
  6  7  1  0  0  0
  7  8  1  0  0  0
  8 13  1  0  0  0
 13 14  1  0  0  0
 14 15  1  0  0  0
 15 16  1  0  0  0
 16 17  1  0  0  0
 17 19  1  0  0  0
 19 20  2  0  0  0
 19 21  1  0  0  0
 21 22  1  0  0  0
 17 18  1  0  0  0
  8  9  1  0  0  0
  9 10  2  0  0  0
  9 11  1  0  0  0
 11 12  1  0  0  0
  6  1  1  0  0  0
 18 13  1  0  0  0
 12  5  1  0  0  0
 22 23  1  0  0  0
M  END
> <minimizedAffinity>
-8.12767

> <minimizedRMSD>
0.38431

$$$$
P81226


 23 24  0  0  0  0  0  0  0  0999 V2000
    8.5252   14.4637   24.1806 C   0  0  0  0  0  0  0  0  0  0  0  0
    9.6991   14.5663   23.2999 N   0  0  0  0  0  0  0  0  0  0  0  0
   10.9337   14.9395   23.9987 C   0  0  0  0  0  0  0  0  0  0  0  0
   12.1074   14.5484   23.1141 C   0  0  0  0  0  0  0  0  0  0  0  0
   12.0345   15.2958   21.7963 C   0  0  0  0  0  0  0  0  0  0  0  0
   10.6819   15.0063   21.1555 C   0  0  0  0  0  0  0  0  0  0  0  0
    9.5369   15.3938   22.0881 C   0  0  0  0  0  0  0  0  0  0  0  0
   10.5976   15.6382   19.7930 C   0  0  0  0  0  0  0  0  0  0  0  0
    9.9560   16.6616   19.5682 O   0  0  0  0  0  0  0  0  0  0  0  0
   11.3961   14.9219   18.7216 C   0  0  0  0  0  0  0  0  0  0  0  0
   11.4561   15.6448   17.5227 O   0  0  0  0  0  0  0  0  0  0  0  0
   10.5598   15.7625   17.1710 H   0  0  0  0  0  0  0  0  0  0  0  0
    7.2031   14.1347   23.5630 N   0  0  0  0  0  0  0  0  0  0  0  0
    7.2856   13.4836   22.5208 O   0  0  0  0  0  0  0  0  0  0  0  0
    8.8399   13.4822   25.3525 C   0  0  0  0  0  0  0  0  0  0  0  0
    8.1519   11.0546   25.0060 C   0  0  0  0  0  0  0  0  0  0  0  0
    7.3997    9.9661   25.4253 C   0  0  0  0  0  0  0  0  0  0  0  0
    6.5021   10.1323   26.4687 C   0  0  0  0  0  0  0  0  0  0  0  0
    6.3210   11.2916   27.1277 N   0  0  0  0  0  0  0  0  0  0  0  0
    7.0396   12.3458   26.6866 C   0  0  0  0  0  0  0  0  0  0  0  0
    7.9799   12.2832   25.6614 C   0  0  0  0  0  0  0  0  0  0  0  0
    9.6320    9.7720   23.6065 C   0  0  0  0  0  0  0  0  0  0  0  0
    9.0682   11.0243   23.9895 O   0  0  0  0  0  0  0  0  0  0  0  0
 22 23  1  0  0  0
 23 16  1  0  0  0
 16 17  2  0  0  0
 17 18  1  0  0  0
 18 19  2  0  0  0
 19 20  1  0  0  0
 20 21  2  0  0  0
 21 15  1  0  0  0
  1 15  1  0  0  0
  1 13  1  0  0  0
 13 14  2  0  0  0
  1  2  1  0  0  0
  2  3  1  0  0  0
  3  4  1  0  0  0
  4  5  1  0  0  0
  5  6  1  0  0  0
  6  8  1  0  0  0
  8  9  2  0  0  0
  8 10  1  0  0  0
 10 11  1  0  0  0
  6  7  1  0  0  0
 21 16  1  0  0  0
  7  2  1  0  0  0
 11 12  1  0  0  0
M  END
> <minimizedAffinity>
-7.69036

> <minimizedRMSD>
0.37260

$$$$
P81232


 24 25  0  0  0  0  0  0  0  0999 V2000
    8.8880   14.2635   23.9693 C   0  0  0  0  0  0  0  0  0  0  0  0
    9.9968   14.5563   23.0392 N   0  0  0  0  0  0  0  0  0  0  0  0
    9.6182   15.4509   21.9213 C   0  0  0  0  0  0  0  0  0  0  0  0
   10.4980   15.0015   20.7655 C   0  0  0  0  0  0  0  0  0  0  0  0
   11.9620   14.8465   21.1634 C   0  0  0  0  0  0  0  0  0  0  0  0
   12.2149   15.5206   22.4758 C   0  0  0  0  0  0  0  0  0  0  0  0
   11.3090   14.9648   23.5930 C   0  0  0  0  0  0  0  0  0  0  0  0
   12.1040   13.8370   24.2641 C   0  0  0  0  0  0  0  0  0  0  0  0
   10.4395   15.8624   19.5309 C   0  0  0  0  0  0  0  0  0  0  0  0
    9.7356   16.8644   19.4419 O   0  0  0  0  0  0  0  0  0  0  0  0
   11.2952   15.3836   18.3667 C   0  0  0  0  0  0  0  0  0  0  0  0
   11.2820   13.9982   18.1028 O   0  0  0  0  0  0  0  0  0  0  0  0
   11.6570   13.5213   18.8597 H   0  0  0  0  0  0  0  0  0  0  0  0
    7.6151   13.8782   23.2665 N   0  0  0  0  0  0  0  0  0  0  0  0
    6.6719   14.6189   23.5680 O   0  0  0  0  0  0  0  0  0  0  0  0
    9.2447   13.1319   24.9649 C   0  0  0  0  0  0  0  0  0  0  0  0
    8.3254   10.7605   24.8029 C   0  0  0  0  0  0  0  0  0  0  0  0
    7.4753    9.7819   25.2967 C   0  0  0  0  0  0  0  0  0  0  0  0
    6.5864   10.1165   26.3060 C   0  0  0  0  0  0  0  0  0  0  0  0
    6.5001   11.3418   26.8586 N   0  0  0  0  0  0  0  0  0  0  0  0
    7.3164   12.2886   26.3487 C   0  0  0  0  0  0  0  0  0  0  0  0
    8.2616   12.0523   25.3556 C   0  0  0  0  0  0  0  0  0  0  0  0
    9.5815    9.2330   23.4235 C   0  0  0  0  0  0  0  0  0  0  0  0
    9.2389   10.5652   23.8004 O   0  0  0  0  0  0  0  0  0  0  0  0
 23 24  1  0  0  0
 24 17  1  0  0  0
 17 18  2  0  0  0
 18 19  1  0  0  0
 19 20  2  0  0  0
 20 21  1  0  0  0
 21 22  2  0  0  0
 22 16  1  0  0  0
  1 16  1  0  0  0
  1 14  1  0  0  0
 14 15  2  0  0  0
  1  2  1  0  0  0
  2  3  1  0  0  0
  3  4  1  0  0  0
  4  9  1  0  0  0
  9 10  2  0  0  0
  9 11  1  0  0  0
 11 12  1  0  0  0
  4  5  1  0  0  0
  5  6  1  0  0  0
  6  7  1  0  0  0
  7  8  1  0  0  0
 22 17  1  0  0  0
  7  2  1  0  0  0
 12 13  1  0  0  0
M  END
> <minimizedAffinity>
-7.74576

> <minimizedRMSD>
0.36384

$$$$
P81261


 25 26  0  0  0  0  0  0  0  0999 V2000
    8.5334   13.8939   23.9873 C   0  0  0  0  0  0  0  0  0  0  0  0
    7.7721   13.1000   23.1039 O   0  0  0  0  0  0  0  0  0  0  0  0
    7.7479   14.9676   24.4368 O   0  0  0  0  0  0  0  0  0  0  0  0
    8.1524   12.3384   22.7125 H   0  0  0  0  0  0  0  0  0  0  0  0
    8.1076   15.5933   25.0344 H   0  0  0  0  0  0  0  0  0  0  0  0
    9.6883   14.3338   23.2540 N   0  0  0  0  0  0  0  0  0  0  0  0
   10.8005   14.8952   24.0065 C   0  0  0  0  0  0  0  0  0  0  0  0
   12.0551   14.6675   23.1722 C   0  0  0  0  0  0  0  0  0  0  0  0
   11.9418   15.4115   21.8537 C   0  0  0  0  0  0  0  0  0  0  0  0
   10.6868   14.9256   21.1372 C   0  0  0  0  0  0  0  0  0  0  0  0
    9.4422   15.0778   22.0082 C   0  0  0  0  0  0  0  0  0  0  0  0
   10.5676   15.5715   19.7825 C   0  0  0  0  0  0  0  0  0  0  0  0
    9.8902   16.5750   19.5766 O   0  0  0  0  0  0  0  0  0  0  0  0
   11.3686   14.8949   18.6897 C   0  0  0  0  0  0  0  0  0  0  0  0
   11.4389   15.6675   17.5226 O   0  0  0  0  0  0  0  0  0  0  0  0
   10.5451   15.8053   17.1718 H   0  0  0  0  0  0  0  0  0  0  0  0
    8.9269   13.0565   25.2406 C   0  0  0  0  0  0  0  0  0  0  0  0
    8.0409   10.6922   25.0865 C   0  0  0  0  0  0  0  0  0  0  0  0
    7.1511    9.7258   25.5169 C   0  0  0  0  0  0  0  0  0  0  0  0
    6.2103   10.0650   26.4779 C   0  0  0  0  0  0  0  0  0  0  0  0
    6.1091   11.2858   27.0374 N   0  0  0  0  0  0  0  0  0  0  0  0
    6.9620   12.2254   26.5786 C   0  0  0  0  0  0  0  0  0  0  0  0
    7.9589   11.9746   25.6438 C   0  0  0  0  0  0  0  0  0  0  0  0
    9.2734    9.2083   23.6468 C   0  0  0  0  0  0  0  0  0  0  0  0
    8.9855   10.5269   24.1072 O   0  0  0  0  0  0  0  0  0  0  0  0
 24 25  1  0  0  0
 25 18  1  0  0  0
 18 19  2  0  0  0
 19 20  1  0  0  0
 20 21  2  0  0  0
 21 22  1  0  0  0
 22 23  2  0  0  0
 23 17  1  0  0  0
 17  1  1  0  0  0
  1  2  1  0  0  0
  1  3  1  0  0  0
  1  6  1  0  0  0
  6  7  1  0  0  0
  7  8  1  0  0  0
  8  9  1  0  0  0
  9 10  1  0  0  0
 10 12  1  0  0  0
 12 13  2  0  0  0
 12 14  1  0  0  0
 14 15  1  0  0  0
 10 11  1  0  0  0
 23 18  1  0  0  0
 11  6  1  0  0  0
  2  4  1  0  0  0
  3  5  1  0  0  0
 15 16  1  0  0  0
M  END
> <minimizedAffinity>
-8.10152

> <minimizedRMSD>
0.27369

$$$$
P81262


 21 23  0  0  0  0  0  0  0  0999 V2000
    8.9394   13.8114   25.7042 C   0  0  0  0  0  0  0  0  0  0  0  0
    8.3138   15.0238   25.2603 C   0  0  0  0  0  0  0  0  0  0  0  0
    7.1664   15.2477   24.9217 O   0  0  0  0  0  0  0  0  0  0  0  0
    9.4185   14.5129   24.4121 C   0  0  0  0  0  0  0  0  0  0  0  0
   10.7930   15.0169   24.5309 C   0  0  0  0  0  0  0  0  0  0  0  0
   11.7588   14.2196   23.6871 C   0  0  0  0  0  0  0  0  0  0  0  0
   11.4683   14.4173   22.2183 C   0  0  0  0  0  0  0  0  0  0  0  0
    9.9865   14.2548   21.8689 C   0  0  0  0  0  0  0  0  0  0  0  0
    8.9851   14.6575   22.9620 C   0  0  0  0  0  0  0  0  0  0  0  0
    8.5284   11.3738   25.1055 C   0  0  0  0  0  0  0  0  0  0  0  0
    7.7358   10.2422   25.1833 C   0  0  0  0  0  0  0  0  0  0  0  0
    6.7214   10.2373   26.1081 C   0  0  0  0  0  0  0  0  0  0  0  0
    6.4454   11.2570   26.9376 N   0  0  0  0  0  0  0  0  0  0  0  0
    7.1761   12.3766   26.7489 C   0  0  0  0  0  0  0  0  0  0  0  0
    8.2094   12.5220   25.8189 C   0  0  0  0  0  0  0  0  0  0  0  0
    9.7294   10.0955   23.6220 C   0  0  0  0  0  0  0  0  0  0  0  0
    9.6093   11.3544   24.2752 O   0  0  0  0  0  0  0  0  0  0  0  0
    9.6927   15.0873   20.6027 C   0  0  0  0  0  0  0  0  0  0  0  0
   10.8946   15.1850   19.6999 C   0  0  0  0  0  0  0  0  0  0  0  0
   10.5027   15.7930   18.4865 O   0  0  0  0  0  0  0  0  0  0  0  0
    9.8118   15.2582   18.0652 H   0  0  0  0  0  0  0  0  0  0  0  0
 16 17  1  0  0  0
 17 10  1  0  0  0
 10 11  2  0  0  0
 11 12  1  0  0  0
 12 13  2  0  0  0
 13 14  1  0  0  0
 14 15  2  0  0  0
  1 15  1  0  0  0
  1  2  1  0  0  0
  2  3  2  0  0  0
  2  4  1  0  0  0
  4  5  1  0  0  0
  5  6  1  0  0  0
  6  7  1  0  0  0
  7  8  1  0  0  0
  8 18  1  0  0  0
 18 19  1  0  0  0
 19 20  1  0  0  0
  8  9  1  0  0  0
 15 10  1  0  0  0
  4  1  1  0  0  0
  9  4  1  0  0  0
 20 21  1  0  0  0
M  END
> <minimizedAffinity>
-7.18913

> <minimizedRMSD>
2.01672

$$$$
P81266


 24 26  0  0  0  0  0  0  0  0999 V2000
    8.8097   13.1446   24.6537 C   0  0  0  0  0  0  0  0  0  0  0  0
    9.9740   13.7138   24.9941 C   0  0  0  0  0  0  0  0  0  0  0  0
   10.4182   14.7304   23.9999 C   0  0  0  0  0  0  0  0  0  0  0  0
   11.6380   14.2406   23.2113 C   0  0  0  0  0  0  0  0  0  0  0  0
   11.7721   14.9855   21.8848 C   0  0  0  0  0  0  0  0  0  0  0  0
   10.4568   14.8863   21.0972 C   0  0  0  0  0  0  0  0  0  0  0  0
    9.3258   15.5088   21.8990 C   0  0  0  0  0  0  0  0  0  0  0  0
    9.2471   14.8220   23.1687 N   0  0  0  0  0  0  0  0  0  0  0  0
    8.3857   13.7668   23.3812 C   0  0  0  0  0  0  0  0  0  0  0  0
    7.4878   13.3841   22.6523 O   0  0  0  0  0  0  0  0  0  0  0  0
    8.1996   10.7473   24.8972 C   0  0  0  0  0  0  0  0  0  0  0  0
    7.3922    9.7865   25.5013 C   0  0  0  0  0  0  0  0  0  0  0  0
    6.5071   10.1333   26.5286 C   0  0  0  0  0  0  0  0  0  0  0  0
    6.4481   11.4445   26.9812 C   0  0  0  0  0  0  0  0  0  0  0  0
    5.2910   11.8998   28.4024 Br  0  0  0  0  0  0  0  0  0  0  0  0
    7.2362   12.4214   26.3871 C   0  0  0  0  0  0  0  0  0  0  0  0
    8.0948   12.0797   25.3313 C   0  0  0  0  0  0  0  0  0  0  0  0
    9.3810    9.1473   23.5531 C   0  0  0  0  0  0  0  0  0  0  0  0
    9.0895   10.4997   23.8853 O   0  0  0  0  0  0  0  0  0  0  0  0
   10.5968   15.5703   19.7772 C   0  0  0  0  0  0  0  0  0  0  0  0
   10.0597   16.6531   19.5292 O   0  0  0  0  0  0  0  0  0  0  0  0
   11.5346   14.9474   18.7735 C   0  0  0  0  0  0  0  0  0  0  0  0
   11.3664   15.6985   17.5889 O   0  0  0  0  0  0  0  0  0  0  0  0
   10.4374   15.6624   17.3122 H   0  0  0  0  0  0  0  0  0  0  0  0
 18 19  1  0  0  0
 19 11  1  0  0  0
 11 12  2  0  0  0
 12 13  1  0  0  0
 13 14  2  0  0  0
 14 15  1  0  0  0
 14 16  1  0  0  0
 16 17  2  0  0  0
 17  1  1  0  0  0
  1  2  2  0  0  0
  2  3  1  0  0  0
  3  4  1  0  0  0
  4  5  1  0  0  0
  5  6  1  0  0  0
  6 20  1  0  0  0
 20 21  2  0  0  0
 20 22  1  0  0  0
 22 23  1  0  0  0
  6  7  1  0  0  0
  7  8  1  0  0  0
  8  9  1  0  0  0
  9 10  2  0  0  0
 17 11  1  0  0  0
  9  1  1  0  0  0
  8  3  1  0  0  0
 23 24  1  0  0  0
M  END
> <minimizedAffinity>
-9.12006

> <minimizedRMSD>
0.30449

$$$$
P81272


 25 26  0  0  0  0  0  0  0  0999 V2000
    8.9242   13.6953   23.6606 C   0  0  0  0  0  0  0  0  0  0  0  0
    9.6572   14.9631   23.4408 N   0  0  0  0  0  0  0  0  0  0  0  0
    9.5466   15.3709   22.0104 C   0  0  0  0  0  0  0  0  0  0  0  0
   10.8659   15.7345   21.3202 C   0  0  0  0  0  0  0  0  0  0  0  0
   11.9705   14.7308   21.6630 C   0  0  0  0  0  0  0  0  0  0  0  0
   12.0137   14.3453   23.1455 C   0  0  0  0  0  0  0  0  0  0  0  0
   11.0122   15.1596   23.9557 C   0  0  0  0  0  0  0  0  0  0  0  0
   11.2265   15.0647   25.4685 C   0  0  0  0  0  0  0  0  0  0  0  0
   10.6050   15.9325   19.8317 C   0  0  0  0  0  0  0  0  0  0  0  0
    9.8737   16.8458   19.4409 O   0  0  0  0  0  0  0  0  0  0  0  0
   11.2528   14.9994   18.8320 C   0  0  0  0  0  0  0  0  0  0  0  0
   11.4313   15.6238   17.5790 O   0  0  0  0  0  0  0  0  0  0  0  0
   10.5678   15.8832   17.2212 H   0  0  0  0  0  0  0  0  0  0  0  0
    7.4463   13.9140   23.4379 N   0  0  0  0  0  0  0  0  0  0  0  0
    7.0582   13.4814   22.3477 O   0  0  0  0  0  0  0  0  0  0  0  0
    9.0919   13.0609   25.0554 C   0  0  0  0  0  0  0  0  0  0  0  0
    8.2284   10.6723   24.8830 C   0  0  0  0  0  0  0  0  0  0  0  0
    7.3538    9.6892   25.3362 C   0  0  0  0  0  0  0  0  0  0  0  0
    6.3952    9.9671   26.3185 C   0  0  0  0  0  0  0  0  0  0  0  0
    6.3239   11.2302   26.8810 C   0  0  0  0  0  0  0  0  0  0  0  0
    5.0814   11.5892   28.2548 Br  0  0  0  0  0  0  0  0  0  0  0  0
    7.1887   12.2226   26.4493 C   0  0  0  0  0  0  0  0  0  0  0  0
    8.1457   11.9506   25.4510 C   0  0  0  0  0  0  0  0  0  0  0  0
    9.4780    9.1712   23.4911 C   0  0  0  0  0  0  0  0  0  0  0  0
    9.1741   10.4994   23.9106 O   0  0  0  0  0  0  0  0  0  0  0  0
 24 25  1  0  0  0
 25 17  1  0  0  0
 17 18  2  0  0  0
 18 19  1  0  0  0
 19 20  2  0  0  0
 20 21  1  0  0  0
 20 22  1  0  0  0
 22 23  2  0  0  0
 23 16  1  0  0  0
  1 16  1  0  0  0
  1 14  1  0  0  0
 14 15  2  0  0  0
  1  2  1  0  0  0
  2  3  1  0  0  0
  3  4  1  0  0  0
  4  9  1  0  0  0
  9 10  2  0  0  0
  9 11  1  0  0  0
 11 12  1  0  0  0
  4  5  1  0  0  0
  5  6  1  0  0  0
  6  7  1  0  0  0
  7  8  1  0  0  0
 23 17  1  0  0  0
  7  2  1  0  0  0
 12 13  1  0  0  0
M  END
> <minimizedAffinity>
-8.10399

> <minimizedRMSD>
0.21773

$$$$
P81279


 26 27  0  0  0  0  0  0  0  0999 V2000
    8.8647   13.7884   23.6367 C   0  0  0  0  0  0  0  0  0  0  0  0
    9.6283   15.0400   23.3750 N   0  0  0  0  0  0  0  0  0  0  0  0
   10.9845   15.0850   23.8996 C   0  0  0  0  0  0  0  0  0  0  0  0
   11.9622   14.2972   23.0533 C   0  0  0  0  0  0  0  0  0  0  0  0
   11.9962   14.7907   21.6110 C   0  0  0  0  0  0  0  0  0  0  0  0
   10.8699   15.7653   21.2662 C   0  0  0  0  0  0  0  0  0  0  0  0
    9.5540   15.3650   21.9247 C   0  0  0  0  0  0  0  0  0  0  0  0
   10.6149   15.9486   19.7740 C   0  0  0  0  0  0  0  0  0  0  0  0
    9.8837   16.8586   19.3719 O   0  0  0  0  0  0  0  0  0  0  0  0
   11.2600   14.9966   18.7876 C   0  0  0  0  0  0  0  0  0  0  0  0
   11.4669   15.6169   17.5366 O   0  0  0  0  0  0  0  0  0  0  0  0
   10.6135   15.8938   17.1679 H   0  0  0  0  0  0  0  0  0  0  0  0
    5.5529   15.8213   24.1313 C   0  0  0  0  0  0  0  0  0  0  0  0
    6.8136   15.1470   24.1527 N   0  0  0  0  0  0  0  0  0  0  0  0
    7.3956   14.0704   23.2010 C   0  0  0  0  0  0  0  0  0  0  0  0
    6.9055   13.5129   22.2987 O   0  0  0  0  0  0  0  0  0  0  0  0
    7.4087   15.4088   24.8919 H   0  0  0  0  0  0  0  0  0  0  0  0
    8.9458   13.2880   25.0906 C   0  0  0  0  0  0  0  0  0  0  0  0
    8.0771   12.1125   25.4562 C   0  0  0  0  0  0  0  0  0  0  0  0
    7.1127   12.2636   26.4532 C   0  0  0  0  0  0  0  0  0  0  0  0
    6.3472   11.2642   26.9374 N   0  0  0  0  0  0  0  0  0  0  0  0
    6.5127   10.0632   26.3591 C   0  0  0  0  0  0  0  0  0  0  0  0
    7.4335    9.8074   25.3541 C   0  0  0  0  0  0  0  0  0  0  0  0
    8.2319   10.8434   24.8883 C   0  0  0  0  0  0  0  0  0  0  0  0
    9.1783   10.7195   23.9088 O   0  0  0  0  0  0  0  0  0  0  0  0
    9.5735    9.4077   23.5050 C   0  0  0  0  0  0  0  0  0  0  0  0
 13 14  1  0  0  0
 14 15  1  0  0  0
 15 16  2  0  0  0
 15  1  1  0  0  0
  1 18  1  0  0  0
 18 19  1  0  0  0
 19 20  2  0  0  0
 20 21  1  0  0  0
 21 22  2  0  0  0
 22 23  1  0  0  0
 23 24  2  0  0  0
 24 25  1  0  0  0
 25 26  1  0  0  0
  1  2  1  0  0  0
  2  3  1  0  0  0
  3  4  1  0  0  0
  4  5  1  0  0  0
  5  6  1  0  0  0
  6  8  1  0  0  0
  8  9  2  0  0  0
  8 10  1  0  0  0
 10 11  1  0  0  0
  6  7  1  0  0  0
 24 19  1  0  0  0
  7  2  1  0  0  0
 14 17  1  0  0  0
 11 12  1  0  0  0
M  END
> <minimizedAffinity>
-7.87873

> <minimizedRMSD>
0.24895

$$$$
P81281


 26 28  0  0  0  0  0  0  0  0999 V2000
    8.8008   13.7745   25.0649 C   0  0  0  0  0  0  0  0  0  0  0  0
   10.1370   13.9568   25.0606 C   0  0  0  0  0  0  0  0  0  0  0  0
   10.6313   14.7792   23.9016 C   0  0  0  0  0  0  0  0  0  0  0  0
   11.8026   14.2102   23.1240 C   0  0  0  0  0  0  0  0  0  0  0  0
   11.8194   14.6723   21.6601 C   0  0  0  0  0  0  0  0  0  0  0  0
   10.8136   15.7753   21.2971 C   0  0  0  0  0  0  0  0  0  0  0  0
    9.4237   15.6018   21.8998 C   0  0  0  0  0  0  0  0  0  0  0  0
    9.4603   14.7368   23.0564 N   0  0  0  0  0  0  0  0  0  0  0  0
    8.3541   14.4963   23.8369 C   0  0  0  0  0  0  0  0  0  0  0  0
    7.2139   14.9603   23.4571 N   0  0  0  0  0  0  0  0  0  0  0  0
    7.9294   11.4418   25.2713 C   0  0  0  0  0  0  0  0  0  0  0  0
    7.1180   10.5357   25.9454 C   0  0  0  0  0  0  0  0  0  0  0  0
    6.4944   10.9359   27.1166 C   0  0  0  0  0  0  0  0  0  0  0  0
    6.6712   12.1404   27.6860 N   0  0  0  0  0  0  0  0  0  0  0  0
    7.4273   13.0246   26.9901 C   0  0  0  0  0  0  0  0  0  0  0  0
    8.0593   12.7453   25.7828 C   0  0  0  0  0  0  0  0  0  0  0  0
    9.2492    9.8968   23.9794 C   0  0  0  0  0  0  0  0  0  0  0  0
    8.5980   11.1587   24.1067 O   0  0  0  0  0  0  0  0  0  0  0  0
    6.2493   15.3114   24.3646 C   0  0  0  0  0  0  0  0  0  0  0  0
    4.8572   14.9702   23.8922 C   0  0  0  0  0  0  0  0  0  0  0  0
    6.4295   15.9167   25.4178 O   0  0  0  0  0  0  0  0  0  0  0  0
   10.5878   15.9820   19.8101 C   0  0  0  0  0  0  0  0  0  0  0  0
    9.8563   16.8955   19.4170 O   0  0  0  0  0  0  0  0  0  0  0  0
   11.2151   15.0220   18.8259 C   0  0  0  0  0  0  0  0  0  0  0  0
   11.4233   15.6403   17.5776 O   0  0  0  0  0  0  0  0  0  0  0  0
   10.5719   15.9296   17.2140 H   0  0  0  0  0  0  0  0  0  0  0  0
 17 18  1  0  0  0
 18 11  1  0  0  0
 11 12  2  0  0  0
 12 13  1  0  0  0
 13 14  2  0  0  0
 14 15  1  0  0  0
 15 16  2  0  0  0
 16  1  1  0  0  0
  1  2  2  0  0  0
  2  3  1  0  0  0
  3  4  1  0  0  0
  4  5  1  0  0  0
  5  6  1  0  0  0
  6 22  1  0  0  0
 22 23  2  0  0  0
 22 24  1  0  0  0
 24 25  1  0  0  0
  6  7  1  0  0  0
  7  8  1  0  0  0
  8  9  1  0  0  0
  9 10  2  0  0  0
 10 19  1  0  0  0
 19 20  1  0  0  0
 19 21  2  0  0  0
 16 11  1  0  0  0
  9  1  1  0  0  0
  8  3  1  0  0  0
 25 26  1  0  0  0
M  END
> <minimizedAffinity>
-8.22839

> <minimizedRMSD>
0.85386

$$$$
P81344


 23 26  0  0  0  0  0  0  0  0999 V2000
    9.7007   14.4795   26.2578 C   0  0  0  0  0  0  0  0  0  0  0  0
   10.5580   13.7737   25.2120 C   0  0  0  0  0  0  0  0  0  0  0  0
   11.4437   14.7843   24.5768 C   0  0  0  0  0  0  0  0  0  0  0  0
   11.7844   15.7590   25.2157 O   0  0  0  0  0  0  0  0  0  0  0  0
   11.6981   14.4263   23.2778 N   0  0  0  0  0  0  0  0  0  0  0  0
   10.9390   13.2624   22.9265 C   0  0  0  0  0  0  0  0  0  0  0  0
    9.8391   13.2705   23.9743 C   0  0  0  0  0  0  0  0  0  0  0  0
    9.2169   11.9702   24.2073 C   0  0  0  0  0  0  0  0  0  0  0  0
    9.6987   10.8791   23.6199 N   0  0  0  0  0  0  0  0  0  0  0  0
    8.9298    9.8934   24.0857 N   0  0  0  0  0  0  0  0  0  0  0  0
    9.1902    8.5579   23.6156 C   0  0  0  0  0  0  0  0  0  0  0  0
    7.9909   10.3292   24.9884 C   0  0  0  0  0  0  0  0  0  0  0  0
    6.9951    9.6886   25.7135 C   0  0  0  0  0  0  0  0  0  0  0  0
    6.1989   10.4229   26.5940 C   0  0  0  0  0  0  0  0  0  0  0  0
    6.3476   11.7968   26.6948 C   0  0  0  0  0  0  0  0  0  0  0  0
    7.2952   12.4527   25.9094 C   0  0  0  0  0  0  0  0  0  0  0  0
    8.1446   11.7011   25.0743 C   0  0  0  0  0  0  0  0  0  0  0  0
   12.4616   15.1345   22.2673 C   0  0  0  0  0  0  0  0  0  0  0  0
   11.6730   15.2109   21.0134 C   0  0  0  0  0  0  0  0  0  0  0  0
   10.4449   15.7776   20.7609 C   0  0  0  0  0  0  0  0  0  0  0  0
   10.1487   15.6143   19.4520 O   0  0  0  0  0  0  0  0  0  0  0  0
   11.2131   14.9296   18.9796 C   0  0  0  0  0  0  0  0  0  0  0  0
   12.1559   14.6668   19.8486 N   0  0  0  0  0  0  0  0  0  0  0  0
  2  1  1  0  0  0
  2  3  1  0  0  0
  3  4  2  0  0  0
  3  5  1  0  0  0
  5 18  1  0  0  0
 18 19  1  0  0  0
 19 20  2  0  0  0
 20 21  1  0  0  0
 21 22  1  0  0  0
 22 23  2  0  0  0
  5  6  1  0  0  0
  6  7  1  0  0  0
  7  8  1  0  0  0
  8  9  2  0  0  0
  9 10  1  0  0  0
 10 11  1  0  0  0
 10 12  1  0  0  0
 12 13  2  0  0  0
 13 14  1  0  0  0
 14 15  2  0  0  0
 15 16  1  0  0  0
 16 17  2  0  0  0
  7  2  1  0  0  0
 17  8  1  0  0  0
 23 19  1  0  0  0
 17 12  1  0  0  0
M  END
> <minimizedAffinity>
-7.33511

> <minimizedRMSD>
0.63312

$$$$
P82751


  7  6  0  0  0  0  0  0  0  0999 V2000
    9.5085   12.8262   24.1936 C   0  0  0  0  0  0  0  0  0  0  0  0
    9.7306   13.8651   25.2955 C   0  0  0  0  0  0  0  0  0  0  0  0
   11.3475   14.7261   27.0341 C   0  0  0  0  0  0  0  0  0  0  0  0
   11.1106   13.7048   25.9350 C   0  0  0  0  0  0  0  0  0  0  0  0
    8.8926   13.4058   22.9194 C   0  0  0  0  0  0  0  0  0  0  0  0
    7.4927   13.1446   22.8227 O   0  0  0  0  0  0  0  0  0  0  0  0
    6.8056   14.1448   22.0741 C   0  0  0  0  0  0  0  0  0  0  0  0
  3  4  1  0  0  0
  4  2  1  0  0  0
  2  1  1  0  0  0
  1  5  1  0  0  0
  5  6  1  0  0  0
  6  7  1  0  0  0
M  END
> <minimizedAffinity>
-2.19718

> <minimizedRMSD>
1.63263

$$$$
P83486


 31 33  0  0  0  0  0  0  0  0999 V2000
    8.5970   14.7518   23.9336 C   0  0  0  0  0  0  0  0  0  0  0  0
    8.6704   15.3815   25.1885 O   0  0  0  0  0  0  0  0  0  0  0  0
    7.3584   15.1624   23.3852 O   0  0  0  0  0  0  0  0  0  0  0  0
    9.4191   15.2490   25.7361 H   0  0  0  0  0  0  0  0  0  0  0  0
    7.0970   14.8580   22.5385 H   0  0  0  0  0  0  0  0  0  0  0  0
    9.4786    9.9209   23.9340 C   0  0  0  0  0  0  0  0  0  0  0  0
    9.3690   11.0539   24.9421 C   0  0  0  0  0  0  0  0  0  0  0  0
    9.8094   12.4595   24.4646 C   0  0  0  0  0  0  0  0  0  0  0  0
    8.5137   13.2198   24.0985 C   0  0  0  0  0  0  0  0  0  0  0  0
    7.5737   12.6514   25.1340 C   0  0  0  0  0  0  0  0  0  0  0  0
    6.4302   13.1523   25.7375 C   0  0  0  0  0  0  0  0  0  0  0  0
    5.9866   14.4278   25.5853 O   0  0  0  0  0  0  0  0  0  0  0  0
    5.6587   12.3280   26.5540 C   0  0  0  0  0  0  0  0  0  0  0  0
    5.9910   10.9826   26.7009 C   0  0  0  0  0  0  0  0  0  0  0  0
    7.1503   10.4904   26.1096 C   0  0  0  0  0  0  0  0  0  0  0  0
    7.9775   11.3469   25.4170 C   0  0  0  0  0  0  0  0  0  0  0  0
    6.4639   15.0288   25.0478 H   0  0  0  0  0  0  0  0  0  0  0  0
    9.7132   15.0878   23.0928 N   0  0  0  0  0  0  0  0  0  0  0  0
   10.7506   15.9121   23.6845 C   0  0  0  0  0  0  0  0  0  0  0  0
   12.0606   15.6645   22.9690 C   0  0  0  0  0  0  0  0  0  0  0  0
   11.9310   15.9586   21.4878 C   0  0  0  0  0  0  0  0  0  0  0  0
   10.8308   15.0762   20.8709 C   0  0  0  0  0  0  0  0  0  0  0  0
    9.5164   15.2756   21.6494 C   0  0  0  0  0  0  0  0  0  0  0  0
   10.6683   15.3418   19.3662 C   0  0  0  0  0  0  0  0  0  0  0  0
   11.7531   14.8698   18.5768 N   0  0  0  0  0  0  0  0  0  0  0  0
    9.5556   14.7653   18.8035 O   0  0  0  0  0  0  0  0  0  0  0  0
   10.4920   16.6937   19.1479 O   0  0  0  0  0  0  0  0  0  0  0  0
   11.8823   13.8711   18.7390 H   0  0  0  0  0  0  0  0  0  0  0  0
   12.6041   15.3692   18.8353 H   0  0  0  0  0  0  0  0  0  0  0  0
    9.4474   13.8349   18.8271 H   0  0  0  0  0  0  0  0  0  0  0  0
   11.1357   17.3046   19.4485 H   0  0  0  0  0  0  0  0  0  0  0  0
  7  6  1  0  0  0
  7  8  1  0  0  0
  8  9  1  0  0  0
  9  1  1  0  0  0
  1  2  1  0  0  0
  1  3  1  0  0  0
  1 18  1  0  0  0
 18 19  1  0  0  0
 19 20  1  0  0  0
 20 21  1  0  0  0
 21 22  1  0  0  0
 22 24  1  0  0  0
 24 25  1  0  0  0
 24 26  1  0  0  0
 24 27  1  0  0  0
 22 23  1  0  0  0
  9 10  1  0  0  0
 10 11  2  0  0  0
 11 12  1  0  0  0
 11 13  1  0  0  0
 13 14  2  0  0  0
 14 15  1  0  0  0
 15 16  2  0  0  0
 16  7  1  0  0  0
 23 18  1  0  0  0
 16 10  1  0  0  0
  2  4  1  0  0  0
  3  5  1  0  0  0
 25 28  1  0  0  0
 25 29  1  0  0  0
 26 30  1  0  0  0
 27 31  1  0  0  0
 12 17  1  0  0  0
M  END
> <minimizedAffinity>
-7.95661

> <minimizedRMSD>
0.42906

$$$$
P84846


 29 32  0  0  0  0  0  0  0  0999 V2000
    9.6672   15.0006   23.0259 N   0  0  0  0  0  0  0  0  0  0  0  0
    9.8277   15.1817   21.5688 C   0  0  0  0  0  0  0  0  0  0  0  0
   11.1818   15.6787   21.0567 C   0  0  0  0  0  0  0  0  0  0  0  0
   12.2840   15.0841   21.9210 C   0  0  0  0  0  0  0  0  0  0  0  0
   12.0694   15.5150   23.3556 C   0  0  0  0  0  0  0  0  0  0  0  0
   10.7286   15.0917   23.9095 C   0  0  0  0  0  0  0  0  0  0  0  0
   10.6194   14.8972   25.1214 O   0  0  0  0  0  0  0  0  0  0  0  0
    9.8258    9.3289   23.1898 C   0  0  0  0  0  0  0  0  0  0  0  0
    9.0887   10.4984   23.7681 C   0  0  0  0  0  0  0  0  0  0  0  0
    9.4001   11.8024   23.3201 C   0  0  0  0  0  0  0  0  0  0  0  0
    8.6552   12.8603   23.7842 C   0  0  0  0  0  0  0  0  0  0  0  0
    7.7450   12.5493   24.7498 C   0  0  0  0  0  0  0  0  0  0  0  0
    7.3691   11.3543   25.2573 C   0  0  0  0  0  0  0  0  0  0  0  0
    6.3218   11.6948   26.1696 C   0  0  0  0  0  0  0  0  0  0  0  0
    6.1698   13.0926   26.1844 C   0  0  0  0  0  0  0  0  0  0  0  0
    7.0692   13.5781   25.3058 N   0  0  0  0  0  0  0  0  0  0  0  0
    7.6020   14.8349   24.7333 C   0  0  0  0  0  0  0  0  0  0  0  0
    8.4525   14.3081   23.4537 C   0  0  0  0  0  0  0  0  0  0  0  0
    7.5307   14.2774   22.3386 O   0  0  0  0  0  0  0  0  0  0  0  0
    8.0607   10.2573   24.7316 C   0  0  0  0  0  0  0  0  0  0  0  0
    7.3387   15.1842   22.0527 H   0  0  0  0  0  0  0  0  0  0  0  0
   11.3716   15.3898   19.5532 C   0  0  0  0  0  0  0  0  0  0  0  0
   10.7547   16.3239   18.6861 N   0  0  0  0  0  0  0  0  0  0  0  0
   10.8636   14.1971   19.1222 O   0  0  0  0  0  0  0  0  0  0  0  0
   12.6903   15.2759   19.1810 O   0  0  0  0  0  0  0  0  0  0  0  0
    9.7725   16.4275   18.9413 H   0  0  0  0  0  0  0  0  0  0  0  0
   10.8229   15.9915   17.7242 H   0  0  0  0  0  0  0  0  0  0  0  0
    9.9565   14.0004   19.2505 H   0  0  0  0  0  0  0  0  0  0  0  0
   13.2896   15.9736   19.3599 H   0  0  0  0  0  0  0  0  0  0  0  0
  8  9  1  0  0  0
  9 10  2  0  0  0
 10 11  1  0  0  0
 11 12  2  0  0  0
 12 13  1  0  0  0
 13 14  1  0  0  0
 14 15  2  0  0  0
 15 16  1  0  0  0
 16 17  1  0  0  0
 17 18  1  0  0  0
 18 19  1  0  0  0
 18  1  1  0  0  0
  1  2  1  0  0  0
  2  3  1  0  0  0
  3 22  1  0  0  0
 22 23  1  0  0  0
 22 24  1  0  0  0
 22 25  1  0  0  0
  3  4  1  0  0  0
  4  5  1  0  0  0
  5  6  1  0  0  0
  6  7  2  0  0  0
 13 20  2  0  0  0
 20  9  1  0  0  0
 18 11  1  0  0  0
  6  1  1  0  0  0
 16 12  1  0  0  0
 19 21  1  0  0  0
 23 26  1  0  0  0
 23 27  1  0  0  0
 24 28  1  0  0  0
 25 29  1  0  0  0
M  END
> <minimizedAffinity>
-8.30228

> <minimizedRMSD>
0.32968

$$$$
P84852


 30 34  0  0  0  0  0  0  0  0999 V2000
    9.6674   15.0370   23.0415 N   0  0  0  0  0  0  0  0  0  0  0  0
   10.8323   15.2077   23.7633 C   0  0  0  0  0  0  0  0  0  0  0  0
   10.9010   14.9844   24.9761 O   0  0  0  0  0  0  0  0  0  0  0  0
   12.0979   15.6303   23.0348 C   0  0  0  0  0  0  0  0  0  0  0  0
   11.9129   16.2579   21.6634 C   0  0  0  0  0  0  0  0  0  0  0  0
   10.9400   15.4440   20.8385 C   0  0  0  0  0  0  0  0  0  0  0  0
   10.6772   15.9864   19.4384 C   0  0  0  0  0  0  0  0  0  0  0  0
   11.7342   15.4478   18.5964 N   0  0  0  0  0  0  0  0  0  0  0  0
   12.3097   14.3609   19.3221 N   0  0  0  0  0  0  0  0  0  0  0  0
   11.5976   14.1647   20.5586 N   0  0  0  0  0  0  0  0  0  0  0  0
    9.6061   15.4003   21.6218 C   0  0  0  0  0  0  0  0  0  0  0  0
    8.7404   14.5055   20.9363 O   0  0  0  0  0  0  0  0  0  0  0  0
   12.4385   16.1625   18.4131 H   0  0  0  0  0  0  0  0  0  0  0  0
   13.2875   14.5695   19.5245 H   0  0  0  0  0  0  0  0  0  0  0  0
   12.2455   13.9252   21.3091 H   0  0  0  0  0  0  0  0  0  0  0  0
    9.1189   13.6125   20.9534 H   0  0  0  0  0  0  0  0  0  0  0  0
    9.4240    9.3949   23.3494 C   0  0  0  0  0  0  0  0  0  0  0  0
    8.8099   10.6249   23.9471 C   0  0  0  0  0  0  0  0  0  0  0  0
    9.2165   11.9009   23.4887 C   0  0  0  0  0  0  0  0  0  0  0  0
    8.6041   13.0173   24.0056 C   0  0  0  0  0  0  0  0  0  0  0  0
    7.7378   12.7764   25.0287 C   0  0  0  0  0  0  0  0  0  0  0  0
    7.2507   11.6178   25.5232 C   0  0  0  0  0  0  0  0  0  0  0  0
    6.2750   12.0497   26.4760 C   0  0  0  0  0  0  0  0  0  0  0  0
    6.2870   13.4552   26.5342 C   0  0  0  0  0  0  0  0  0  0  0  0
    7.2238   13.8583   25.6539 N   0  0  0  0  0  0  0  0  0  0  0  0
    7.8774   15.0632   25.0780 C   0  0  0  0  0  0  0  0  0  0  0  0
    8.4878   14.4764   23.6927 C   0  0  0  0  0  0  0  0  0  0  0  0
    7.3569   14.5856   22.7786 O   0  0  0  0  0  0  0  0  0  0  0  0
    7.8021   10.4681   24.9493 C   0  0  0  0  0  0  0  0  0  0  0  0
    7.2268   15.5154   22.5348 H   0  0  0  0  0  0  0  0  0  0  0  0
 17 18  1  0  0  0
 18 19  2  0  0  0
 19 20  1  0  0  0
 20 21  2  0  0  0
 21 22  1  0  0  0
 22 23  1  0  0  0
 23 24  2  0  0  0
 24 25  1  0  0  0
 25 26  1  0  0  0
 26 27  1  0  0  0
 27 28  1  0  0  0
 27  1  1  0  0  0
  1  2  1  0  0  0
  2  3  2  0  0  0
  2  4  1  0  0  0
  4  5  1  0  0  0
  6  5  1  0  0  0
  6  7  1  0  0  0
  7  8  1  0  0  0
  8  9  1  0  0  0
  9 10  1  0  0  0
  6 11  1  0  0  0
 11 12  1  0  0  0
 22 29  2  0  0  0
 29 18  1  0  0  0
 27 20  1  0  0  0
 11  1  1  0  0  0
 25 21  1  0  0  0
 10  6  1  0  0  0
 28 30  1  0  0  0
  8 13  1  0  0  0
  9 14  1  0  0  0
 10 15  1  0  0  0
 12 16  1  0  0  0
M  END
> <minimizedAffinity>
-9.19625

> <minimizedRMSD>
0.53111

$$$$
P85774


 30 32  0  0  0  0  0  0  0  0999 V2000
    8.6856   14.8869   23.3722 C   0  0  0  0  0  0  0  0  0  0  0  0
   10.4833   15.1121   20.5289 C   0  0  0  0  0  0  0  0  0  0  0  0
   11.8770   15.3770   21.1098 C   0  0  0  0  0  0  0  0  0  0  0  0
   11.8601   15.1648   22.6149 C   0  0  0  0  0  0  0  0  0  0  0  0
   10.8616   16.1216   23.2386 C   0  0  0  0  0  0  0  0  0  0  0  0
    9.5012   15.9444   22.7490 N   0  0  0  0  0  0  0  0  0  0  0  0
    9.4368   15.9869   21.2609 C   0  0  0  0  0  0  0  0  0  0  0  0
    9.3861   14.6402   18.3625 N   0  0  0  0  0  0  0  0  0  0  0  0
   10.4758   15.2908   18.9902 C   0  0  0  0  0  0  0  0  0  0  0  0
   10.4184   16.6273   18.6257 O   0  0  0  0  0  0  0  0  0  0  0  0
   11.6294   14.7688   18.3971 O   0  0  0  0  0  0  0  0  0  0  0  0
    9.4338   14.7924   17.3550 H   0  0  0  0  0  0  0  0  0  0  0  0
    8.5104   15.0196   18.7225 H   0  0  0  0  0  0  0  0  0  0  0  0
    9.7109   17.1644   18.9242 H   0  0  0  0  0  0  0  0  0  0  0  0
   11.8538   13.8677   18.5222 H   0  0  0  0  0  0  0  0  0  0  0  0
    7.2408   15.2999   23.4847 N   0  0  0  0  0  0  0  0  0  0  0  0
    6.4812   14.5307   22.8856 O   0  0  0  0  0  0  0  0  0  0  0  0
    9.1841   14.4824   24.7954 C   0  0  0  0  0  0  0  0  0  0  0  0
    8.1561   13.8521   25.6869 C   0  0  0  0  0  0  0  0  0  0  0  0
    7.4740   14.5093   26.6096 N   0  0  0  0  0  0  0  0  0  0  0  0
    6.5013   13.6521   27.0436 C   0  0  0  0  0  0  0  0  0  0  0  0
    6.6563   12.4196   26.4628 C   0  0  0  0  0  0  0  0  0  0  0  0
    5.9896   11.1750   26.5381 C   0  0  0  0  0  0  0  0  0  0  0  0
    6.4419   10.1512   25.7958 C   0  0  0  0  0  0  0  0  0  0  0  0
    7.6031   10.2712   24.9367 C   0  0  0  0  0  0  0  0  0  0  0  0
    8.2248   11.4639   24.8471 C   0  0  0  0  0  0  0  0  0  0  0  0
    7.7440   12.5329   25.6070 N   0  0  0  0  0  0  0  0  0  0  0  0
    7.8959    9.1253   24.2390 O   0  0  0  0  0  0  0  0  0  0  0  0
    9.4445    9.0114   23.6731 S   0  0  0  0  0  0  0  0  0  0  0  0
    9.5980    7.8364   23.0057 H   0  0  0  0  0  0  0  0  0  0  0  0
  8  9  1  0  0  0
  9 10  1  0  0  0
  9 11  1  0  0  0
  2  9  1  0  0  0
  2  3  1  0  0  0
  3  4  1  0  0  0
  4  5  1  0  0  0
  5  6  1  0  0  0
  6  1  1  0  0  0
  1 18  1  0  0  0
 18 19  1  0  0  0
 19 20  2  0  0  0
 20 21  1  0  0  0
 21 22  2  0  0  0
 22 23  1  0  0  0
 23 24  2  0  0  0
 24 25  1  0  0  0
 25 28  1  0  0  0
 28 29  1  0  0  0
 25 26  2  0  0  0
 26 27  1  0  0  0
  1 16  1  0  0  0
 16 17  2  0  0  0
  6  7  1  0  0  0
  7  2  1  0  0  0
 27 19  1  0  0  0
 27 22  1  0  0  0
  8 12  1  0  0  0
  8 13  1  0  0  0
 10 14  1  0  0  0
 11 15  1  0  0  0
 29 30  1  0  0  0
M  END
> <minimizedAffinity>
-8.12509

> <minimizedRMSD>
0.58581

$$$$
P87181


 18 18  0  0  0  0  0  0  0  0999 V2000
    9.8041   14.6695   24.4842 C   0  0  0  0  0  0  0  0  0  0  0  0
    9.1984   13.2957   24.8378 C   0  0  0  0  0  0  0  0  0  0  0  0
    7.6953   13.1346   25.0195 C   0  0  0  0  0  0  0  0  0  0  0  0
    7.5185   11.7170   25.0223 N   0  0  0  0  0  0  0  0  0  0  0  0
    8.5598   11.0732   24.3857 C   0  0  0  0  0  0  0  0  0  0  0  0
    8.6350    9.8798   24.1854 O   0  0  0  0  0  0  0  0  0  0  0  0
    9.5519   12.1119   23.9449 C   0  0  0  0  0  0  0  0  0  0  0  0
    6.7489   11.2564   25.4283 H   0  0  0  0  0  0  0  0  0  0  0  0
    8.5114   16.8662   25.8346 C   0  0  0  0  0  0  0  0  0  0  0  0
    9.9085   15.7735   25.9260 S   0  0  0  0  0  0  0  0  0  0  0  0
   11.1060   16.5800   25.7925 O   0  0  0  0  0  0  0  0  0  0  0  0
    9.7360   14.9859   27.1327 O   0  0  0  0  0  0  0  0  0  0  0  0
    9.2336   15.3271   23.2161 C   0  0  0  0  0  0  0  0  0  0  0  0
   10.2167   16.1099   22.3310 C   0  0  0  0  0  0  0  0  0  0  0  0
   11.6930   15.7136   22.4470 C   0  0  0  0  0  0  0  0  0  0  0  0
   11.9585   14.4756   21.7901 O   0  0  0  0  0  0  0  0  0  0  0  0
   11.6990   14.7233   20.3749 O   0  0  0  0  0  0  0  0  0  0  0  0
   11.8630   13.9120   19.8692 H   0  0  0  0  0  0  0  0  0  0  0  0
  9 10  1  0  0  0
 10 11  2  0  0  0
 10 12  2  0  0  0
 10  1  1  0  0  0
  1 13  1  0  0  0
 13 14  1  0  0  0
 14 15  1  0  0  0
 15 16  1  0  0  0
 16 17  1  0  0  0
  1  2  1  0  0  0
  2  3  1  0  0  0
  3  4  1  0  0  0
  4  5  1  0  0  0
  5  6  2  0  0  0
  5  7  1  0  0  0
  7  2  1  0  0  0
 17 18  1  0  0  0
  4  8  1  0  0  0
M  END
> <minimizedAffinity>
-4.62227

> <minimizedRMSD>
1.64512

$$$$
P87365


 29 32  0  0  0  0  0  0  0  0999 V2000
   10.4136   15.2193   23.2147 N   0  0  0  0  0  0  0  0  0  0  0  0
   10.0929   14.9607   21.8107 C   0  0  0  0  0  0  0  0  0  0  0  0
   10.9567   15.7542   20.8079 C   0  0  0  0  0  0  0  0  0  0  0  0
   12.4284   15.5377   21.1263 C   0  0  0  0  0  0  0  0  0  0  0  0
   12.6780   15.9423   22.5492 C   0  0  0  0  0  0  0  0  0  0  0  0
   11.7835   15.2213   23.5170 C   0  0  0  0  0  0  0  0  0  0  0  0
   12.2494   14.7964   24.5766 O   0  0  0  0  0  0  0  0  0  0  0  0
    9.7290    9.5850   23.2105 C   0  0  0  0  0  0  0  0  0  0  0  0
    9.1507   10.8190   23.8375 C   0  0  0  0  0  0  0  0  0  0  0  0
    9.7650   12.0761   23.5982 C   0  0  0  0  0  0  0  0  0  0  0  0
    9.2236   13.2159   24.1454 C   0  0  0  0  0  0  0  0  0  0  0  0
    8.0265   13.0077   24.7608 C   0  0  0  0  0  0  0  0  0  0  0  0
    7.3952   11.8701   25.1255 C   0  0  0  0  0  0  0  0  0  0  0  0
    6.2739   12.3430   25.8737 C   0  0  0  0  0  0  0  0  0  0  0  0
    6.2336   13.7462   25.7904 C   0  0  0  0  0  0  0  0  0  0  0  0
    7.2993   14.1076   25.0511 N   0  0  0  0  0  0  0  0  0  0  0  0
    7.9884   15.2646   24.4316 C   0  0  0  0  0  0  0  0  0  0  0  0
    9.5017   14.6882   24.2298 C   0  0  0  0  0  0  0  0  0  0  0  0
   10.0649   15.0119   25.5110 O   0  0  0  0  0  0  0  0  0  0  0  0
    8.0172   10.6948   24.6943 C   0  0  0  0  0  0  0  0  0  0  0  0
   10.2408   15.9648   25.5554 H   0  0  0  0  0  0  0  0  0  0  0  0
   10.6190   15.4167   19.3495 C   0  0  0  0  0  0  0  0  0  0  0  0
   11.6078   14.7124   18.6103 N   0  0  0  0  0  0  0  0  0  0  0  0
   10.3556   16.5394   18.5835 O   0  0  0  0  0  0  0  0  0  0  0  0
    9.4610   14.6570   19.3467 O   0  0  0  0  0  0  0  0  0  0  0  0
   12.4725   15.2532   18.5979 H   0  0  0  0  0  0  0  0  0  0  0  0
   11.2813   14.5712   17.6543 H   0  0  0  0  0  0  0  0  0  0  0  0
   11.0200   17.1883   18.4593 H   0  0  0  0  0  0  0  0  0  0  0  0
    9.4318   13.8457   19.8146 H   0  0  0  0  0  0  0  0  0  0  0  0
  8  9  1  0  0  0
  9 10  2  0  0  0
 10 11  1  0  0  0
 11 12  2  0  0  0
 12 13  1  0  0  0
 13 14  1  0  0  0
 14 15  2  0  0  0
 15 16  1  0  0  0
 16 17  1  0  0  0
 17 18  1  0  0  0
 18 19  1  0  0  0
 18  1  1  0  0  0
  1  2  1  0  0  0
  2  3  1  0  0  0
  3 22  1  0  0  0
 22 23  1  0  0  0
 22 24  1  0  0  0
 22 25  1  0  0  0
  3  4  1  0  0  0
  4  5  1  0  0  0
  5  6  1  0  0  0
  6  7  2  0  0  0
 13 20  2  0  0  0
 20  9  1  0  0  0
 18 11  1  0  0  0
  6  1  1  0  0  0
 16 12  1  0  0  0
 19 21  1  0  0  0
 23 26  1  0  0  0
 23 27  1  0  0  0
 24 28  1  0  0  0
 25 29  1  0  0  0
M  END
> <minimizedAffinity>
-9.61923

> <minimizedRMSD>
0.55747

$$$$
P89241


 14 15  0  0  0  0  0  0  0  0999 V2000
    7.4935   11.6572   25.3352 N   0  0  0  0  0  0  0  0  0  0  0  0
    6.8012   11.6866   26.5627 C   0  0  0  0  0  0  0  0  0  0  0  0
    6.1043   10.6426   27.1491 C   0  0  0  0  0  0  0  0  0  0  0  0
    5.4480   10.8455   28.3640 C   0  0  0  0  0  0  0  0  0  0  0  0
    5.4994   12.0936   28.9908 C   0  0  0  0  0  0  0  0  0  0  0  0
    6.1909   13.1505   28.3982 C   0  0  0  0  0  0  0  0  0  0  0  0
    6.8261   12.9318   27.1834 C   0  0  0  0  0  0  0  0  0  0  0  0
    7.5717   13.9155   26.3335 C   0  0  0  0  0  0  0  0  0  0  0  0
    6.6256   14.9780   25.7763 C   0  0  0  0  0  0  0  0  0  0  0  0
    8.2208   12.9604   25.2901 C   0  0  0  0  0  0  0  0  0  0  0  0
    9.5950   10.5670   24.5631 C   0  0  0  0  0  0  0  0  0  0  0  0
    8.1938   10.3999   25.0848 C   0  0  0  0  0  0  0  0  0  0  0  0
    8.2173   13.5617   23.8877 C   0  0  0  0  0  0  0  0  0  0  0  0
    7.5615   13.1406   22.9361 O   0  0  0  0  0  0  0  0  0  0  0  0
 11 12  1  0  0  0
 12  1  1  0  0  0
  1  2  1  0  0  0
  2  3  2  0  0  0
  3  4  1  0  0  0
  4  5  2  0  0  0
  5  6  1  0  0  0
  6  7  2  0  0  0
  7  8  1  0  0  0
  8  9  1  0  0  0
  8 10  1  0  0  0
 10 13  1  0  0  0
 13 14  2  0  0  0
 10  1  1  0  0  0
  7  2  1  0  0  0
M  END
> <minimizedAffinity>
-3.96651

> <minimizedRMSD>
0.60636

$$$$
P90249


 18 19  0  0  0  0  0  0  0  0999 V2000
    6.9663   14.3311   25.5175 N   0  0  0  0  0  0  0  0  0  0  0  0
    6.5233   13.0306   25.5959 C   0  0  0  0  0  0  0  0  0  0  0  0
    7.4371   12.2352   24.9373 C   0  0  0  0  0  0  0  0  0  0  0  0
    7.4555   10.8429   24.7528 C   0  0  0  0  0  0  0  0  0  0  0  0
    8.5394   10.4517   23.9274 C   0  0  0  0  0  0  0  0  0  0  0  0
    9.5193   11.3541   23.3917 C   0  0  0  0  0  0  0  0  0  0  0  0
    9.5250   12.7459   23.6244 C   0  0  0  0  0  0  0  0  0  0  0  0
    8.4353   13.1172   24.4004 C   0  0  0  0  0  0  0  0  0  0  0  0
    8.1210   14.3902   24.7879 C   0  0  0  0  0  0  0  0  0  0  0  0
    8.8108   15.5050   24.5127 F   0  0  0  0  0  0  0  0  0  0  0  0
    6.6224    9.8363   25.2157 O   0  0  0  0  0  0  0  0  0  0  0  0
    5.9175   10.1507   26.4497 N   0  0  0  0  0  0  0  0  0  0  0  0
    5.3307    9.3604   26.7169 H   0  0  0  0  0  0  0  0  0  0  0  0
    5.3336   10.9749   26.3072 H   0  0  0  0  0  0  0  0  0  0  0  0
    6.2844   15.4488   26.0636 N   0  0  0  0  0  0  0  0  0  0  0  0
    6.0846   16.1076   25.3110 H   0  0  0  0  0  0  0  0  0  0  0  0
    7.2583   15.3004   28.3481 C   0  0  0  0  0  0  0  0  0  0  0  0
    7.0556   16.1376   27.0926 C   0  0  0  0  0  0  0  0  0  0  0  0
 17 18  1  0  0  0
 18 15  1  0  0  0
 15  1  1  0  0  0
  1  2  1  0  0  0
  2  3  2  0  0  0
  3  4  1  0  0  0
  4 11  1  0  0  0
 11 12  1  0  0  0
  4  5  2  0  0  0
  5  6  1  0  0  0
  6  7  2  0  0  0
  7  8  1  0  0  0
  8  9  2  0  0  0
  9 10  1  0  0  0
  9  1  1  0  0  0
  8  3  1  0  0  0
 15 16  1  0  0  0
 12 13  1  0  0  0
 12 14  1  0  0  0
M  END
> <minimizedAffinity>
-4.74277

> <minimizedRMSD>
0.77790

$$$$
P90743


 31 33  0  0  0  0  0  0  0  0999 V2000
    8.4061   14.9182   23.4112 C   0  0  0  0  0  0  0  0  0  0  0  0
    8.3293   13.8565   22.4762 O   0  0  0  0  0  0  0  0  0  0  0  0
    8.7835   14.3137   24.8101 C   0  0  0  0  0  0  0  0  0  0  0  0
    7.9790   13.1252   25.3168 C   0  0  0  0  0  0  0  0  0  0  0  0
    6.8226   13.3050   26.1069 C   0  0  0  0  0  0  0  0  0  0  0  0
    6.1732   12.2018   26.6647 C   0  0  0  0  0  0  0  0  0  0  0  0
    6.6462   10.9250   26.4102 C   0  0  0  0  0  0  0  0  0  0  0  0
    6.0078    9.8803   26.9519 F   0  0  0  0  0  0  0  0  0  0  0  0
    7.7423   10.7214   25.5891 C   0  0  0  0  0  0  0  0  0  0  0  0
    8.1367    9.4698   25.3078 F   0  0  0  0  0  0  0  0  0  0  0  0
    8.4059   11.8112   25.0343 C   0  0  0  0  0  0  0  0  0  0  0  0
    6.1020   14.9053   26.4236 S   0  0  0  0  0  0  0  0  0  0  0  0
    5.1585   15.1145   24.8586 C   0  0  0  0  0  0  0  0  0  0  0  0
    5.9374   14.8587   23.5590 C   0  0  0  0  0  0  0  0  0  0  0  0
    7.1599   15.6458   23.4831 N   0  0  0  0  0  0  0  0  0  0  0  0
    9.1778   13.3872   22.4494 H   0  0  0  0  0  0  0  0  0  0  0  0
    7.1967   16.2375   24.3131 H   0  0  0  0  0  0  0  0  0  0  0  0
   10.3450   15.3111   20.7311 C   0  0  0  0  0  0  0  0  0  0  0  0
   11.7332   15.3374   21.3815 C   0  0  0  0  0  0  0  0  0  0  0  0
   11.6611   15.1125   22.8845 C   0  0  0  0  0  0  0  0  0  0  0  0
   10.6597   16.0696   23.5169 C   0  0  0  0  0  0  0  0  0  0  0  0
    9.3308   15.9432   22.9355 N   0  0  0  0  0  0  0  0  0  0  0  0
    9.3620   16.2195   21.4821 C   0  0  0  0  0  0  0  0  0  0  0  0
   11.2575   14.6781   18.5595 N   0  0  0  0  0  0  0  0  0  0  0  0
   10.4976   15.7009   19.2501 C   0  0  0  0  0  0  0  0  0  0  0  0
   10.0793   16.7538   18.8650 O   0  0  0  0  0  0  0  0  0  0  0  0
   11.4480   14.7712   17.5982 H   0  0  0  0  0  0  0  0  0  0  0  0
   11.5831   13.8902   19.0519 H   0  0  0  0  0  0  0  0  0  0  0  0
    9.4183   11.6132   24.1213 O   0  0  0  0  0  0  0  0  0  0  0  0
   10.6342   11.3432   24.8722 O   0  0  0  0  0  0  0  0  0  0  0  0
   11.3693   11.1986   24.2560 H   0  0  0  0  0  0  0  0  0  0  0  0
 24 25  1  0  0  0
 25 26  2  0  0  0
 18 25  1  0  0  0
 18 19  1  0  0  0
 19 20  1  0  0  0
 20 21  1  0  0  0
 21 22  1  0  0  0
 22  1  1  0  0  0
  1  2  1  0  0  0
  1  3  1  0  0  0
  3  4  1  0  0  0
  4  5  2  0  0  0
  5  6  1  0  0  0
  6  7  2  0  0  0
  7  8  1  0  0  0
  7  9  1  0  0  0
  9 10  1  0  0  0
  9 11  2  0  0  0
 11 29  1  0  0  0
 29 30  1  0  0  0
  5 12  1  0  0  0
 12 13  1  0  0  0
 13 14  1  0  0  0
 14 15  1  0  0  0
 22 23  1  0  0  0
 23 18  1  0  0  0
 15  1  1  0  0  0
 11  4  1  0  0  0
 24 27  1  0  0  0
 24 28  1  0  0  0
  2 16  1  0  0  0
 30 31  1  0  0  0
 15 17  1  0  0  0
M  END
> <minimizedAffinity>
-8.66701

> <minimizedRMSD>
0.51559

$$$$
P91209


 32 35  0  0  0  0  0  0  0  0999 V2000
   10.7984   15.0575   20.7125 C   0  0  0  0  0  0  0  0  0  0  0  0
   11.8422   15.8483   21.5153 C   0  0  0  0  0  0  0  0  0  0  0  0
   12.2127   15.0773   22.7628 C   0  0  0  0  0  0  0  0  0  0  0  0
   11.0453   14.5581   23.5629 C   0  0  0  0  0  0  0  0  0  0  0  0
   10.3888   15.4792   24.5755 C   0  0  0  0  0  0  0  0  0  0  0  0
   10.9813   16.2359   25.3338 O   0  0  0  0  0  0  0  0  0  0  0  0
    8.8984   15.2560   24.5920 C   0  0  0  0  0  0  0  0  0  0  0  0
    8.8246   13.9416   23.8035 C   0  0  0  0  0  0  0  0  0  0  0  0
    7.5920   13.7593   23.1526 O   0  0  0  0  0  0  0  0  0  0  0  0
    9.8980   14.0301   22.7918 N   0  0  0  0  0  0  0  0  0  0  0  0
    9.5672   14.8736   21.6101 C   0  0  0  0  0  0  0  0  0  0  0  0
    6.8835   13.7005   23.8124 H   0  0  0  0  0  0  0  0  0  0  0  0
   11.5992   15.4703   18.4566 N   0  0  0  0  0  0  0  0  0  0  0  0
   10.5094   15.6981   19.3446 C   0  0  0  0  0  0  0  0  0  0  0  0
   10.3022   17.0649   19.4342 O   0  0  0  0  0  0  0  0  0  0  0  0
    9.3817   15.2423   18.6967 O   0  0  0  0  0  0  0  0  0  0  0  0
   11.3972   15.8990   17.5534 H   0  0  0  0  0  0  0  0  0  0  0  0
   11.7339   14.4667   18.3341 H   0  0  0  0  0  0  0  0  0  0  0  0
   10.9443   17.6102   19.8442 H   0  0  0  0  0  0  0  0  0  0  0  0
    9.2833   14.3285   18.5144 H   0  0  0  0  0  0  0  0  0  0  0  0
    9.1318   12.7153   24.7240 C   0  0  0  0  0  0  0  0  0  0  0  0
    7.9889   11.8724   25.2331 C   0  0  0  0  0  0  0  0  0  0  0  0
    6.9569   12.4475   25.9977 C   0  0  0  0  0  0  0  0  0  0  0  0
    5.9264   11.6613   26.5134 C   0  0  0  0  0  0  0  0  0  0  0  0
    5.9347   10.2855   26.3106 C   0  0  0  0  0  0  0  0  0  0  0  0
    6.9505    9.7041   25.5691 C   0  0  0  0  0  0  0  0  0  0  0  0
    7.9649   10.4843   25.0208 C   0  0  0  0  0  0  0  0  0  0  0  0
    9.1482    9.6621   24.0578 Cl  0  0  0  0  0  0  0  0  0  0  0  0
    4.9765    9.4388   26.7912 O   0  0  0  0  0  0  0  0  0  0  0  0
    4.1350   10.0713   27.7566 C   0  0  0  0  0  0  0  0  0  0  0  0
    3.7705   11.4810   27.3197 C   0  0  0  0  0  0  0  0  0  0  0  0
    4.9434   12.3008   27.2229 O   0  0  0  0  0  0  0  0  0  0  0  0
 13 14  1  0  0  0
 14 15  1  0  0  0
 14 16  1  0  0  0
  1 14  1  0  0  0
  1  2  1  0  0  0
  2  3  1  0  0  0
  4  3  1  0  0  0
  4  5  1  0  0  0
  5  6  2  0  0  0
  5  7  1  0  0  0
  7  8  1  0  0  0
  8  9  1  0  0  0
  8 21  1  0  0  0
 21 22  1  0  0  0
 22 23  2  0  0  0
 23 24  1  0  0  0
 24 25  2  0  0  0
 25 26  1  0  0  0
 26 27  2  0  0  0
 27 28  1  0  0  0
 25 29  1  0  0  0
 29 30  1  0  0  0
 30 31  1  0  0  0
 31 32  1  0  0  0
  8 10  1  0  0  0
 10 11  1  0  0  0
 11  1  1  0  0  0
 10  4  1  0  0  0
 27 22  1  0  0  0
 32 24  1  0  0  0
 13 17  1  0  0  0
 13 18  1  0  0  0
 15 19  1  0  0  0
 16 20  1  0  0  0
  9 12  1  0  0  0
M  END
> <minimizedAffinity>
-8.47570

> <minimizedRMSD>
0.28566

$$$$
P94244


 29 32  0  0  0  0  0  0  0  0999 V2000
    9.8963   14.2454   22.8184 N   0  0  0  0  0  0  0  0  0  0  0  0
   10.9785   14.5304   23.6411 C   0  0  0  0  0  0  0  0  0  0  0  0
   10.9802   14.3897   24.8660 O   0  0  0  0  0  0  0  0  0  0  0  0
   12.2274   15.0824   22.9905 C   0  0  0  0  0  0  0  0  0  0  0  0
   12.3042   14.8338   21.5099 C   0  0  0  0  0  0  0  0  0  0  0  0
   11.0472   15.2889   20.7830 C   0  0  0  0  0  0  0  0  0  0  0  0
   11.1765   14.9077   19.3180 C   0  0  0  0  0  0  0  0  0  0  0  0
   10.1747   15.7241   18.6630 N   0  0  0  0  0  0  0  0  0  0  0  0
   10.1683   16.9405   19.3947 N   0  0  0  0  0  0  0  0  0  0  0  0
   10.9211   16.7354   20.6031 N   0  0  0  0  0  0  0  0  0  0  0  0
    9.7595   14.9171   21.5435 C   0  0  0  0  0  0  0  0  0  0  0  0
    8.8104   14.2608   20.7212 O   0  0  0  0  0  0  0  0  0  0  0  0
    9.2602   15.2741   18.7048 H   0  0  0  0  0  0  0  0  0  0  0  0
    9.2094   17.2016   19.6242 H   0  0  0  0  0  0  0  0  0  0  0  0
   10.4297   17.1463   21.3968 H   0  0  0  0  0  0  0  0  0  0  0  0
    9.1460   13.3844   20.4761 H   0  0  0  0  0  0  0  0  0  0  0  0
    8.6180   13.8080   23.4028 C   0  0  0  0  0  0  0  0  0  0  0  0
    7.7898   14.9619   23.9472 C   0  0  0  0  0  0  0  0  0  0  0  0
   10.1064    9.1850   22.8447 C   0  0  0  0  0  0  0  0  0  0  0  0
    9.2870   10.1620   23.6272 C   0  0  0  0  0  0  0  0  0  0  0  0
    9.4959   11.5155   23.4648 C   0  0  0  0  0  0  0  0  0  0  0  0
    8.6889   12.4700   24.1237 C   0  0  0  0  0  0  0  0  0  0  0  0
    7.7713   12.0558   25.1316 C   0  0  0  0  0  0  0  0  0  0  0  0
    7.0773   12.9043   26.0351 C   0  0  0  0  0  0  0  0  0  0  0  0
    6.0945   12.4448   26.9123 C   0  0  0  0  0  0  0  0  0  0  0  0
    5.7778   11.1037   26.9230 C   0  0  0  0  0  0  0  0  0  0  0  0
    6.4886   10.2334   26.1010 C   0  0  0  0  0  0  0  0  0  0  0  0
    7.5119   10.6797   25.2413 C   0  0  0  0  0  0  0  0  0  0  0  0
    8.2674    9.7649   24.4853 C   0  0  0  0  0  0  0  0  0  0  0  0
 19 20  1  0  0  0
 20 21  2  0  0  0
 21 22  1  0  0  0
 22 17  1  0  0  0
 17 18  1  0  0  0
 17  1  1  0  0  0
  1  2  1  0  0  0
  2  3  2  0  0  0
  2  4  1  0  0  0
  4  5  1  0  0  0
  6  5  1  0  0  0
  6  7  1  0  0  0
  7  8  1  0  0  0
  8  9  1  0  0  0
  9 10  1  0  0  0
  6 11  1  0  0  0
 11 12  1  0  0  0
 22 23  2  0  0  0
 23 24  1  0  0  0
 24 25  2  0  0  0
 25 26  1  0  0  0
 26 27  2  0  0  0
 27 28  1  0  0  0
 28 29  2  0  0  0
 29 20  1  0  0  0
 11  1  1  0  0  0
 28 23  1  0  0  0
 10  6  1  0  0  0
  8 13  1  0  0  0
  9 14  1  0  0  0
 10 15  1  0  0  0
 12 16  1  0  0  0
M  END
> <minimizedAffinity>
-9.53258

> <minimizedRMSD>
0.23363

$$$$
P95226


 26 29  0  0  0  0  0  0  0  0999 V2000
    8.0660   10.1339   24.0830 C   0  0  0  0  0  0  0  0  0  0  0  0
    8.0357   11.6061   24.2525 N   0  0  0  0  0  0  0  0  0  0  0  0
    7.4981   12.4071   23.1873 N   0  0  0  0  0  0  0  0  0  0  0  0
    8.3160   13.6188   22.9399 C   0  0  0  0  0  0  0  0  0  0  0  0
    9.6116   13.7730   23.7773 C   0  0  0  0  0  0  0  0  0  0  0  0
   10.3508   12.5523   23.8562 O   0  0  0  0  0  0  0  0  0  0  0  0
    9.1089   14.1722   25.2093 C   0  0  0  0  0  0  0  0  0  0  0  0
    7.8162   13.4974   25.7327 C   0  0  0  0  0  0  0  0  0  0  0  0
    6.9310   14.2281   26.5395 C   0  0  0  0  0  0  0  0  0  0  0  0
    5.8157   13.6067   27.1131 C   0  0  0  0  0  0  0  0  0  0  0  0
    5.5806   12.2469   26.9184 C   0  0  0  0  0  0  0  0  0  0  0  0
    6.4164   11.5097   26.0868 C   0  0  0  0  0  0  0  0  0  0  0  0
    7.4970   12.1368   25.4461 C   0  0  0  0  0  0  0  0  0  0  0  0
    6.5512   12.6935   23.4356 H   0  0  0  0  0  0  0  0  0  0  0  0
   10.6618   12.3049   22.9713 H   0  0  0  0  0  0  0  0  0  0  0  0
   10.5110   14.7386   23.1603 N   0  0  0  0  0  0  0  0  0  0  0  0
   11.9030   14.6448   23.5802 C   0  0  0  0  0  0  0  0  0  0  0  0
   12.6496   15.2460   22.4114 C   0  0  0  0  0  0  0  0  0  0  0  0
   11.9441   14.6284   21.2388 C   0  0  0  0  0  0  0  0  0  0  0  0
   10.4954   14.6990   21.6659 C   0  0  0  0  0  0  0  0  0  0  0  0
    9.7909   15.9206   21.1359 C   0  0  0  0  0  0  0  0  0  0  0  0
    9.1998   16.1138   19.9024 C   0  0  0  0  0  0  0  0  0  0  0  0
    8.7199   17.3947   19.9277 N   0  0  0  0  0  0  0  0  0  0  0  0
    9.0247   17.9250   21.1429 C   0  0  0  0  0  0  0  0  0  0  0  0
    9.6489   17.0592   21.8976 N   0  0  0  0  0  0  0  0  0  0  0  0
    8.2407   17.8504   19.1984 H   0  0  0  0  0  0  0  0  0  0  0  0
  1  2  1  0  0  0
  2  3  1  0  0  0
  3  4  1  0  0  0
  4  5  1  0  0  0
  5  6  1  0  0  0
  5 16  1  0  0  0
 16 17  1  0  0  0
 17 18  1  0  0  0
 18 19  1  0  0  0
 19 20  1  0  0  0
 20 21  1  0  0  0
 21 22  2  0  0  0
 22 23  1  0  0  0
 23 24  1  0  0  0
 24 25  2  0  0  0
  5  7  1  0  0  0
  7  8  1  0  0  0
  8  9  2  0  0  0
  9 10  1  0  0  0
 10 11  2  0  0  0
 11 12  1  0  0  0
 12 13  2  0  0  0
 13  2  1  0  0  0
 20 16  1  0  0  0
 25 21  1  0  0  0
 13  8  1  0  0  0
  3 14  1  0  0  0
  6 15  1  0  0  0
 23 26  1  0  0  0
M  END
> <minimizedAffinity>
-8.74916

> <minimizedRMSD>
0.63318

$$$$
P95495


 14 15  0  0  0  0  0  0  0  0999 V2000
    9.3949   10.6075   23.9743 C   0  0  0  0  0  0  0  0  0  0  0  0
    9.2281   11.3379   25.2846 C   0  0  0  0  0  0  0  0  0  0  0  0
    7.4338   11.5821   25.4366 S   0  0  0  0  0  0  0  0  0  0  0  0
    7.1941   13.3104   25.1257 C   0  0  0  0  0  0  0  0  0  0  0  0
    5.8896   13.7856   25.3338 C   0  0  0  0  0  0  0  0  0  0  0  0
    5.5752   15.1295   25.1526 C   0  0  0  0  0  0  0  0  0  0  0  0
    6.5604   16.0121   24.7355 C   0  0  0  0  0  0  0  0  0  0  0  0
    7.8591   15.5527   24.5233 C   0  0  0  0  0  0  0  0  0  0  0  0
    8.1971   14.2022   24.7320 C   0  0  0  0  0  0  0  0  0  0  0  0
    9.6332   13.7762   24.5113 C   0  0  0  0  0  0  0  0  0  0  0  0
   10.0407   12.6315   25.4604 C   0  0  0  0  0  0  0  0  0  0  0  0
   11.5551   12.3825   25.4393 C   0  0  0  0  0  0  0  0  0  0  0  0
    9.9510   13.5043   23.0459 C   0  0  0  0  0  0  0  0  0  0  0  0
    9.1600   13.6248   22.1130 O   0  0  0  0  0  0  0  0  0  0  0  0
  2  1  1  0  0  0
  2  3  1  0  0  0
  3  4  1  0  0  0
  4  5  2  0  0  0
  5  6  1  0  0  0
  6  7  2  0  0  0
  7  8  1  0  0  0
  8  9  2  0  0  0
  9 10  1  0  0  0
 10 13  1  0  0  0
 13 14  2  0  0  0
 10 11  1  0  0  0
 11 12  1  0  0  0
 11  2  1  0  0  0
  9  4  1  0  0  0
M  END
> <minimizedAffinity>
-4.12598

> <minimizedRMSD>
1.87908

$$$$
P95526


 33 35  0  0  0  0  0  0  0  0999 V2000
    9.8710   14.8347   23.0070 N   0  0  0  0  0  0  0  0  0  0  0  0
    9.5694   14.9943   21.5450 C   0  0  0  0  0  0  0  0  0  0  0  0
   10.6762   15.6374   20.6643 C   0  0  0  0  0  0  0  0  0  0  0  0
   12.0318   15.2213   21.1987 C   0  0  0  0  0  0  0  0  0  0  0  0
   12.1570   15.5664   22.6768 C   0  0  0  0  0  0  0  0  0  0  0  0
   10.8187   15.8848   23.3660 C   0  0  0  0  0  0  0  0  0  0  0  0
   11.0980   15.9882   24.7859 N   0  0  0  0  0  0  0  0  0  0  0  0
   11.5251   15.1214   25.1124 H   0  0  0  0  0  0  0  0  0  0  0  0
   10.2278   16.1504   25.2926 H   0  0  0  0  0  0  0  0  0  0  0  0
   10.5070   15.3437   19.1552 C   0  0  0  0  0  0  0  0  0  0  0  0
   11.3324   14.3252   18.6148 N   0  0  0  0  0  0  0  0  0  0  0  0
   10.7445   16.4459   18.3572 O   0  0  0  0  0  0  0  0  0  0  0  0
    9.1951   14.9797   18.8951 O   0  0  0  0  0  0  0  0  0  0  0  0
   12.3115   14.5549   18.7852 H   0  0  0  0  0  0  0  0  0  0  0  0
   11.1699   14.2531   17.6104 H   0  0  0  0  0  0  0  0  0  0  0  0
   11.5831   16.8635   18.3727 H   0  0  0  0  0  0  0  0  0  0  0  0
    8.8172   14.2437   19.3349 H   0  0  0  0  0  0  0  0  0  0  0  0
    8.6693   14.6820   23.8320 C   0  0  0  0  0  0  0  0  0  0  0  0
    7.6827   13.9804   23.0982 O   0  0  0  0  0  0  0  0  0  0  0  0
    8.0897   15.9470   24.0568 O   0  0  0  0  0  0  0  0  0  0  0  0
    7.8404   13.0977   22.8263 H   0  0  0  0  0  0  0  0  0  0  0  0
    8.5626   16.6010   24.5328 H   0  0  0  0  0  0  0  0  0  0  0  0
    9.6980   11.4506   23.1719 C   0  0  0  0  0  0  0  0  0  0  0  0
    9.7159   11.5038   24.6772 C   0  0  0  0  0  0  0  0  0  0  0  0
    9.9777   12.8787   25.2608 C   0  0  0  0  0  0  0  0  0  0  0  0
    8.8538   13.9296   25.2102 C   0  0  0  0  0  0  0  0  0  0  0  0
    7.5502   13.4101   25.8092 C   0  0  0  0  0  0  0  0  0  0  0  0
    6.6683   14.3509   26.3859 C   0  0  0  0  0  0  0  0  0  0  0  0
    5.4740   13.9615   26.9851 C   0  0  0  0  0  0  0  0  0  0  0  0
    5.1436   12.6184   27.0369 C   0  0  0  0  0  0  0  0  0  0  0  0
    6.0017   11.6788   26.4701 C   0  0  0  0  0  0  0  0  0  0  0  0
    7.2035   12.0589   25.8485 C   0  0  0  0  0  0  0  0  0  0  0  0
    8.1898   10.7183   25.2402 S   0  0  0  0  0  0  0  0  0  0  0  0
 24 23  1  0  0  0
 24 25  1  0  0  0
 25 26  1  0  0  0
 26 18  1  0  0  0
 18 19  1  0  0  0
 18 20  1  0  0  0
 18  1  1  0  0  0
  1  2  1  0  0  0
  2  3  1  0  0  0
  3 10  1  0  0  0
 10 11  1  0  0  0
 10 12  1  0  0  0
 10 13  1  0  0  0
  3  4  1  0  0  0
  4  5  1  0  0  0
  5  6  1  0  0  0
  6  7  1  0  0  0
 26 27  1  0  0  0
 27 28  2  0  0  0
 28 29  1  0  0  0
 29 30  2  0  0  0
 30 31  1  0  0  0
 31 32  2  0  0  0
 32 33  1  0  0  0
 33 24  1  0  0  0
  6  1  1  0  0  0
 32 27  1  0  0  0
 19 21  1  0  0  0
 20 22  1  0  0  0
 11 14  1  0  0  0
 11 15  1  0  0  0
 12 16  1  0  0  0
 13 17  1  0  0  0
  7  8  1  0  0  0
  7  9  1  0  0  0
M  END
> <minimizedAffinity>
-7.60199

> <minimizedRMSD>
0.49035

$$$$
P95600


 28 30  0  0  0  0  0  0  0  0999 V2000
    4.7256   15.8861   25.0779 C   0  0  0  0  0  0  0  0  0  0  0  0
    5.7639   14.9098   24.7046 N   0  0  0  0  0  0  0  0  0  0  0  0
    5.8086   14.5466   23.3349 N   0  0  0  0  0  0  0  0  0  0  0  0
    7.1577   14.6892   22.7686 C   0  0  0  0  0  0  0  0  0  0  0  0
    8.3676   14.6378   23.7617 C   0  0  0  0  0  0  0  0  0  0  0  0
    8.2523   15.7638   24.6501 O   0  0  0  0  0  0  0  0  0  0  0  0
    8.3297   13.3360   24.6051 C   0  0  0  0  0  0  0  0  0  0  0  0
    7.0922   12.9649   25.4054 C   0  0  0  0  0  0  0  0  0  0  0  0
    7.1390   11.7149   26.0380 C   0  0  0  0  0  0  0  0  0  0  0  0
    6.0588   11.2778   26.7803 C   0  0  0  0  0  0  0  0  0  0  0  0
    6.0674   10.0348   27.2536 F   0  0  0  0  0  0  0  0  0  0  0  0
    4.9597   12.0819   27.0078 C   0  0  0  0  0  0  0  0  0  0  0  0
    4.8968   13.3256   26.3888 C   0  0  0  0  0  0  0  0  0  0  0  0
    5.9245   13.7640   25.5302 C   0  0  0  0  0  0  0  0  0  0  0  0
    5.1684   15.1464   22.8145 H   0  0  0  0  0  0  0  0  0  0  0  0
    8.2746   16.5855   24.1351 H   0  0  0  0  0  0  0  0  0  0  0  0
    9.7105   14.6547   23.1223 N   0  0  0  0  0  0  0  0  0  0  0  0
   10.6821   15.3988   23.9412 C   0  0  0  0  0  0  0  0  0  0  0  0
   12.0826   15.2963   23.3670 C   0  0  0  0  0  0  0  0  0  0  0  0
   12.1033   15.8352   21.9469 C   0  0  0  0  0  0  0  0  0  0  0  0
   11.1416   15.0027   21.1092 C   0  0  0  0  0  0  0  0  0  0  0  0
    9.7408   15.0908   21.7106 C   0  0  0  0  0  0  0  0  0  0  0  0
   11.1606   15.5627   19.4141 S   0  0  0  0  0  0  0  0  0  0  0  0
   10.5104   14.3541   18.5214 N   0  0  0  0  0  0  0  0  0  0  0  0
   10.2292   16.6488   19.2538 O   0  0  0  0  0  0  0  0  0  0  0  0
   12.5140   15.6072   18.9263 O   0  0  0  0  0  0  0  0  0  0  0  0
    9.5328   14.2263   18.7829 H   0  0  0  0  0  0  0  0  0  0  0  0
   11.0242   13.4899   18.6936 H   0  0  0  0  0  0  0  0  0  0  0  0
  1  2  1  0  0  0
  2  3  1  0  0  0
  3  4  1  0  0  0
  4  5  1  0  0  0
  5  6  1  0  0  0
  5 17  1  0  0  0
 17 18  1  0  0  0
 18 19  1  0  0  0
 19 20  1  0  0  0
 20 21  1  0  0  0
 21 23  1  0  0  0
 23 24  1  0  0  0
 23 25  2  0  0  0
 23 26  2  0  0  0
 21 22  1  0  0  0
  5  7  1  0  0  0
  7  8  1  0  0  0
  8  9  2  0  0  0
  9 10  1  0  0  0
 10 11  1  0  0  0
 10 12  2  0  0  0
 12 13  1  0  0  0
 13 14  2  0  0  0
 14  2  1  0  0  0
 22 17  1  0  0  0
 14  8  1  0  0  0
  3 15  1  0  0  0
  6 16  1  0  0  0
 24 27  1  0  0  0
 24 28  1  0  0  0
M  END
> <minimizedAffinity>
-7.39774

> <minimizedRMSD>
0.47177

$$$$
P95617


 29 30  0  0  0  0  0  0  0  0999 V2000
    9.4390   13.4371   23.9512 C   0  0  0  0  0  0  0  0  0  0  0  0
    8.4941   12.7563   23.1387 O   0  0  0  0  0  0  0  0  0  0  0  0
   10.5101   12.5454   24.1782 O   0  0  0  0  0  0  0  0  0  0  0  0
    7.7045   13.1875   22.8769 H   0  0  0  0  0  0  0  0  0  0  0  0
   11.2411   12.8142   24.6992 H   0  0  0  0  0  0  0  0  0  0  0  0
    9.9036   14.6433   23.2768 N   0  0  0  0  0  0  0  0  0  0  0  0
   11.0698   15.2939   23.8723 C   0  0  0  0  0  0  0  0  0  0  0  0
   12.2356   15.4738   22.9090 C   0  0  0  0  0  0  0  0  0  0  0  0
   11.8342   16.2720   21.6790 C   0  0  0  0  0  0  0  0  0  0  0  0
   10.4893   15.8162   21.1112 C   0  0  0  0  0  0  0  0  0  0  0  0
    9.9111   14.5794   21.8104 C   0  0  0  0  0  0  0  0  0  0  0  0
   10.5857   15.4918   19.3379 S   0  0  0  0  0  0  0  0  0  0  0  0
   11.9389   14.5393   19.1708 N   0  0  0  0  0  0  0  0  0  0  0  0
   10.8566   16.6892   18.6064 O   0  0  0  0  0  0  0  0  0  0  0  0
    9.4977   14.6570   18.9265 O   0  0  0  0  0  0  0  0  0  0  0  0
   12.7647   15.0701   19.4480 H   0  0  0  0  0  0  0  0  0  0  0  0
   12.0323   14.2489   18.1975 H   0  0  0  0  0  0  0  0  0  0  0  0
    8.8167   13.8139   25.3371 C   0  0  0  0  0  0  0  0  0  0  0  0
    6.3861   13.6836   26.1530 C   0  0  0  0  0  0  0  0  0  0  0  0
    5.2912   12.9111   26.5726 C   0  0  0  0  0  0  0  0  0  0  0  0
    5.3883   11.5319   26.7123 C   0  0  0  0  0  0  0  0  0  0  0  0
    6.5910   10.9035   26.4337 C   0  0  0  0  0  0  0  0  0  0  0  0
    7.6932   11.6439   26.0093 C   0  0  0  0  0  0  0  0  0  0  0  0
    7.6041   13.0355   25.8315 C   0  0  0  0  0  0  0  0  0  0  0  0
    6.2113   15.0903   26.0250 N   0  0  0  0  0  0  0  0  0  0  0  0
    6.5988   15.6864   26.7060 H   0  0  0  0  0  0  0  0  0  0  0  0
    5.7798   15.0459   23.6425 C   0  0  0  0  0  0  0  0  0  0  0  0
    5.4909   15.6554   24.9378 N   0  0  0  0  0  0  0  0  0  0  0  0
    4.0633   15.7465   25.2133 C   0  0  0  0  0  0  0  0  0  0  0  0
 27 28  1  0  0  0
 28 29  1  0  0  0
 28 25  1  0  0  0
 25 19  1  0  0  0
 19 20  2  0  0  0
 20 21  1  0  0  0
 21 22  2  0  0  0
 22 23  1  0  0  0
 23 24  2  0  0  0
 24 18  1  0  0  0
 18  1  1  0  0  0
  1  2  1  0  0  0
  1  3  1  0  0  0
  1  6  1  0  0  0
  6  7  1  0  0  0
  7  8  1  0  0  0
  8  9  1  0  0  0
  9 10  1  0  0  0
 10 12  1  0  0  0
 12 13  1  0  0  0
 12 14  2  0  0  0
 12 15  2  0  0  0
 10 11  1  0  0  0
 24 19  1  0  0  0
 11  6  1  0  0  0
 25 26  1  0  0  0
  2  4  1  0  0  0
  3  5  1  0  0  0
 13 16  1  0  0  0
 13 17  1  0  0  0
M  END
> <minimizedAffinity>
-6.03113

> <minimizedRMSD>
0.80981

$$$$
P95625


 25 27  0  0  0  0  0  0  0  0999 V2000
    8.2657   13.5647   24.7797 C   0  0  0  0  0  0  0  0  0  0  0  0
    9.7733   13.7527   24.9953 C   0  0  0  0  0  0  0  0  0  0  0  0
   10.1304   14.8452   23.9878 C   0  0  0  0  0  0  0  0  0  0  0  0
   11.5456   14.7337   23.4133 C   0  0  0  0  0  0  0  0  0  0  0  0
   12.4892   14.3646   24.1158 O   0  0  0  0  0  0  0  0  0  0  0  0
   11.7713   15.3112   22.0239 C   0  0  0  0  0  0  0  0  0  0  0  0
   10.6680   14.8411   21.0843 C   0  0  0  0  0  0  0  0  0  0  0  0
    9.3185   15.2630   21.6256 C   0  0  0  0  0  0  0  0  0  0  0  0
    9.1377   14.7000   22.9477 N   0  0  0  0  0  0  0  0  0  0  0  0
    8.0827   13.8907   23.3163 C   0  0  0  0  0  0  0  0  0  0  0  0
    7.1645   13.5267   22.6004 O   0  0  0  0  0  0  0  0  0  0  0  0
    7.9169   10.9838   24.7003 C   0  0  0  0  0  0  0  0  0  0  0  0
    7.0647    9.9174   25.0201 C   0  0  0  0  0  0  0  0  0  0  0  0
    5.9265   10.1011   25.8032 C   0  0  0  0  0  0  0  0  0  0  0  0
    5.6190   11.3512   26.3035 C   0  0  0  0  0  0  0  0  0  0  0  0
    6.4368   12.4263   25.9914 C   0  0  0  0  0  0  0  0  0  0  0  0
    7.5852   12.2732   25.1814 C   0  0  0  0  0  0  0  0  0  0  0  0
    9.3917    8.9254   23.3980 C   0  0  0  0  0  0  0  0  0  0  0  0
    9.3543   10.7172   23.6632 S   0  0  0  0  0  0  0  0  0  0  0  0
   10.8908   15.4721   19.4356 S   0  0  0  0  0  0  0  0  0  0  0  0
   10.0336   14.4025   18.4849 N   0  0  0  0  0  0  0  0  0  0  0  0
   10.1865   16.7260   19.3131 O   0  0  0  0  0  0  0  0  0  0  0  0
   12.2673   15.3086   19.0444 O   0  0  0  0  0  0  0  0  0  0  0  0
    9.0412   14.4660   18.7116 H   0  0  0  0  0  0  0  0  0  0  0  0
   10.3623   13.4529   18.6603 H   0  0  0  0  0  0  0  0  0  0  0  0
 18 19  1  0  0  0
 19 12  1  0  0  0
 12 13  2  0  0  0
 13 14  1  0  0  0
 14 15  2  0  0  0
 15 16  1  0  0  0
 16 17  2  0  0  0
  1 17  1  0  0  0
  1  2  1  0  0  0
  3  2  1  0  0  0
  3  4  1  0  0  0
  4  5  2  0  0  0
  4  6  1  0  0  0
  6  7  1  0  0  0
  7 20  1  0  0  0
 20 21  1  0  0  0
 20 22  2  0  0  0
 20 23  2  0  0  0
  7  8  1  0  0  0
  8  9  1  0  0  0
  9 10  1  0  0  0
 10 11  2  0  0  0
 17 12  1  0  0  0
 10  1  1  0  0  0
  9  3  1  0  0  0
 21 24  1  0  0  0
 21 25  1  0  0  0
M  END
> <minimizedAffinity>
-9.66830

> <minimizedRMSD>
0.25641

$$$$
P95640


 27 28  0  0  0  0  0  0  0  0999 V2000
    8.0999   14.4249   24.0089 C   0  0  0  0  0  0  0  0  0  0  0  0
    7.0172   15.0094   24.0169 N   0  0  0  0  0  0  0  0  0  0  0  0
    9.3043   14.5633   23.0569 N   0  0  0  0  0  0  0  0  0  0  0  0
   10.2142   15.7715   23.4633 C   0  0  0  0  0  0  0  0  0  0  0  0
   11.6703   15.4314   23.1794 C   0  0  0  0  0  0  0  0  0  0  0  0
   11.9011   15.7424   21.7257 C   0  0  0  0  0  0  0  0  0  0  0  0
   10.7919   15.0298   20.9701 C   0  0  0  0  0  0  0  0  0  0  0  0
    9.4375   15.2889   21.6521 C   0  0  0  0  0  0  0  0  0  0  0  0
   10.8050   15.5423   19.2658 S   0  0  0  0  0  0  0  0  0  0  0  0
    9.8406   14.4208   18.4971 N   0  0  0  0  0  0  0  0  0  0  0  0
   10.1003   16.7937   19.1297 O   0  0  0  0  0  0  0  0  0  0  0  0
   12.1249   15.3353   18.7222 O   0  0  0  0  0  0  0  0  0  0  0  0
    8.8820   14.5085   18.8345 H   0  0  0  0  0  0  0  0  0  0  0  0
   10.1863   13.4820   18.6956 H   0  0  0  0  0  0  0  0  0  0  0  0
    6.6654   16.0034   23.1647 C   0  0  0  0  0  0  0  0  0  0  0  0
    5.6245   15.5660   22.1686 C   0  0  0  0  0  0  0  0  0  0  0  0
    7.0727   17.1515   23.2400 O   0  0  0  0  0  0  0  0  0  0  0  0
    8.3550   13.4833   25.1698 C   0  0  0  0  0  0  0  0  0  0  0  0
    9.2057   13.7671   26.0055 O   0  0  0  0  0  0  0  0  0  0  0  0
    7.8592   11.0724   24.7310 C   0  0  0  0  0  0  0  0  0  0  0  0
    7.0269    9.9882   25.0078 C   0  0  0  0  0  0  0  0  0  0  0  0
    5.8937   10.1263   25.8194 C   0  0  0  0  0  0  0  0  0  0  0  0
    5.5577   11.3583   26.3673 C   0  0  0  0  0  0  0  0  0  0  0  0
    6.3652   12.4542   26.1098 C   0  0  0  0  0  0  0  0  0  0  0  0
    7.5034   12.3018   25.3042 C   0  0  0  0  0  0  0  0  0  0  0  0
    9.4963    9.1694   23.3793 C   0  0  0  0  0  0  0  0  0  0  0  0
    9.3200   10.9401   23.7080 S   0  0  0  0  0  0  0  0  0  0  0  0
 26 27  1  0  0  0
 27 20  1  0  0  0
 20 21  2  0  0  0
 21 22  1  0  0  0
 22 23  2  0  0  0
 23 24  1  0  0  0
 24 25  2  0  0  0
 25 18  1  0  0  0
 18 19  2  0  0  0
 18  1  1  0  0  0
  1  2  2  0  0  0
  2 15  1  0  0  0
 15 16  1  0  0  0
 15 17  2  0  0  0
  1  3  1  0  0  0
  3  4  1  0  0  0
  4  5  1  0  0  0
  5  6  1  0  0  0
  6  7  1  0  0  0
  7  9  1  0  0  0
  9 10  1  0  0  0
  9 11  2  0  0  0
  9 12  2  0  0  0
  7  8  1  0  0  0
 25 20  1  0  0  0
  8  3  1  0  0  0
 10 13  1  0  0  0
 10 14  1  0  0  0
M  END
> <minimizedAffinity>
-7.73588

> <minimizedRMSD>
0.34386

$$$$
P95694


 27 29  0  0  0  0  0  0  0  0999 V2000
    7.4875   10.8916   24.3578 C   0  0  0  0  0  0  0  0  0  0  0  0
    6.9629   10.2442   25.6335 C   0  0  0  0  0  0  0  0  0  0  0  0
    6.1434   11.3368   26.3684 C   0  0  0  0  0  0  0  0  0  0  0  0
    6.1555   12.5650   25.4448 C   0  0  0  0  0  0  0  0  0  0  0  0
    6.0892   13.9494   26.0934 C   0  0  0  0  0  0  0  0  0  0  0  0
    7.4152   14.7040   26.3274 C   0  0  0  0  0  0  0  0  0  0  0  0
    8.2098   15.2276   25.1016 C   0  0  0  0  0  0  0  0  0  0  0  0
    8.8557   14.2493   24.0669 C   0  0  0  0  0  0  0  0  0  0  0  0
    9.8259   13.4456   24.7540 O   0  0  0  0  0  0  0  0  0  0  0  0
    7.7317   13.3358   23.5748 C   0  0  0  0  0  0  0  0  0  0  0  0
    7.4517   12.3513   24.7127 C   0  0  0  0  0  0  0  0  0  0  0  0
   10.5467   14.0110   25.0729 H   0  0  0  0  0  0  0  0  0  0  0  0
    9.5889   15.0157   23.0648 N   0  0  0  0  0  0  0  0  0  0  0  0
   10.9118   15.4287   23.5506 C   0  0  0  0  0  0  0  0  0  0  0  0
   12.0226   14.7923   22.7614 C   0  0  0  0  0  0  0  0  0  0  0  0
   11.9848   15.3073   21.3310 C   0  0  0  0  0  0  0  0  0  0  0  0
   10.5483   15.6312   20.8342 C   0  0  0  0  0  0  0  0  0  0  0  0
   10.0910   17.0688   21.1294 C   0  0  0  0  0  0  0  0  0  0  0  0
    9.5614   14.6936   21.5978 C   0  0  0  0  0  0  0  0  0  0  0  0
   10.6130   15.5797   19.0102 S   0  0  0  0  0  0  0  0  0  0  0  0
    9.8517   14.2477   18.5329 N   0  0  0  0  0  0  0  0  0  0  0  0
    9.9535   16.7268   18.4487 O   0  0  0  0  0  0  0  0  0  0  0  0
   11.9252   15.2070   18.5605 O   0  0  0  0  0  0  0  0  0  0  0  0
    8.8624   14.3175   18.7712 H   0  0  0  0  0  0  0  0  0  0  0  0
   10.2579   13.4376   19.0011 H   0  0  0  0  0  0  0  0  0  0  0  0
    9.0561    8.7902   23.3981 C   0  0  0  0  0  0  0  0  0  0  0  0
    9.1498   10.5389   23.6937 S   0  0  0  0  0  0  0  0  0  0  0  0
 26 27  1  0  0  0
  1 27  1  0  0  0
  1  2  1  0  0  0
  2  3  1  0  0  0
  4  3  1  0  0  0
  4  5  1  0  0  0
  5  6  1  0  0  0
  6  7  1  0  0  0
  7  8  1  0  0  0
  8  9  1  0  0  0
  8 13  1  0  0  0
 13 14  1  0  0  0
 14 15  1  0  0  0
 15 16  1  0  0  0
 16 17  1  0  0  0
 17 18  1  0  0  0
 17 20  1  0  0  0
 20 21  1  0  0  0
 20 22  2  0  0  0
 20 23  2  0  0  0
 17 19  1  0  0  0
  8 10  1  0  0  0
 11 10  1  0  0  0
 11  1  1  0  0  0
 11  4  1  0  0  0
 19 13  1  0  0  0
  9 12  1  0  0  0
 21 24  1  0  0  0
 21 25  1  0  0  0
M  END
> <minimizedAffinity>
-5.69117

> <minimizedRMSD>
0.33169

$$$$
P95695


 32 35  0  0  0  0  0  0  0  0999 V2000
    8.4294   14.2492   24.0921 C   0  0  0  0  0  0  0  0  0  0  0  0
    8.5631   14.8852   25.3748 O   0  0  0  0  0  0  0  0  0  0  0  0
    7.7692   14.7135   25.9051 H   0  0  0  0  0  0  0  0  0  0  0  0
    9.6402    9.3923   23.0425 C   0  0  0  0  0  0  0  0  0  0  0  0
    8.8554   10.4143   23.7918 C   0  0  0  0  0  0  0  0  0  0  0  0
    9.1106   11.7857   23.7370 C   0  0  0  0  0  0  0  0  0  0  0  0
    8.2827   12.7259   24.4042 C   0  0  0  0  0  0  0  0  0  0  0  0
    7.2100   12.2249   25.2324 C   0  0  0  0  0  0  0  0  0  0  0  0
    6.2912   12.9912   26.0036 C   0  0  0  0  0  0  0  0  0  0  0  0
    5.2706   12.4233   26.7715 C   0  0  0  0  0  0  0  0  0  0  0  0
    5.0936   11.0582   26.7648 C   0  0  0  0  0  0  0  0  0  0  0  0
    5.9336   10.2830   25.9862 C   0  0  0  0  0  0  0  0  0  0  0  0
    6.9932   10.8326   25.2666 C   0  0  0  0  0  0  0  0  0  0  0  0
    7.8030    9.9570   24.5617 C   0  0  0  0  0  0  0  0  0  0  0  0
    7.1251   14.7488   23.4408 C   0  0  0  0  0  0  0  0  0  0  0  0
    6.3593   14.0360   22.6229 N   0  0  0  0  0  0  0  0  0  0  0  0
    5.1889   14.7342   22.4673 C   0  0  0  0  0  0  0  0  0  0  0  0
    5.2742   15.9397   23.0975 C   0  0  0  0  0  0  0  0  0  0  0  0
    6.5130   15.9646   23.6743 N   0  0  0  0  0  0  0  0  0  0  0  0
    7.0189   17.1189   24.3665 C   0  0  0  0  0  0  0  0  0  0  0  0
    9.6481   14.5242   23.3041 N   0  0  0  0  0  0  0  0  0  0  0  0
   10.7241   15.1412   24.0749 C   0  0  0  0  0  0  0  0  0  0  0  0
   12.0488   15.0577   23.3367 C   0  0  0  0  0  0  0  0  0  0  0  0
   11.9392   15.7236   21.9752 C   0  0  0  0  0  0  0  0  0  0  0  0
   10.8885   14.9570   21.1810 C   0  0  0  0  0  0  0  0  0  0  0  0
    9.5386   14.9851   21.9102 C   0  0  0  0  0  0  0  0  0  0  0  0
   10.7953   15.5657   19.5024 S   0  0  0  0  0  0  0  0  0  0  0  0
    9.6875   14.5737   18.7510 N   0  0  0  0  0  0  0  0  0  0  0  0
   10.1877   16.8755   19.4883 O   0  0  0  0  0  0  0  0  0  0  0  0
   12.0412   15.2834   18.8308 O   0  0  0  0  0  0  0  0  0  0  0  0
    8.7680   14.7118   19.1704 H   0  0  0  0  0  0  0  0  0  0  0  0
    9.9704   13.6004   18.8649 H   0  0  0  0  0  0  0  0  0  0  0  0
  4  5  1  0  0  0
  5  6  2  0  0  0
  6  7  1  0  0  0
  7  1  1  0  0  0
  1  2  1  0  0  0
  1 15  1  0  0  0
 15 16  2  0  0  0
 16 17  1  0  0  0
 17 18  2  0  0  0
 18 19  1  0  0  0
 19 20  1  0  0  0
  1 21  1  0  0  0
 21 22  1  0  0  0
 22 23  1  0  0  0
 23 24  1  0  0  0
 24 25  1  0  0  0
 25 27  1  0  0  0
 27 28  1  0  0  0
 27 29  2  0  0  0
 27 30  2  0  0  0
 25 26  1  0  0  0
  7  8  2  0  0  0
  8  9  1  0  0  0
  9 10  2  0  0  0
 10 11  1  0  0  0
 11 12  2  0  0  0
 12 13  1  0  0  0
 13 14  2  0  0  0
 14  5  1  0  0  0
 19 15  1  0  0  0
 26 21  1  0  0  0
 13  8  1  0  0  0
  2  3  1  0  0  0
 28 31  1  0  0  0
 28 32  1  0  0  0
M  END
> <minimizedAffinity>
-10.01389

> <minimizedRMSD>
0.48620

$$$$
P95739


 23 25  0  0  0  0  0  0  0  0999 V2000
    7.8478   13.8627   24.6924 C   0  0  0  0  0  0  0  0  0  0  0  0
    9.2875   14.2652   24.8803 C   0  0  0  0  0  0  0  0  0  0  0  0
    9.9992   13.9779   25.8349 O   0  0  0  0  0  0  0  0  0  0  0  0
    9.6577   15.2625   23.7881 C   0  0  0  0  0  0  0  0  0  0  0  0
   11.0619   15.2006   23.2262 C   0  0  0  0  0  0  0  0  0  0  0  0
   11.1124   16.0355   21.9234 C   0  0  0  0  0  0  0  0  0  0  0  0
   12.5160   16.1088   21.3894 C   0  0  0  0  0  0  0  0  0  0  0  0
   10.1392   15.4184   20.8899 C   0  0  0  0  0  0  0  0  0  0  0  0
    8.7316   15.5167   21.4629 C   0  0  0  0  0  0  0  0  0  0  0  0
    8.6713   14.9093   22.7816 N   0  0  0  0  0  0  0  0  0  0  0  0
    7.6449   14.0929   23.2195 C   0  0  0  0  0  0  0  0  0  0  0  0
    6.7483   13.6325   22.5331 O   0  0  0  0  0  0  0  0  0  0  0  0
    7.7990   11.2709   24.7409 C   0  0  0  0  0  0  0  0  0  0  0  0
    7.0951   10.1254   25.1400 C   0  0  0  0  0  0  0  0  0  0  0  0
    5.9817   10.2070   25.9812 C   0  0  0  0  0  0  0  0  0  0  0  0
    5.5584   11.4354   26.4598 C   0  0  0  0  0  0  0  0  0  0  0  0
    6.2293   12.5847   26.0656 C   0  0  0  0  0  0  0  0  0  0  0  0
    7.3390   12.5287   25.1905 C   0  0  0  0  0  0  0  0  0  0  0  0
    9.5049    9.4155   23.3910 C   0  0  0  0  0  0  0  0  0  0  0  0
    9.2367   11.1791   23.6758 S   0  0  0  0  0  0  0  0  0  0  0  0
   10.1869   16.0093   19.4813 C   0  0  0  0  0  0  0  0  0  0  0  0
   10.2306   17.3622   19.5438 F   0  0  0  0  0  0  0  0  0  0  0  0
   11.3007   15.6024   18.8228 F   0  0  0  0  0  0  0  0  0  0  0  0
 19 20  1  0  0  0
 20 13  1  0  0  0
 13 14  2  0  0  0
 14 15  1  0  0  0
 15 16  2  0  0  0
 16 17  1  0  0  0
 17 18  2  0  0  0
  1 18  1  0  0  0
  1  2  1  0  0  0
  2  3  2  0  0  0
  2  4  1  0  0  0
  4  5  1  0  0  0
  5  6  1  0  0  0
  6  7  1  0  0  0
  6  8  1  0  0  0
  8 21  1  0  0  0
 21 22  1  0  0  0
 21 23  1  0  0  0
  8  9  1  0  0  0
  9 10  1  0  0  0
 10 11  1  0  0  0
 11 12  2  0  0  0
 18 13  1  0  0  0
 11  1  1  0  0  0
 10  4  1  0  0  0
M  END
> <minimizedAffinity>
-8.69315

> <minimizedRMSD>
0.30373

$$$$
P95751


 27 28  0  0  0  0  0  0  0  0999 V2000
    8.1963   14.1630   23.4438 C   0  0  0  0  0  0  0  0  0  0  0  0
    7.3916   13.4163   22.5415 O   0  0  0  0  0  0  0  0  0  0  0  0
    7.4645   15.3302   23.7418 O   0  0  0  0  0  0  0  0  0  0  0  0
    7.6961   12.5933   22.2131 H   0  0  0  0  0  0  0  0  0  0  0  0
    7.8199   15.9693   24.3277 H   0  0  0  0  0  0  0  0  0  0  0  0
    9.4588   14.5234   22.8149 N   0  0  0  0  0  0  0  0  0  0  0  0
   10.2859   15.4681   23.5554 C   0  0  0  0  0  0  0  0  0  0  0  0
   11.7300   15.2424   23.1127 C   0  0  0  0  0  0  0  0  0  0  0  0
   11.8836   15.1427   21.5972 C   0  0  0  0  0  0  0  0  0  0  0  0
   10.6380   15.6279   20.8636 C   0  0  0  0  0  0  0  0  0  0  0  0
    9.3581   14.9324   21.3985 C   0  0  0  0  0  0  0  0  0  0  0  0
   10.7725   15.4561   19.3544 C   0  0  0  0  0  0  0  0  0  0  0  0
   10.5111   16.6467   18.7532 F   0  0  0  0  0  0  0  0  0  0  0  0
   12.0512   15.1409   19.0263 F   0  0  0  0  0  0  0  0  0  0  0  0
    8.4703   13.3677   24.7661 C   0  0  0  0  0  0  0  0  0  0  0  0
    7.8706   10.8771   24.6546 C   0  0  0  0  0  0  0  0  0  0  0  0
    7.0096    9.8486   25.0369 C   0  0  0  0  0  0  0  0  0  0  0  0
    5.8842   10.0943   25.8318 C   0  0  0  0  0  0  0  0  0  0  0  0
    5.5704   11.3903   26.2477 C   0  0  0  0  0  0  0  0  0  0  0  0
    6.4125   12.4355   25.8537 C   0  0  0  0  0  0  0  0  0  0  0  0
    7.5632   12.1917   25.0790 C   0  0  0  0  0  0  0  0  0  0  0  0
    4.4038   11.6590   27.1684 C   0  0  0  0  0  0  0  0  0  0  0  0
    3.5111   12.5458   26.6493 F   0  0  0  0  0  0  0  0  0  0  0  0
    4.8134   12.1880   28.3551 F   0  0  0  0  0  0  0  0  0  0  0  0
    3.6822   10.5472   27.4828 F   0  0  0  0  0  0  0  0  0  0  0  0
    9.3965    8.7993   23.3989 C   0  0  0  0  0  0  0  0  0  0  0  0
    9.3549   10.5799   23.6893 S   0  0  0  0  0  0  0  0  0  0  0  0
 26 27  1  0  0  0
 27 16  1  0  0  0
 16 17  2  0  0  0
 17 18  1  0  0  0
 18 19  2  0  0  0
 19 22  1  0  0  0
 22 23  1  0  0  0
 22 24  1  0  0  0
 22 25  1  0  0  0
 19 20  1  0  0  0
 20 21  2  0  0  0
 21 15  1  0  0  0
 15  1  1  0  0  0
  1  2  1  0  0  0
  1  3  1  0  0  0
  1  6  1  0  0  0
  6  7  1  0  0  0
  7  8  1  0  0  0
  8  9  1  0  0  0
  9 10  1  0  0  0
 10 12  1  0  0  0
 12 13  1  0  0  0
 12 14  1  0  0  0
 10 11  1  0  0  0
 21 16  1  0  0  0
 11  6  1  0  0  0
  2  4  1  0  0  0
  3  5  1  0  0  0
M  END
> <minimizedAffinity>
-8.00444

> <minimizedRMSD>
0.35445

$$$$
P95945


 41 45  0  0  0  0  0  0  0  0999 V2000
    7.6450   11.3785   25.1811 C   0  0  0  0  0  0  0  0  0  0  0  0
    6.8033   10.4109   25.7555 C   0  0  0  0  0  0  0  0  0  0  0  0
    5.8765   10.7542   26.7523 C   0  0  0  0  0  0  0  0  0  0  0  0
    5.0019    9.7508   27.4438 C   0  0  0  0  0  0  0  0  0  0  0  0
    5.7861   12.0759   27.1683 C   0  0  0  0  0  0  0  0  0  0  0  0
    6.5925   13.0803   26.6232 C   0  0  0  0  0  0  0  0  0  0  0  0
    7.5348   12.7389   25.6194 C   0  0  0  0  0  0  0  0  0  0  0  0
    8.4883   13.7987   25.0824 C   0  0  0  0  0  0  0  0  0  0  0  0
    8.1476   14.5200   23.7260 C   0  0  0  0  0  0  0  0  0  0  0  0
    7.6069   13.5796   22.8236 O   0  0  0  0  0  0  0  0  0  0  0  0
    7.2512   15.6329   23.9977 N   0  0  0  0  0  0  0  0  0  0  0  0
    5.9231   15.5957   23.3213 C   0  0  0  0  0  0  0  0  0  0  0  0
    4.7963   15.1599   24.3019 C   0  0  0  0  0  0  0  0  0  0  0  0
    5.0778   15.8161   25.5902 N   0  0  0  0  0  0  0  0  0  0  0  0
    4.9928   15.0050   26.7014 C   0  0  0  0  0  0  0  0  0  0  0  0
    3.9276   14.6663   27.2110 O   0  0  0  0  0  0  0  0  0  0  0  0
    6.3405   14.4750   27.1722 C   0  0  0  0  0  0  0  0  0  0  0  0
    8.2459   12.8638   22.6812 H   0  0  0  0  0  0  0  0  0  0  0  0
    7.7232   16.4893   23.7076 H   0  0  0  0  0  0  0  0  0  0  0  0
    5.3111   16.7705   25.6534 H   0  0  0  0  0  0  0  0  0  0  0  0
    3.3969   15.4518   23.7722 C   0  0  0  0  0  0  0  0  0  0  0  0
    3.0236   14.9877   22.5022 C   0  0  0  0  0  0  0  0  0  0  0  0
    1.7396   15.2136   21.9973 C   0  0  0  0  0  0  0  0  0  0  0  0
    0.7847   15.9080   22.7520 C   0  0  0  0  0  0  0  0  0  0  0  0
   -0.5103   16.1447   22.2620 C   0  0  0  0  0  0  0  0  0  0  0  0
   -1.4488   16.8352   23.0308 C   0  0  0  0  0  0  0  0  0  0  0  0
   -1.1054   17.2945   24.2988 C   0  0  0  0  0  0  0  0  0  0  0  0
    0.1764   17.0628   24.8000 C   0  0  0  0  0  0  0  0  0  0  0  0
    1.1330   16.3722   24.0381 C   0  0  0  0  0  0  0  0  0  0  0  0
    2.4293   16.1339   24.5302 C   0  0  0  0  0  0  0  0  0  0  0  0
    9.3414   15.0730   23.1244 N   0  0  0  0  0  0  0  0  0  0  0  0
   10.4871   15.5114   23.8924 C   0  0  0  0  0  0  0  0  0  0  0  0
   11.7260   14.8069   23.3456 C   0  0  0  0  0  0  0  0  0  0  0  0
   11.8057   14.8478   21.8183 C   0  0  0  0  0  0  0  0  0  0  0  0
   10.7815   15.7840   21.1985 C   0  0  0  0  0  0  0  0  0  0  0  0
    9.3644   15.4897   21.7234 C   0  0  0  0  0  0  0  0  0  0  0  0
    8.4899   17.0424   21.6221 Cl  0  0  0  0  0  0  0  0  0  0  0  0
   10.8388   15.7469   19.6759 C   0  0  0  0  0  0  0  0  0  0  0  0
    9.7113   15.1914   19.1812 F   0  0  0  0  0  0  0  0  0  0  0  0
    8.8735    9.1533   23.7603 C   0  0  0  0  0  0  0  0  0  0  0  0
    8.8984   10.9563   23.9352 S   0  0  0  0  0  0  0  0  0  0  0  0
 40 41  1  0  0  0
 41  1  1  0  0  0
  1  2  2  0  0  0
  2  3  1  0  0  0
  3  4  1  0  0  0
  3  5  2  0  0  0
  5  6  1  0  0  0
  6  7  2  0  0  0
  7  8  1  0  0  0
  8  9  1  0  0  0
  9 10  1  0  0  0
  9 31  1  0  0  0
 31 32  1  0  0  0
 32 33  1  0  0  0
 33 34  1  0  0  0
 34 35  1  0  0  0
 35 38  1  0  0  0
 38 39  1  0  0  0
 35 36  1  0  0  0
 36 37  1  0  0  0
  9 11  1  0  0  0
 11 12  1  0  0  0
 12 13  1  0  0  0
 13 21  1  0  0  0
 21 22  2  0  0  0
 22 23  1  0  0  0
 23 24  2  0  0  0
 24 25  1  0  0  0
 25 26  2  0  0  0
 26 27  1  0  0  0
 27 28  2  0  0  0
 28 29  1  0  0  0
 29 30  2  0  0  0
 13 14  1  0  0  0
 14 15  1  0  0  0
 15 16  2  0  0  0
 15 17  1  0  0  0
  7  1  1  0  0  0
 36 31  1  0  0  0
 30 21  1  0  0  0
 17  6  1  0  0  0
 29 24  1  0  0  0
 10 18  1  0  0  0
 11 19  1  0  0  0
 14 20  1  0  0  0
M  END
> <minimizedAffinity>
-9.78064

> <minimizedRMSD>
0.38623

$$$$
P95947


 23 25  0  0  0  0  0  0  0  0999 V2000
    9.3016    9.8749   23.7555 C   0  0  0  0  0  0  0  0  0  0  0  0
    8.8242   11.2408   24.0734 N   0  0  0  0  0  0  0  0  0  0  0  0
    8.3914   11.9787   22.9536 N   0  0  0  0  0  0  0  0  0  0  0  0
    9.1653   13.1912   22.8084 C   0  0  0  0  0  0  0  0  0  0  0  0
    8.6542   14.3590   23.6595 C   0  0  0  0  0  0  0  0  0  0  0  0
    7.3134   14.6804   23.2570 O   0  0  0  0  0  0  0  0  0  0  0  0
    8.5469   13.9251   25.1615 C   0  0  0  0  0  0  0  0  0  0  0  0
    7.6134   12.7558   25.5377 C   0  0  0  0  0  0  0  0  0  0  0  0
    6.5066   12.9968   26.3661 C   0  0  0  0  0  0  0  0  0  0  0  0
    5.6876   11.9481   26.7844 C   0  0  0  0  0  0  0  0  0  0  0  0
    5.9748   10.6424   26.3997 C   0  0  0  0  0  0  0  0  0  0  0  0
    7.0647   10.3818   25.5690 C   0  0  0  0  0  0  0  0  0  0  0  0
    7.8793   11.4236   25.1062 C   0  0  0  0  0  0  0  0  0  0  0  0
    7.4080   12.2218   23.0729 H   0  0  0  0  0  0  0  0  0  0  0  0
    7.3127   14.9589   22.3278 H   0  0  0  0  0  0  0  0  0  0  0  0
    9.4553   15.5780   23.3915 N   0  0  0  0  0  0  0  0  0  0  0  0
   10.8268   15.6030   23.9111 C   0  0  0  0  0  0  0  0  0  0  0  0
   11.9371   15.1256   22.9739 C   0  0  0  0  0  0  0  0  0  0  0  0
   11.8587   15.8322   21.6288 C   0  0  0  0  0  0  0  0  0  0  0  0
   10.4900   15.5673   21.0206 C   0  0  0  0  0  0  0  0  0  0  0  0
    9.3972   16.0849   21.9858 C   0  0  0  0  0  0  0  0  0  0  0  0
   10.3705   16.1580   19.6200 C   0  0  0  0  0  0  0  0  0  0  0  0
   11.3123   15.5963   18.8141 F   0  0  0  0  0  0  0  0  0  0  0  0
  1  2  1  0  0  0
  2  3  1  0  0  0
  3  4  1  0  0  0
  4  5  1  0  0  0
  5  6  1  0  0  0
  5 16  1  0  0  0
 16 17  1  0  0  0
 17 18  1  0  0  0
 18 19  1  0  0  0
 19 20  1  0  0  0
 20 22  1  0  0  0
 22 23  1  0  0  0
 20 21  1  0  0  0
  5  7  1  0  0  0
  7  8  1  0  0  0
  8  9  2  0  0  0
  9 10  1  0  0  0
 10 11  2  0  0  0
 11 12  1  0  0  0
 12 13  2  0  0  0
 13  2  1  0  0  0
 21 16  1  0  0  0
 13  8  1  0  0  0
  3 14  1  0  0  0
  6 15  1  0  0  0
M  END
> <minimizedAffinity>
-8.03217

> <minimizedRMSD>
0.28418

$$$$
P96039


 23 24  0  0  0  0  0  0  0  0999 V2000
    8.9784   13.7530   23.1664 C   0  0  0  0  0  0  0  0  0  0  0  0
    9.5534   15.0877   22.8913 N   0  0  0  0  0  0  0  0  0  0  0  0
   10.9064   15.3149   23.3972 C   0  0  0  0  0  0  0  0  0  0  0  0
   11.9970   14.6149   22.6019 C   0  0  0  0  0  0  0  0  0  0  0  0
   11.9388   15.0433   21.1416 C   0  0  0  0  0  0  0  0  0  0  0  0
   10.5348   14.7883   20.5766 C   0  0  0  0  0  0  0  0  0  0  0  0
    9.4761   15.4749   21.4569 C   0  0  0  0  0  0  0  0  0  0  0  0
   10.4418   15.1545   19.0922 C   0  0  0  0  0  0  0  0  0  0  0  0
   10.0317   16.5072   18.8576 N   0  0  0  0  0  0  0  0  0  0  0  0
   11.6727   15.0319   18.5258 F   0  0  0  0  0  0  0  0  0  0  0  0
   10.7223   17.1453   19.2531 H   0  0  0  0  0  0  0  0  0  0  0  0
    9.1267   16.6696   19.2991 H   0  0  0  0  0  0  0  0  0  0  0  0
    7.5415   13.6191   22.7120 N   0  0  0  0  0  0  0  0  0  0  0  0
    6.8035   14.4985   23.1731 O   0  0  0  0  0  0  0  0  0  0  0  0
    9.0868   13.2988   24.6558 C   0  0  0  0  0  0  0  0  0  0  0  0
    8.1893   10.8764   24.6481 C   0  0  0  0  0  0  0  0  0  0  0  0
    7.2170    9.9740   25.0882 C   0  0  0  0  0  0  0  0  0  0  0  0
    6.1856   10.3582   25.9477 C   0  0  0  0  0  0  0  0  0  0  0  0
    6.1125   11.6676   26.3923 C   0  0  0  0  0  0  0  0  0  0  0  0
    7.0707   12.5853   25.9744 C   0  0  0  0  0  0  0  0  0  0  0  0
    8.1116   12.2104   25.0979 C   0  0  0  0  0  0  0  0  0  0  0  0
    9.3030    8.6032   23.3250 C   0  0  0  0  0  0  0  0  0  0  0  0
    9.5180   10.3816   23.5584 S   0  0  0  0  0  0  0  0  0  0  0  0
 22 23  1  0  0  0
 23 16  1  0  0  0
 16 17  2  0  0  0
 17 18  1  0  0  0
 18 19  2  0  0  0
 19 20  1  0  0  0
 20 21  2  0  0  0
 21 15  1  0  0  0
  1 15  1  0  0  0
  1 13  1  0  0  0
 13 14  2  0  0  0
  1  2  1  0  0  0
  2  3  1  0  0  0
  3  4  1  0  0  0
  4  5  1  0  0  0
  6  5  1  0  0  0
  6  8  1  0  0  0
  8  9  1  0  0  0
  8 10  1  0  0  0
  6  7  1  0  0  0
 21 16  1  0  0  0
  7  2  1  0  0  0
  9 11  1  0  0  0
  9 12  1  0  0  0
M  END
> <minimizedAffinity>
-7.17146

> <minimizedRMSD>
0.41699

$$$$
P96060


 30 32  0  0  0  0  0  0  0  0999 V2000
    9.1694   14.0853   24.3964 C   0  0  0  0  0  0  0  0  0  0  0  0
   10.0946   13.1897   25.0047 O   0  0  0  0  0  0  0  0  0  0  0  0
    9.6585   12.7194   25.7324 H   0  0  0  0  0  0  0  0  0  0  0  0
    9.8255   14.7988   23.2947 N   0  0  0  0  0  0  0  0  0  0  0  0
    9.1629   15.1589   22.0230 C   0  0  0  0  0  0  0  0  0  0  0  0
   10.0548   14.8559   20.8104 C   0  0  0  0  0  0  0  0  0  0  0  0
   11.4434   15.4362   21.0335 C   0  0  0  0  0  0  0  0  0  0  0  0
   12.0269   14.8421   22.2853 C   0  0  0  0  0  0  0  0  0  0  0  0
   11.1455   15.1171   23.4714 C   0  0  0  0  0  0  0  0  0  0  0  0
   11.5846   15.4310   24.5721 O   0  0  0  0  0  0  0  0  0  0  0  0
    9.4972   15.2560   19.4405 C   0  0  0  0  0  0  0  0  0  0  0  0
   10.1572   16.3435   18.7630 N   0  0  0  0  0  0  0  0  0  0  0  0
    9.6120   14.1824   18.6114 F   0  0  0  0  0  0  0  0  0  0  0  0
   11.1178   16.0768   18.5474 H   0  0  0  0  0  0  0  0  0  0  0  0
   10.1598   17.1673   19.3644 H   0  0  0  0  0  0  0  0  0  0  0  0
    8.7829   14.9473   25.5426 C   0  0  0  0  0  0  0  0  0  0  0  0
    9.3644   14.8786   26.7383 N   0  0  0  0  0  0  0  0  0  0  0  0
    8.7167   15.7651   27.5293 C   0  0  0  0  0  0  0  0  0  0  0  0
    7.6787   16.3265   26.8374 C   0  0  0  0  0  0  0  0  0  0  0  0
    7.7014   15.7840   25.5822 N   0  0  0  0  0  0  0  0  0  0  0  0
    6.7733   15.9615   24.4990 C   0  0  0  0  0  0  0  0  0  0  0  0
    8.2174   13.0698   23.8296 C   0  0  0  0  0  0  0  0  0  0  0  0
    7.7946   10.7434   24.5591 C   0  0  0  0  0  0  0  0  0  0  0  0
    6.9907    9.8001   25.1736 C   0  0  0  0  0  0  0  0  0  0  0  0
    5.8596   10.1437   25.9151 C   0  0  0  0  0  0  0  0  0  0  0  0
    5.5660   11.4748   26.1239 C   0  0  0  0  0  0  0  0  0  0  0  0
    6.3728   12.4421   25.5372 C   0  0  0  0  0  0  0  0  0  0  0  0
    7.4425   12.0921   24.6906 C   0  0  0  0  0  0  0  0  0  0  0  0
    9.2264    8.5716   23.3839 C   0  0  0  0  0  0  0  0  0  0  0  0
    9.2364   10.3367   23.5831 S   0  0  0  0  0  0  0  0  0  0  0  0
 29 30  1  0  0  0
 30 23  1  0  0  0
 23 24  2  0  0  0
 24 25  1  0  0  0
 25 26  2  0  0  0
 26 27  1  0  0  0
 27 28  2  0  0  0
 28 22  1  0  0  0
 22  1  1  0  0  0
  1  2  1  0  0  0
  1 16  1  0  0  0
 16 17  2  0  0  0
 17 18  1  0  0  0
 18 19  2  0  0  0
 19 20  1  0  0  0
 20 21  1  0  0  0
  1  4  1  0  0  0
  4  5  1  0  0  0
  6  5  1  0  0  0
  6 11  1  0  0  0
 11 12  1  0  0  0
 11 13  1  0  0  0
  6  7  1  0  0  0
  7  8  1  0  0  0
  8  9  1  0  0  0
  9 10  2  0  0  0
 28 23  1  0  0  0
 20 16  1  0  0  0
  9  4  1  0  0  0
  2  3  1  0  0  0
 12 14  1  0  0  0
 12 15  1  0  0  0
M  END
> <minimizedAffinity>
-7.59902

> <minimizedRMSD>
1.07971

$$$$
P96064


 26 27  0  0  0  0  0  0  0  0999 V2000
    8.7582   13.8058   22.9819 C   0  0  0  0  0  0  0  0  0  0  0  0
    7.3862   13.9467   22.6483 O   0  0  0  0  0  0  0  0  0  0  0  0
    9.3400   12.8282   22.1744 O   0  0  0  0  0  0  0  0  0  0  0  0
    6.8544   14.5684   23.1052 H   0  0  0  0  0  0  0  0  0  0  0  0
   10.2476   12.6178   22.2739 H   0  0  0  0  0  0  0  0  0  0  0  0
    9.4159   15.0749   22.7259 N   0  0  0  0  0  0  0  0  0  0  0  0
   10.7079   15.2554   23.3823 C   0  0  0  0  0  0  0  0  0  0  0  0
   11.8731   14.5978   22.6703 C   0  0  0  0  0  0  0  0  0  0  0  0
   11.9683   15.0299   21.2157 C   0  0  0  0  0  0  0  0  0  0  0  0
   10.7930   15.8745   20.7196 C   0  0  0  0  0  0  0  0  0  0  0  0
    9.4411   15.4277   21.2865 C   0  0  0  0  0  0  0  0  0  0  0  0
   10.8265   15.8905   19.1838 C   0  0  0  0  0  0  0  0  0  0  0  0
    9.5798   15.5357   18.5621 N   0  0  0  0  0  0  0  0  0  0  0  0
   11.7064   14.9770   18.7163 F   0  0  0  0  0  0  0  0  0  0  0  0
    9.3448   14.5715   18.7975 H   0  0  0  0  0  0  0  0  0  0  0  0
    9.6666   15.6270   17.5499 H   0  0  0  0  0  0  0  0  0  0  0  0
    8.8332   13.3189   24.4609 C   0  0  0  0  0  0  0  0  0  0  0  0
    8.0692   10.8357   24.5776 C   0  0  0  0  0  0  0  0  0  0  0  0
    7.1333    9.9020   25.0406 C   0  0  0  0  0  0  0  0  0  0  0  0
    6.0225   10.2823   25.7934 C   0  0  0  0  0  0  0  0  0  0  0  0
    5.8306   11.6236   26.0850 C   0  0  0  0  0  0  0  0  0  0  0  0
    4.3646   12.1645   27.1495 Br  0  0  0  0  0  0  0  0  0  0  0  0
    6.7336   12.5785   25.6226 C   0  0  0  0  0  0  0  0  0  0  0  0
    7.8689   12.2035   24.8720 C   0  0  0  0  0  0  0  0  0  0  0  0
    9.2219    8.5469   23.3352 C   0  0  0  0  0  0  0  0  0  0  0  0
    9.5614   10.2546   23.7889 S   0  0  0  0  0  0  0  0  0  0  0  0
 25 26  1  0  0  0
 26 18  1  0  0  0
 18 19  2  0  0  0
 19 20  1  0  0  0
 20 21  2  0  0  0
 21 22  1  0  0  0
 21 23  1  0  0  0
 23 24  2  0  0  0
 24 17  1  0  0  0
 17  1  1  0  0  0
  1  2  1  0  0  0
  1  3  1  0  0  0
  1  6  1  0  0  0
  6  7  1  0  0  0
  7  8  1  0  0  0
  8  9  1  0  0  0
 10  9  1  0  0  0
 10 12  1  0  0  0
 12 13  1  0  0  0
 12 14  1  0  0  0
 10 11  1  0  0  0
 24 18  1  0  0  0
 11  6  1  0  0  0
  2  4  1  0  0  0
  3  5  1  0  0  0
 13 15  1  0  0  0
 13 16  1  0  0  0
M  END
> <minimizedAffinity>
-7.55683

> <minimizedRMSD>
0.44220

$$$$
P96076


 27 28  0  0  0  0  0  0  0  0999 V2000
    8.3428   14.3117   23.4700 C   0  0  0  0  0  0  0  0  0  0  0  0
    9.5921   14.5143   22.7125 N   0  0  0  0  0  0  0  0  0  0  0  0
    9.4677   15.0487   21.3456 C   0  0  0  0  0  0  0  0  0  0  0  0
   10.7273   14.7750   20.5445 C   0  0  0  0  0  0  0  0  0  0  0  0
   11.9108   15.4178   21.2495 C   0  0  0  0  0  0  0  0  0  0  0  0
   12.0305   14.7932   22.6215 C   0  0  0  0  0  0  0  0  0  0  0  0
   10.7440   14.9066   23.4131 C   0  0  0  0  0  0  0  0  0  0  0  0
   10.7808   15.2040   24.6077 O   0  0  0  0  0  0  0  0  0  0  0  0
   10.6162   15.1017   19.0639 C   0  0  0  0  0  0  0  0  0  0  0  0
   10.1286   16.4175   18.7431 N   0  0  0  0  0  0  0  0  0  0  0  0
   11.8597   15.0168   18.5241 F   0  0  0  0  0  0  0  0  0  0  0  0
   10.7812   17.1174   19.0963 H   0  0  0  0  0  0  0  0  0  0  0  0
    9.2149   16.5560   19.1747 H   0  0  0  0  0  0  0  0  0  0  0  0
    6.1395   13.7129   22.8334 C   0  0  0  0  0  0  0  0  0  0  0  0
    7.2713   13.9662   22.5197 N   0  0  0  0  0  0  0  0  0  0  0  0
    4.6192   13.9003   20.5717 C   0  0  0  0  0  0  0  0  0  0  0  0
    4.8254   13.6446   21.9609 N   0  0  0  0  0  0  0  0  0  0  0  0
    4.0157   13.3829   22.4560 H   0  0  0  0  0  0  0  0  0  0  0  0
    8.5673   13.4183   24.7399 C   0  0  0  0  0  0  0  0  0  0  0  0
    7.6893   12.2527   25.1370 C   0  0  0  0  0  0  0  0  0  0  0  0
    6.6453   12.5058   26.0548 C   0  0  0  0  0  0  0  0  0  0  0  0
    5.8074   11.4868   26.4903 C   0  0  0  0  0  0  0  0  0  0  0  0
    6.0197   10.1958   26.0369 C   0  0  0  0  0  0  0  0  0  0  0  0
    7.0772    9.9273   25.1635 C   0  0  0  0  0  0  0  0  0  0  0  0
    7.9268   10.9341   24.6982 C   0  0  0  0  0  0  0  0  0  0  0  0
    9.3243   10.5835   23.6343 S   0  0  0  0  0  0  0  0  0  0  0  0
    9.2704    8.7941   23.3525 C   0  0  0  0  0  0  0  0  0  0  0  0
 16 17  1  0  0  0
 17 14  1  0  0  0
 14 15  2  0  0  0
 15  1  1  0  0  0
  1 19  1  0  0  0
 19 20  1  0  0  0
 20 21  2  0  0  0
 21 22  1  0  0  0
 22 23  2  0  0  0
 23 24  1  0  0  0
 24 25  2  0  0  0
 25 26  1  0  0  0
 26 27  1  0  0  0
  1  2  1  0  0  0
  2  3  1  0  0  0
  4  3  1  0  0  0
  4  9  1  0  0  0
  9 10  1  0  0  0
  9 11  1  0  0  0
  4  5  1  0  0  0
  5  6  1  0  0  0
  6  7  1  0  0  0
  7  8  2  0  0  0
 25 20  1  0  0  0
  7  2  1  0  0  0
 17 18  1  0  0  0
 10 12  1  0  0  0
 10 13  1  0  0  0
M  END
> <minimizedAffinity>
-5.90409

> <minimizedRMSD>
0.22995

$$$$
P96258


 30 33  0  0  0  0  0  0  0  0999 V2000
    7.8349   13.8365   23.6067 C   0  0  0  0  0  0  0  0  0  0  0  0
    7.4255   12.7921   22.7490 O   0  0  0  0  0  0  0  0  0  0  0  0
    6.6879   12.3105   23.1553 H   0  0  0  0  0  0  0  0  0  0  0  0
    6.6177   14.5776   23.9293 N   0  0  0  0  0  0  0  0  0  0  0  0
    6.5563   15.5457   25.0164 C   0  0  0  0  0  0  0  0  0  0  0  0
    5.1855   15.5238   25.6896 C   0  0  0  0  0  0  0  0  0  0  0  0
    4.0614   15.4168   24.7046 C   0  0  0  0  0  0  0  0  0  0  0  0
    2.8173   15.5009   25.2420 N   0  0  0  0  0  0  0  0  0  0  0  0
    1.7808   15.4326   24.3944 C   0  0  0  0  0  0  0  0  0  0  0  0
    1.9146   15.2881   23.0261 C   0  0  0  0  0  0  0  0  0  0  0  0
    3.2009   15.2000   22.5046 C   0  0  0  0  0  0  0  0  0  0  0  0
    3.3697   15.1507   21.1494 O   0  0  0  0  0  0  0  0  0  0  0  0
    4.3133   15.2217   23.3426 C   0  0  0  0  0  0  0  0  0  0  0  0
    5.7375   15.0388   22.8428 C   0  0  0  0  0  0  0  0  0  0  0  0
    2.6224   15.1360   20.5844 H   0  0  0  0  0  0  0  0  0  0  0  0
    8.9499   14.6002   23.0423 N   0  0  0  0  0  0  0  0  0  0  0  0
   10.2547   13.8952   23.1148 C   0  0  0  0  0  0  0  0  0  0  0  0
   10.6015   14.3708   21.7052 C   0  0  0  0  0  0  0  0  0  0  0  0
   11.5712   15.4423   21.6096 O   0  0  0  0  0  0  0  0  0  0  0  0
    9.0736   14.6547   21.5742 C   0  0  0  0  0  0  0  0  0  0  0  0
   11.3270   16.1548   22.2209 H   0  0  0  0  0  0  0  0  0  0  0  0
    8.4260   13.1985   24.9301 C   0  0  0  0  0  0  0  0  0  0  0  0
    7.9929   10.6820   25.0925 C   0  0  0  0  0  0  0  0  0  0  0  0
    7.2651    9.6584   25.6851 C   0  0  0  0  0  0  0  0  0  0  0  0
    6.2501    9.9184   26.6127 C   0  0  0  0  0  0  0  0  0  0  0  0
    5.9708   11.2112   27.0077 C   0  0  0  0  0  0  0  0  0  0  0  0
    6.6983   12.2456   26.4531 C   0  0  0  0  0  0  0  0  0  0  0  0
    7.6883   12.0021   25.4854 C   0  0  0  0  0  0  0  0  0  0  0  0
    9.1785    8.6106   23.4885 C   0  0  0  0  0  0  0  0  0  0  0  0
    9.3234   10.3552   23.9354 S   0  0  0  0  0  0  0  0  0  0  0  0
 29 30  1  0  0  0
 30 23  1  0  0  0
 23 24  2  0  0  0
 24 25  1  0  0  0
 25 26  2  0  0  0
 26 27  1  0  0  0
 27 28  2  0  0  0
 28 22  1  0  0  0
 22  1  1  0  0  0
  1  2  1  0  0  0
  1  4  1  0  0  0
  4  5  1  0  0  0
  5  6  1  0  0  0
  6  7  1  0  0  0
  7  8  2  0  0  0
  8  9  1  0  0  0
  9 10  2  0  0  0
 10 11  1  0  0  0
 11 12  1  0  0  0
 11 13  2  0  0  0
 13 14  1  0  0  0
  1 16  1  0  0  0
 16 17  1  0  0  0
 17 18  1  0  0  0
 18 19  1  0  0  0
 18 20  1  0  0  0
 28 23  1  0  0  0
 14  4  1  0  0  0
 20 16  1  0  0  0
 13  7  1  0  0  0
  2  3  1  0  0  0
 12 15  1  0  0  0
 19 21  1  0  0  0
M  END
> <minimizedAffinity>
-7.41143

> <minimizedRMSD>
0.26351

$$$$
P96259


 27 29  0  0  0  0  0  0  0  0999 V2000
    7.5643   13.9945   23.4831 C   0  0  0  0  0  0  0  0  0  0  0  0
    7.4181   12.9181   22.6057 O   0  0  0  0  0  0  0  0  0  0  0  0
    8.3797   14.8596   22.7431 O   0  0  0  0  0  0  0  0  0  0  0  0
    6.9040   12.1759   22.8564 H   0  0  0  0  0  0  0  0  0  0  0  0
    8.6403   15.6830   23.1064 H   0  0  0  0  0  0  0  0  0  0  0  0
    6.2496   14.6146   23.6991 N   0  0  0  0  0  0  0  0  0  0  0  0
    6.0445   15.5639   24.7834 C   0  0  0  0  0  0  0  0  0  0  0  0
    4.6811   15.4002   25.4372 C   0  0  0  0  0  0  0  0  0  0  0  0
    3.6099   15.3904   24.3981 C   0  0  0  0  0  0  0  0  0  0  0  0
    2.3492   15.6398   24.8407 N   0  0  0  0  0  0  0  0  0  0  0  0
    1.3693   15.6486   23.9171 C   0  0  0  0  0  0  0  0  0  0  0  0
    1.5830   15.4368   22.5668 C   0  0  0  0  0  0  0  0  0  0  0  0
    2.8792   15.1754   22.1454 C   0  0  0  0  0  0  0  0  0  0  0  0
    3.0730   15.0439   20.7967 O   0  0  0  0  0  0  0  0  0  0  0  0
    3.9184   15.1151   23.0709 C   0  0  0  0  0  0  0  0  0  0  0  0
    5.2857   14.6809   22.6887 C   0  0  0  0  0  0  0  0  0  0  0  0
    5.4741   14.3002   21.5311 O   0  0  0  0  0  0  0  0  0  0  0  0
    2.3427   15.0915   20.2116 H   0  0  0  0  0  0  0  0  0  0  0  0
    8.3101   13.5452   24.7670 C   0  0  0  0  0  0  0  0  0  0  0  0
    8.0304   11.0080   25.1082 C   0  0  0  0  0  0  0  0  0  0  0  0
    7.3407    9.9662   25.7356 C   0  0  0  0  0  0  0  0  0  0  0  0
    6.3395   10.2135   26.6766 C   0  0  0  0  0  0  0  0  0  0  0  0
    6.0415   11.5116   27.0470 C   0  0  0  0  0  0  0  0  0  0  0  0
    6.7284   12.5599   26.4489 C   0  0  0  0  0  0  0  0  0  0  0  0
    7.6938   12.3352   25.4486 C   0  0  0  0  0  0  0  0  0  0  0  0
    9.2216    8.9427   23.5246 C   0  0  0  0  0  0  0  0  0  0  0  0
    9.3750   10.6914   23.9758 S   0  0  0  0  0  0  0  0  0  0  0  0
 26 27  1  0  0  0
 27 20  1  0  0  0
 20 21  2  0  0  0
 21 22  1  0  0  0
 22 23  2  0  0  0
 23 24  1  0  0  0
 24 25  2  0  0  0
 25 19  1  0  0  0
 19  1  1  0  0  0
  1  2  1  0  0  0
  1  3  1  0  0  0
  1  6  1  0  0  0
  6  7  1  0  0  0
  7  8  1  0  0  0
  8  9  1  0  0  0
  9 10  2  0  0  0
 10 11  1  0  0  0
 11 12  2  0  0  0
 12 13  1  0  0  0
 13 14  1  0  0  0
 13 15  2  0  0  0
 15 16  1  0  0  0
 16 17  2  0  0  0
 25 20  1  0  0  0
 16  6  1  0  0  0
 15  9  1  0  0  0
  2  4  1  0  0  0
  3  5  1  0  0  0
 14 18  1  0  0  0
M  END
> <minimizedAffinity>
-6.19336

> <minimizedRMSD>
0.36310

$$$$
P96265


 36 39  0  0  0  0  0  0  0  0999 V2000
    7.9129   13.7778   23.5552 C   0  0  0  0  0  0  0  0  0  0  0  0
    7.5934   12.7120   22.6797 O   0  0  0  0  0  0  0  0  0  0  0  0
    6.8397   12.2160   23.0357 H   0  0  0  0  0  0  0  0  0  0  0  0
    6.7005   14.5642   23.7803 N   0  0  0  0  0  0  0  0  0  0  0  0
    6.5779   15.5758   24.8161 C   0  0  0  0  0  0  0  0  0  0  0  0
    5.2101   15.5294   25.4892 C   0  0  0  0  0  0  0  0  0  0  0  0
    4.0955   15.3721   24.5038 C   0  0  0  0  0  0  0  0  0  0  0  0
    2.8491   15.5164   25.0272 N   0  0  0  0  0  0  0  0  0  0  0  0
    1.8192   15.4633   24.1702 C   0  0  0  0  0  0  0  0  0  0  0  0
    1.9690   15.2892   22.8099 C   0  0  0  0  0  0  0  0  0  0  0  0
    3.2551   15.1313   22.3063 C   0  0  0  0  0  0  0  0  0  0  0  0
    3.3498   15.0686   20.9448 O   0  0  0  0  0  0  0  0  0  0  0  0
    4.3616   15.1151   23.1541 C   0  0  0  0  0  0  0  0  0  0  0  0
    5.7896   14.8749   22.6829 C   0  0  0  0  0  0  0  0  0  0  0  0
    2.5736   15.0829   20.4201 H   0  0  0  0  0  0  0  0  0  0  0  0
    9.0718   14.4898   22.9471 N   0  0  0  0  0  0  0  0  0  0  0  0
   10.2608   13.6423   22.7256 C   0  0  0  0  0  0  0  0  0  0  0  0
   11.5005   14.3644   22.2242 C   0  0  0  0  0  0  0  0  0  0  0  0
   11.2498   15.3078   21.0779 C   0  0  0  0  0  0  0  0  0  0  0  0
    9.8243   15.1892   20.5806 C   0  0  0  0  0  0  0  0  0  0  0  0
    8.7687   15.2803   21.7099 C   0  0  0  0  0  0  0  0  0  0  0  0
    9.4586   16.3751   19.2265 S   0  0  0  0  0  0  0  0  0  0  0  0
   10.8682   16.3517   18.3368 N   0  0  0  0  0  0  0  0  0  0  0  0
    8.5085   15.9262   18.2562 O   0  0  0  0  0  0  0  0  0  0  0  0
    9.2212   17.6739   19.7832 O   0  0  0  0  0  0  0  0  0  0  0  0
   11.0125   15.4177   17.9530 H   0  0  0  0  0  0  0  0  0  0  0  0
   11.6543   16.5971   18.9387 H   0  0  0  0  0  0  0  0  0  0  0  0
    8.3386   13.1926   24.9758 C   0  0  0  0  0  0  0  0  0  0  0  0
    7.9099   10.6871   25.2071 C   0  0  0  0  0  0  0  0  0  0  0  0
    7.1981    9.6760   25.8343 C   0  0  0  0  0  0  0  0  0  0  0  0
    6.1638    9.9602   26.7331 C   0  0  0  0  0  0  0  0  0  0  0  0
    5.8541   11.2638   27.0673 C   0  0  0  0  0  0  0  0  0  0  0  0
    6.5681   12.2872   26.4777 C   0  0  0  0  0  0  0  0  0  0  0  0
    7.5683   12.0193   25.5309 C   0  0  0  0  0  0  0  0  0  0  0  0
    9.0714    8.6347   23.5485 C   0  0  0  0  0  0  0  0  0  0  0  0
    9.2858   10.3474   24.0971 S   0  0  0  0  0  0  0  0  0  0  0  0
 35 36  1  0  0  0
 36 29  1  0  0  0
 29 30  2  0  0  0
 30 31  1  0  0  0
 31 32  2  0  0  0
 32 33  1  0  0  0
 33 34  2  0  0  0
 34 28  1  0  0  0
 28  1  1  0  0  0
  1  2  1  0  0  0
  1  4  1  0  0  0
  4  5  1  0  0  0
  5  6  1  0  0  0
  6  7  1  0  0  0
  7  8  2  0  0  0
  8  9  1  0  0  0
  9 10  2  0  0  0
 10 11  1  0  0  0
 11 12  1  0  0  0
 11 13  2  0  0  0
 13 14  1  0  0  0
  1 16  1  0  0  0
 16 17  1  0  0  0
 17 18  1  0  0  0
 18 19  1  0  0  0
 19 20  1  0  0  0
 20 22  1  0  0  0
 22 23  1  0  0  0
 22 24  2  0  0  0
 22 25  2  0  0  0
 20 21  1  0  0  0
 34 29  1  0  0  0
 14  4  1  0  0  0
 21 16  1  0  0  0
 13  7  1  0  0  0
  2  3  1  0  0  0
 12 15  1  0  0  0
 23 26  1  0  0  0
 23 27  1  0  0  0
M  END
> <minimizedAffinity>
-5.36904

> <minimizedRMSD>
0.37387

$$$$
P96266


 33 36  0  0  0  0  0  0  0  0999 V2000
    8.2781   13.9941   24.2794 C   0  0  0  0  0  0  0  0  0  0  0  0
    8.9241   13.9003   25.5551 O   0  0  0  0  0  0  0  0  0  0  0  0
    8.2860   13.5954   26.2190 H   0  0  0  0  0  0  0  0  0  0  0  0
    7.0676   14.7868   24.4595 N   0  0  0  0  0  0  0  0  0  0  0  0
    6.8056   15.5372   25.6780 C   0  0  0  0  0  0  0  0  0  0  0  0
    5.4000   15.2908   26.2212 C   0  0  0  0  0  0  0  0  0  0  0  0
    4.3568   15.1588   25.1476 C   0  0  0  0  0  0  0  0  0  0  0  0
    3.0818   15.0288   25.6017 N   0  0  0  0  0  0  0  0  0  0  0  0
    2.1011   14.9606   24.6846 C   0  0  0  0  0  0  0  0  0  0  0  0
    2.3243   15.0366   23.3265 C   0  0  0  0  0  0  0  0  0  0  0  0
    3.6368   15.1591   22.8874 C   0  0  0  0  0  0  0  0  0  0  0  0
    3.7889   15.3223   21.5372 O   0  0  0  0  0  0  0  0  0  0  0  0
    4.7043   15.1646   23.7922 C   0  0  0  0  0  0  0  0  0  0  0  0
    6.1675   15.1865   23.3809 C   0  0  0  0  0  0  0  0  0  0  0  0
    3.0384   15.3102   20.9764 H   0  0  0  0  0  0  0  0  0  0  0  0
    9.3163   14.4595   23.3477 N   0  0  0  0  0  0  0  0  0  0  0  0
   10.6774   13.9987   23.6749 C   0  0  0  0  0  0  0  0  0  0  0  0
   11.7199   13.8776   22.5717 C   0  0  0  0  0  0  0  0  0  0  0  0
   11.5383   14.9170   21.4943 C   0  0  0  0  0  0  0  0  0  0  0  0
   10.1384   14.7071   20.9476 C   0  0  0  0  0  0  0  0  0  0  0  0
    9.0068   14.8383   21.9767 C   0  0  0  0  0  0  0  0  0  0  0  0
    9.8707   15.5682   19.7273 C   0  0  0  0  0  0  0  0  0  0  0  0
   10.8764   15.4077   18.8385 F   0  0  0  0  0  0  0  0  0  0  0  0
    9.7747   16.8693   20.0826 F   0  0  0  0  0  0  0  0  0  0  0  0
    7.8872   12.5880   23.8084 C   0  0  0  0  0  0  0  0  0  0  0  0
    8.0593   10.3270   24.8860 C   0  0  0  0  0  0  0  0  0  0  0  0
    7.5573    9.4327   25.8133 C   0  0  0  0  0  0  0  0  0  0  0  0
    6.5965    9.8024   26.7656 C   0  0  0  0  0  0  0  0  0  0  0  0
    6.0700   11.0693   26.7759 C   0  0  0  0  0  0  0  0  0  0  0  0
    6.4954   11.9419   25.8015 C   0  0  0  0  0  0  0  0  0  0  0  0
    7.5003   11.6003   24.8713 C   0  0  0  0  0  0  0  0  0  0  0  0
    9.1318    8.1959   23.3995 C   0  0  0  0  0  0  0  0  0  0  0  0
    9.4304    9.9128   23.8257 S   0  0  0  0  0  0  0  0  0  0  0  0
 32 33  1  0  0  0
 33 26  1  0  0  0
 26 27  2  0  0  0
 27 28  1  0  0  0
 28 29  2  0  0  0
 29 30  1  0  0  0
 30 31  2  0  0  0
 31 25  1  0  0  0
 25  1  1  0  0  0
  1  2  1  0  0  0
  1  4  1  0  0  0
  4  5  1  0  0  0
  5  6  1  0  0  0
  6  7  1  0  0  0
  7  8  2  0  0  0
  8  9  1  0  0  0
  9 10  2  0  0  0
 10 11  1  0  0  0
 11 12  1  0  0  0
 11 13  2  0  0  0
 13 14  1  0  0  0
  1 16  1  0  0  0
 16 17  1  0  0  0
 17 18  1  0  0  0
 18 19  1  0  0  0
 19 20  1  0  0  0
 20 22  1  0  0  0
 22 23  1  0  0  0
 22 24  1  0  0  0
 20 21  1  0  0  0
 31 26  1  0  0  0
 14  4  1  0  0  0
 21 16  1  0  0  0
 13  7  1  0  0  0
  2  3  1  0  0  0
 12 15  1  0  0  0
M  END
> <minimizedAffinity>
-6.01546

> <minimizedRMSD>
0.21534

$$$$
P96267


 32 35  0  0  0  0  0  0  0  0999 V2000
    8.0422   13.7232   23.6926 C   0  0  0  0  0  0  0  0  0  0  0  0
    7.6011   12.6921   22.8317 O   0  0  0  0  0  0  0  0  0  0  0  0
    6.8562   12.2252   23.2415 H   0  0  0  0  0  0  0  0  0  0  0  0
    6.8489   14.5262   23.9644 N   0  0  0  0  0  0  0  0  0  0  0  0
    6.7683   15.4962   25.0443 C   0  0  0  0  0  0  0  0  0  0  0  0
    5.4024   15.4518   25.7230 C   0  0  0  0  0  0  0  0  0  0  0  0
    4.2797   15.3405   24.7379 C   0  0  0  0  0  0  0  0  0  0  0  0
    3.0343   15.4371   25.2701 N   0  0  0  0  0  0  0  0  0  0  0  0
    2.0023   15.3854   24.4150 C   0  0  0  0  0  0  0  0  0  0  0  0
    2.1430   15.2563   23.0457 C   0  0  0  0  0  0  0  0  0  0  0  0
    3.4306   15.1561   22.5318 C   0  0  0  0  0  0  0  0  0  0  0  0
    3.6089   15.1330   21.1773 O   0  0  0  0  0  0  0  0  0  0  0  0
    4.5364   15.1493   23.3766 C   0  0  0  0  0  0  0  0  0  0  0  0
    5.9584   14.9537   22.8774 C   0  0  0  0  0  0  0  0  0  0  0  0
    2.8656   15.1376   20.6068 H   0  0  0  0  0  0  0  0  0  0  0  0
    9.1901   14.4389   23.0554 N   0  0  0  0  0  0  0  0  0  0  0  0
   10.5136   13.8768   23.4162 C   0  0  0  0  0  0  0  0  0  0  0  0
   11.6685   13.9554   22.4248 C   0  0  0  0  0  0  0  0  0  0  0  0
   11.6306   15.1459   21.5092 C   0  0  0  0  0  0  0  0  0  0  0  0
   10.2256   15.4266   20.9511 C   0  0  0  0  0  0  0  0  0  0  0  0
    9.1351   14.5152   21.5841 C   0  0  0  0  0  0  0  0  0  0  0  0
   10.2471   15.4099   19.4121 C   0  0  0  0  0  0  0  0  0  0  0  0
   11.3443   14.7478   18.9608 F   0  0  0  0  0  0  0  0  0  0  0  0
    8.4856   13.0510   25.0734 C   0  0  0  0  0  0  0  0  0  0  0  0
    8.0020   10.5346   25.0855 C   0  0  0  0  0  0  0  0  0  0  0  0
    7.2402    9.4966   25.6043 C   0  0  0  0  0  0  0  0  0  0  0  0
    6.2051    9.7307   26.5159 C   0  0  0  0  0  0  0  0  0  0  0  0
    5.9353   11.0074   26.9678 C   0  0  0  0  0  0  0  0  0  0  0  0
    6.6893   12.0570   26.4826 C   0  0  0  0  0  0  0  0  0  0  0  0
    7.7017   11.8423   25.5326 C   0  0  0  0  0  0  0  0  0  0  0  0
    9.2023    8.5073   23.4269 C   0  0  0  0  0  0  0  0  0  0  0  0
    9.3738   10.2265   23.9666 S   0  0  0  0  0  0  0  0  0  0  0  0
 31 32  1  0  0  0
 32 25  1  0  0  0
 25 26  2  0  0  0
 26 27  1  0  0  0
 27 28  2  0  0  0
 28 29  1  0  0  0
 29 30  2  0  0  0
 30 24  1  0  0  0
 24  1  1  0  0  0
  1  2  1  0  0  0
  1  4  1  0  0  0
  4  5  1  0  0  0
  5  6  1  0  0  0
  6  7  1  0  0  0
  7  8  2  0  0  0
  8  9  1  0  0  0
  9 10  2  0  0  0
 10 11  1  0  0  0
 11 12  1  0  0  0
 11 13  2  0  0  0
 13 14  1  0  0  0
  1 16  1  0  0  0
 16 17  1  0  0  0
 17 18  1  0  0  0
 18 19  1  0  0  0
 19 20  1  0  0  0
 20 22  1  0  0  0
 22 23  1  0  0  0
 20 21  1  0  0  0
 30 25  1  0  0  0
 14  4  1  0  0  0
 21 16  1  0  0  0
 13  7  1  0  0  0
  2  3  1  0  0  0
 12 15  1  0  0  0
M  END
> <minimizedAffinity>
-7.72665

> <minimizedRMSD>
0.32499

$$$$
P96790


 12 11  0  0  0  0  0  0  0  0999 V2000
   11.1945   13.9512   22.8090 C   0  0  0  0  0  0  0  0  0  0  0  0
   10.5785   14.8281   21.7048 C   0  0  0  0  0  0  0  0  0  0  0  0
    9.3976   15.6687   22.1885 C   0  0  0  0  0  0  0  0  0  0  0  0
   11.6551   15.7479   21.1426 C   0  0  0  0  0  0  0  0  0  0  0  0
   12.6814   15.8762   22.0134 F   0  0  0  0  0  0  0  0  0  0  0  0
   12.1412   15.2828   19.9767 F   0  0  0  0  0  0  0  0  0  0  0  0
   11.1686   16.9922   20.9218 F   0  0  0  0  0  0  0  0  0  0  0  0
   10.2029   13.2869   23.7513 C   0  0  0  0  0  0  0  0  0  0  0  0
    9.5718   12.0087   23.2233 C   0  0  0  0  0  0  0  0  0  0  0  0
    8.3051   11.7552   23.8168 O   0  0  0  0  0  0  0  0  0  0  0  0
    7.3744   10.2251   25.4992 C   0  0  0  0  0  0  0  0  0  0  0  0
    8.2922   11.3907   25.1851 C   0  0  0  0  0  0  0  0  0  0  0  0
 11 12  1  0  0  0
 12 10  1  0  0  0
 10  9  1  0  0  0
  9  8  1  0  0  0
  8  1  1  0  0  0
  1  2  1  0  0  0
  2  3  1  0  0  0
  2  4  1  0  0  0
  4  5  1  0  0  0
  4  6  1  0  0  0
  4  7  1  0  0  0
M  END
> <minimizedAffinity>
-4.46988

> <minimizedRMSD>
2.74097

$$$$
P97924


 32 35  0  0  0  0  0  0  0  0999 V2000
    9.0071   14.4957   24.9447 C   0  0  0  0  0  0  0  0  0  0  0  0
    9.7395   14.5754   26.1652 O   0  0  0  0  0  0  0  0  0  0  0  0
   10.6034   14.1489   26.0522 H   0  0  0  0  0  0  0  0  0  0  0  0
    9.8125   15.1952   23.9384 N   0  0  0  0  0  0  0  0  0  0  0  0
   11.2403   14.8209   23.8432 C   0  0  0  0  0  0  0  0  0  0  0  0
   11.6667   14.0110   22.6148 C   0  0  0  0  0  0  0  0  0  0  0  0
   11.2330   14.7254   21.3740 C   0  0  0  0  0  0  0  0  0  0  0  0
   11.9110   14.5296   20.2275 N   0  0  0  0  0  0  0  0  0  0  0  0
   11.3740   15.0575   19.1059 C   0  0  0  0  0  0  0  0  0  0  0  0
   10.3111   15.9356   19.1074 C   0  0  0  0  0  0  0  0  0  0  0  0
    9.7452   16.2303   20.3321 C   0  0  0  0  0  0  0  0  0  0  0  0
    8.8760   17.2640   20.4939 O   0  0  0  0  0  0  0  0  0  0  0  0
   10.0899   15.4968   21.4490 C   0  0  0  0  0  0  0  0  0  0  0  0
    9.1666   15.3245   22.6154 C   0  0  0  0  0  0  0  0  0  0  0  0
    8.6214   17.7819   19.7557 H   0  0  0  0  0  0  0  0  0  0  0  0
    7.7253   15.1446   25.1605 N   0  0  0  0  0  0  0  0  0  0  0  0
    7.4329   15.8173   26.4145 C   0  0  0  0  0  0  0  0  0  0  0  0
    6.1688   16.6726   26.3517 C   0  0  0  0  0  0  0  0  0  0  0  0
    4.9462   15.8656   25.9615 C   0  0  0  0  0  0  0  0  0  0  0  0
    5.2499   14.9244   24.8016 C   0  0  0  0  0  0  0  0  0  0  0  0
    4.2327   15.0854   23.8106 O   0  0  0  0  0  0  0  0  0  0  0  0
    6.6516   15.1332   24.1765 C   0  0  0  0  0  0  0  0  0  0  0  0
    4.2479   15.9959   23.4766 H   0  0  0  0  0  0  0  0  0  0  0  0
    8.9754   13.0005   24.6032 C   0  0  0  0  0  0  0  0  0  0  0  0
    8.0882   10.6904   24.7787 C   0  0  0  0  0  0  0  0  0  0  0  0
    7.1447    9.7882   25.2475 C   0  0  0  0  0  0  0  0  0  0  0  0
    6.1948   10.1598   26.2029 C   0  0  0  0  0  0  0  0  0  0  0  0
    6.2108   11.4346   26.7419 C   0  0  0  0  0  0  0  0  0  0  0  0
    7.1438   12.3526   26.2803 C   0  0  0  0  0  0  0  0  0  0  0  0
    8.0417   12.0130   25.2598 C   0  0  0  0  0  0  0  0  0  0  0  0
    9.3150    8.5182   23.3868 C   0  0  0  0  0  0  0  0  0  0  0  0
    9.3927   10.2803   23.6117 S   0  0  0  0  0  0  0  0  0  0  0  0
 31 32  1  0  0  0
 32 25  1  0  0  0
 25 26  2  0  0  0
 26 27  1  0  0  0
 27 28  2  0  0  0
 28 29  1  0  0  0
 29 30  2  0  0  0
 30 24  1  0  0  0
 24  1  1  0  0  0
  1  2  1  0  0  0
  1  4  1  0  0  0
  4  5  1  0  0  0
  5  6  1  0  0  0
  6  7  1  0  0  0
  7  8  2  0  0  0
  8  9  1  0  0  0
  9 10  2  0  0  0
 10 11  1  0  0  0
 11 12  1  0  0  0
 11 13  2  0  0  0
 13 14  1  0  0  0
  1 16  1  0  0  0
 16 17  1  0  0  0
 17 18  1  0  0  0
 18 19  1  0  0  0
 19 20  1  0  0  0
 20 21  1  0  0  0
 20 22  1  0  0  0
 30 25  1  0  0  0
 14  4  1  0  0  0
 22 16  1  0  0  0
 13  7  1  0  0  0
  2  3  1  0  0  0
 12 15  1  0  0  0
 21 23  1  0  0  0
M  END
> <minimizedAffinity>
-6.91578

> <minimizedRMSD>
0.48068

$$$$
P98028


 25 28  0  0  0  0  0  0  0  0999 V2000
    8.3235   13.7029   24.3825 C   0  0  0  0  0  0  0  0  0  0  0  0
    8.4946   13.9938   23.0813 C   0  0  0  0  0  0  0  0  0  0  0  0
    9.5478   15.0246   22.8595 C   0  0  0  0  0  0  0  0  0  0  0  0
    9.9893   15.2516   24.2133 N   0  0  0  0  0  0  0  0  0  0  0  0
   11.4194   15.2585   24.3110 C   0  0  0  0  0  0  0  0  0  0  0  0
   11.8807   15.5371   22.8898 C   0  0  0  0  0  0  0  0  0  0  0  0
   10.8664   14.7247   22.0756 C   0  0  0  0  0  0  0  0  0  0  0  0
   11.3009   13.3688   22.1410 O   0  0  0  0  0  0  0  0  0  0  0  0
    9.2838   14.5278   25.1376 C   0  0  0  0  0  0  0  0  0  0  0  0
    9.4791   14.4920   26.3390 O   0  0  0  0  0  0  0  0  0  0  0  0
   12.1204   13.2670   21.6320 H   0  0  0  0  0  0  0  0  0  0  0  0
    8.0623   11.2575   24.8375 C   0  0  0  0  0  0  0  0  0  0  0  0
    7.4202   10.2567   25.5677 C   0  0  0  0  0  0  0  0  0  0  0  0
    6.3830   10.5610   26.4554 C   0  0  0  0  0  0  0  0  0  0  0  0
    5.9712   11.8753   26.6276 C   0  0  0  0  0  0  0  0  0  0  0  0
    6.5835   12.8852   25.8966 C   0  0  0  0  0  0  0  0  0  0  0  0
    7.6185   12.5872   24.9998 C   0  0  0  0  0  0  0  0  0  0  0  0
    9.4921    9.1989   23.4601 C   0  0  0  0  0  0  0  0  0  0  0  0
    9.4939   10.9521   23.8034 S   0  0  0  0  0  0  0  0  0  0  0  0
   10.8483   15.1277   20.6606 C   0  0  0  0  0  0  0  0  0  0  0  0
   10.1408   16.0706   19.9537 C   0  0  0  0  0  0  0  0  0  0  0  0
   10.4610   15.9856   18.6352 N   0  0  0  0  0  0  0  0  0  0  0  0
   11.4034   15.0626   18.5044 N   0  0  0  0  0  0  0  0  0  0  0  0
   11.6968   14.6090   19.7245 N   0  0  0  0  0  0  0  0  0  0  0  0
   12.4292   13.9821   19.9238 H   0  0  0  0  0  0  0  0  0  0  0  0
 18 19  1  0  0  0
 19 12  1  0  0  0
 12 13  2  0  0  0
 13 14  1  0  0  0
 14 15  2  0  0  0
 15 16  1  0  0  0
 16 17  2  0  0  0
 17  1  1  0  0  0
  1  2  2  0  0  0
  3  2  1  0  0  0
  3  4  1  0  0  0
  4  5  1  0  0  0
  5  6  1  0  0  0
  6  7  1  0  0  0
  7  8  1  0  0  0
  7 20  1  0  0  0
 20 21  2  0  0  0
 21 22  1  0  0  0
 22 23  2  0  0  0
 23 24  1  0  0  0
  4  9  1  0  0  0
  9 10  2  0  0  0
 17 12  1  0  0  0
  9  1  1  0  0  0
  7  3  1  0  0  0
 24 20  1  0  0  0
  8 11  1  0  0  0
 24 25  1  0  0  0
M  END
> <minimizedAffinity>
-8.10879

> <minimizedRMSD>
0.18746

$$$$
P98040


 26 29  0  0  0  0  0  0  0  0999 V2000
    8.2613   13.7630   24.5117 C   0  0  0  0  0  0  0  0  0  0  0  0
    8.4634   14.0907   23.2232 C   0  0  0  0  0  0  0  0  0  0  0  0
    9.6056   15.0355   23.0462 C   0  0  0  0  0  0  0  0  0  0  0  0
   10.0439   15.1932   24.4120 N   0  0  0  0  0  0  0  0  0  0  0  0
   11.4710   15.0954   24.5206 C   0  0  0  0  0  0  0  0  0  0  0  0
   11.9607   15.3696   23.1077 C   0  0  0  0  0  0  0  0  0  0  0  0
   10.9092   14.6424   22.2623 C   0  0  0  0  0  0  0  0  0  0  0  0
   11.2117   13.2473   22.3647 O   0  0  0  0  0  0  0  0  0  0  0  0
    9.2753   14.4892   25.3016 C   0  0  0  0  0  0  0  0  0  0  0  0
    9.4542   14.3961   26.5027 O   0  0  0  0  0  0  0  0  0  0  0  0
   12.0214   13.0545   21.8666 H   0  0  0  0  0  0  0  0  0  0  0  0
   10.9206   15.0928   20.8536 C   0  0  0  0  0  0  0  0  0  0  0  0
   10.0573   15.9323   20.1956 C   0  0  0  0  0  0  0  0  0  0  0  0
   10.4426   15.8019   18.9147 N   0  0  0  0  0  0  0  0  0  0  0  0
    9.6027   15.9770   17.8668 O   0  0  0  0  0  0  0  0  0  0  0  0
   11.4989   15.0180   18.7518 N   0  0  0  0  0  0  0  0  0  0  0  0
   11.8492   14.6093   19.9600 N   0  0  0  0  0  0  0  0  0  0  0  0
    8.8803   16.5698   18.1270 H   0  0  0  0  0  0  0  0  0  0  0  0
    8.0032   11.3060   24.8540 C   0  0  0  0  0  0  0  0  0  0  0  0
    7.4064   10.2660   25.5690 C   0  0  0  0  0  0  0  0  0  0  0  0
    6.3875   10.5183   26.4926 C   0  0  0  0  0  0  0  0  0  0  0  0
    5.9401   11.8177   26.7049 C   0  0  0  0  0  0  0  0  0  0  0  0
    6.5073   12.8684   25.9896 C   0  0  0  0  0  0  0  0  0  0  0  0
    7.5377   12.6246   25.0703 C   0  0  0  0  0  0  0  0  0  0  0  0
    9.5068    9.2838   23.4822 C   0  0  0  0  0  0  0  0  0  0  0  0
    9.4176   11.0472   23.7796 S   0  0  0  0  0  0  0  0  0  0  0  0
 25 26  1  0  0  0
 26 19  1  0  0  0
 19 20  2  0  0  0
 20 21  1  0  0  0
 21 22  2  0  0  0
 22 23  1  0  0  0
 23 24  2  0  0  0
 24  1  1  0  0  0
  1  2  2  0  0  0
  3  2  1  0  0  0
  3  4  1  0  0  0
  4  5  1  0  0  0
  5  6  1  0  0  0
  6  7  1  0  0  0
  7  8  1  0  0  0
  7 12  1  0  0  0
 12 13  2  0  0  0
 13 14  1  0  0  0
 14 15  1  0  0  0
 14 16  1  0  0  0
 16 17  2  0  0  0
  4  9  1  0  0  0
  9 10  2  0  0  0
 24 19  1  0  0  0
  9  1  1  0  0  0
  7  3  1  0  0  0
 17 12  1  0  0  0
  8 11  1  0  0  0
 15 18  1  0  0  0
M  END
> <minimizedAffinity>
-8.15059

> <minimizedRMSD>
0.19812

$$$$
P98042


 34 39  0  0  0  0  0  0  0  0999 V2000
    7.6626   14.1316   24.6962 C   0  0  0  0  0  0  0  0  0  0  0  0
    6.8480   15.3518   25.1558 C   0  0  0  0  0  0  0  0  0  0  0  0
    7.4650   15.7326   26.5415 C   0  0  0  0  0  0  0  0  0  0  0  0
    8.8978   15.3498   26.4283 N   0  0  0  0  0  0  0  0  0  0  0  0
    8.9396   14.6814   25.3266 C   0  0  0  0  0  0  0  0  0  0  0  0
    9.9662   14.6377   24.4471 N   0  0  0  0  0  0  0  0  0  0  0  0
   11.3250   15.0770   24.5553 C   0  0  0  0  0  0  0  0  0  0  0  0
   11.7282   15.4068   23.1038 C   0  0  0  0  0  0  0  0  0  0  0  0
   10.6744   14.6858   22.2381 C   0  0  0  0  0  0  0  0  0  0  0  0
   11.0701   13.3302   22.1632 O   0  0  0  0  0  0  0  0  0  0  0  0
    9.4360   14.9018   23.0943 C   0  0  0  0  0  0  0  0  0  0  0  0
    8.0720   14.1719   23.1876 C   0  0  0  0  0  0  0  0  0  0  0  0
    7.3687   13.7877   22.2587 O   0  0  0  0  0  0  0  0  0  0  0  0
   11.8610   13.2546   21.6067 H   0  0  0  0  0  0  0  0  0  0  0  0
    7.9006   11.5171   24.9326 C   0  0  0  0  0  0  0  0  0  0  0  0
    7.4778   10.3401   25.5794 C   0  0  0  0  0  0  0  0  0  0  0  0
    6.4525   10.3382   26.5200 C   0  0  0  0  0  0  0  0  0  0  0  0
    5.7977   11.5116   26.8062 C   0  0  0  0  0  0  0  0  0  0  0  0
    6.1618   12.6722   26.1348 C   0  0  0  0  0  0  0  0  0  0  0  0
    7.2506   12.7428   25.2330 C   0  0  0  0  0  0  0  0  0  0  0  0
    9.5503    9.6400   23.5095 C   0  0  0  0  0  0  0  0  0  0  0  0
    9.2754   11.4085   23.7952 S   0  0  0  0  0  0  0  0  0  0  0  0
    6.8060   15.1806   27.7246 N   0  0  0  0  0  0  0  0  0  0  0  0
    5.6636   15.9974   28.1480 C   0  0  0  0  0  0  0  0  0  0  0  0
    4.8251   15.2280   29.1771 C   0  0  0  0  0  0  0  0  0  0  0  0
    5.6713   14.3733   30.1227 C   0  0  0  0  0  0  0  0  0  0  0  0
    7.0865   14.9218   30.2224 C   0  0  0  0  0  0  0  0  0  0  0  0
    7.7560   15.0120   28.8420 C   0  0  0  0  0  0  0  0  0  0  0  0
   10.5871   15.2392   20.8755 C   0  0  0  0  0  0  0  0  0  0  0  0
    9.9387   16.3186   20.3192 C   0  0  0  0  0  0  0  0  0  0  0  0
   10.2120   16.3771   18.9842 N   0  0  0  0  0  0  0  0  0  0  0  0
   11.0152   15.3683   18.6861 N   0  0  0  0  0  0  0  0  0  0  0  0
   11.2022   14.6685   19.8027 N   0  0  0  0  0  0  0  0  0  0  0  0
   11.7245   13.8352   19.8480 H   0  0  0  0  0  0  0  0  0  0  0  0
 21 22  1  0  0  0
 22 15  1  0  0  0
 15 16  2  0  0  0
 16 17  1  0  0  0
 17 18  2  0  0  0
 18 19  1  0  0  0
 19 20  2  0  0  0
  1 20  1  0  0  0
  1  2  1  0  0  0
  2  3  1  0  0  0
  3 23  1  0  0  0
 23 24  1  0  0  0
 24 25  1  0  0  0
 25 26  1  0  0  0
 26 27  1  0  0  0
 27 28  1  0  0  0
  3  4  1  0  0  0
  4  5  2  0  0  0
  5  6  1  0  0  0
  6  7  1  0  0  0
  7  8  1  0  0  0
  8  9  1  0  0  0
  9 10  1  0  0  0
  9 29  1  0  0  0
 29 30  2  0  0  0
 30 31  1  0  0  0
 31 32  2  0  0  0
 32 33  1  0  0  0
  9 11  1  0  0  0
 11 12  1  0  0  0
 12 13  2  0  0  0
 20 15  1  0  0  0
  5  1  1  0  0  0
 11  6  1  0  0  0
 12  1  1  0  0  0
 28 23  1  0  0  0
 33 29  1  0  0  0
 10 14  1  0  0  0
 33 34  1  0  0  0
M  END
> <minimizedAffinity>
-9.21315

> <minimizedRMSD>
0.26013

$$$$
P98050


 32 34  0  0  0  0  0  0  0  0999 V2000
    9.2129   14.0492   23.9059 N   0  0  0  0  0  0  0  0  0  0  0  0
   10.2688   15.0566   24.2152 C   0  0  0  0  0  0  0  0  0  0  0  0
   10.7360   15.6513   22.8790 C   0  0  0  0  0  0  0  0  0  0  0  0
   11.9430   16.2232   22.9930 F   0  0  0  0  0  0  0  0  0  0  0  0
   10.7401   14.3763   22.0319 C   0  0  0  0  0  0  0  0  0  0  0  0
   11.7066   13.3944   22.4253 O   0  0  0  0  0  0  0  0  0  0  0  0
    9.3611   13.8301   22.4342 C   0  0  0  0  0  0  0  0  0  0  0  0
   12.5953   13.7022   22.1878 H   0  0  0  0  0  0  0  0  0  0  0  0
   10.8452   14.7006   20.6073 C   0  0  0  0  0  0  0  0  0  0  0  0
    9.8253   15.1658   19.8315 C   0  0  0  0  0  0  0  0  0  0  0  0
   10.4132   15.4135   18.6687 N   0  0  0  0  0  0  0  0  0  0  0  0
    9.7056   15.7157   17.5533 O   0  0  0  0  0  0  0  0  0  0  0  0
   11.6691   14.9958   18.6215 N   0  0  0  0  0  0  0  0  0  0  0  0
   11.9777   14.5878   19.8481 N   0  0  0  0  0  0  0  0  0  0  0  0
    8.8127   15.9999   17.8040 H   0  0  0  0  0  0  0  0  0  0  0  0
    7.8717   14.4841   24.2492 C   0  0  0  0  0  0  0  0  0  0  0  0
    7.9298   15.0700   25.5283 O   0  0  0  0  0  0  0  0  0  0  0  0
    7.4406   15.4749   23.3548 O   0  0  0  0  0  0  0  0  0  0  0  0
    8.1999   14.5591   26.2658 H   0  0  0  0  0  0  0  0  0  0  0  0
    7.3394   15.2732   22.4453 H   0  0  0  0  0  0  0  0  0  0  0  0
    6.7432   13.4364   24.1957 C   0  0  0  0  0  0  0  0  0  0  0  0
    7.3053   11.2838   25.4271 C   0  0  0  0  0  0  0  0  0  0  0  0
    6.8979   10.3562   26.3757 C   0  0  0  0  0  0  0  0  0  0  0  0
    5.8996   10.6557   27.3120 C   0  0  0  0  0  0  0  0  0  0  0  0
    5.2916   11.8992   27.3167 C   0  0  0  0  0  0  0  0  0  0  0  0
    5.6182   12.8047   26.3224 C   0  0  0  0  0  0  0  0  0  0  0  0
    6.5915   12.4888   25.3531 C   0  0  0  0  0  0  0  0  0  0  0  0
    8.7917    9.3228   23.9281 C   0  0  0  0  0  0  0  0  0  0  0  0
    8.7382   11.0447   24.4038 S   0  0  0  0  0  0  0  0  0  0  0  0
    9.7468   16.6007   22.4568 O   0  0  0  0  0  0  0  0  0  0  0  0
   10.0137   17.5599   21.4571 C   0  0  0  0  0  0  0  0  0  0  0  0
   11.3232   17.9048   21.4556 F   0  0  0  0  0  0  0  0  0  0  0  0
 28 29  1  0  0  0
 29 22  1  0  0  0
 22 23  2  0  0  0
 23 24  1  0  0  0
 24 25  2  0  0  0
 25 26  1  0  0  0
 26 27  2  0  0  0
 27 21  1  0  0  0
 21 16  1  0  0  0
 16 17  1  0  0  0
 16 18  1  0  0  0
 16  1  1  0  0  0
  1  2  1  0  0  0
  2  3  1  0  0  0
  3  4  1  0  0  0
  3 30  1  0  0  0
 30 31  1  0  0  0
 31 32  1  0  0  0
  3  5  1  0  0  0
  5  6  1  0  0  0
  5  9  1  0  0  0
  9 10  2  0  0  0
 10 11  1  0  0  0
 11 12  1  0  0  0
 11 13  1  0  0  0
 13 14  2  0  0  0
  5  7  1  0  0  0
 27 22  1  0  0  0
  7  1  1  0  0  0
 14  9  1  0  0  0
 17 19  1  0  0  0
 18 20  1  0  0  0
  6  8  1  0  0  0
 12 15  1  0  0  0
M  END
> <minimizedAffinity>
-4.87561

> <minimizedRMSD>
0.57628

$$$$
P98060


 31 34  0  0  0  0  0  0  0  0999 V2000
    8.0909   14.8808   24.3016 C   0  0  0  0  0  0  0  0  0  0  0  0
    7.7120   15.9425   23.4613 O   0  0  0  0  0  0  0  0  0  0  0  0
    8.0494   15.4093   25.6101 O   0  0  0  0  0  0  0  0  0  0  0  0
    7.6701   15.8142   22.5341 H   0  0  0  0  0  0  0  0  0  0  0  0
    8.2689   14.8666   26.3417 H   0  0  0  0  0  0  0  0  0  0  0  0
    9.3888   14.3827   23.9263 N   0  0  0  0  0  0  0  0  0  0  0  0
   10.5577   15.1612   24.3215 C   0  0  0  0  0  0  0  0  0  0  0  0
   11.2842   15.5956   23.0554 C   0  0  0  0  0  0  0  0  0  0  0  0
   10.9010   14.5476   22.0400 C   0  0  0  0  0  0  0  0  0  0  0  0
   11.8177   13.4613   22.1167 O   0  0  0  0  0  0  0  0  0  0  0  0
    9.4987   14.1243   22.4775 C   0  0  0  0  0  0  0  0  0  0  0  0
   12.6964   13.7592   21.8339 H   0  0  0  0  0  0  0  0  0  0  0  0
   10.9230   15.0474   20.6558 C   0  0  0  0  0  0  0  0  0  0  0  0
   10.1918   16.0095   19.9983 C   0  0  0  0  0  0  0  0  0  0  0  0
   10.5015   15.9879   18.6764 N   0  0  0  0  0  0  0  0  0  0  0  0
   11.4578   15.0862   18.5005 N   0  0  0  0  0  0  0  0  0  0  0  0
   11.7753   14.5902   19.6985 N   0  0  0  0  0  0  0  0  0  0  0  0
   12.5257   13.9756   19.8669 H   0  0  0  0  0  0  0  0  0  0  0  0
    7.0185   13.7785   24.2488 C   0  0  0  0  0  0  0  0  0  0  0  0
    7.3744   11.3624   25.0180 C   0  0  0  0  0  0  0  0  0  0  0  0
    7.1398   10.3345   26.1130 C   0  0  0  0  0  0  0  0  0  0  0  0
    5.9341   10.5384   27.0316 C   0  0  0  0  0  0  0  0  0  0  0  0
    5.6364   11.9924   27.4067 C   0  0  0  0  0  0  0  0  0  0  0  0
    4.2998   12.1432   28.1225 C   0  0  0  0  0  0  0  0  0  0  0  0
    4.5955   11.7547   29.4607 O   0  0  0  0  0  0  0  0  0  0  0  0
    5.9117   12.2638   29.6641 C   0  0  0  0  0  0  0  0  0  0  0  0
    6.5708   12.4279   28.4036 O   0  0  0  0  0  0  0  0  0  0  0  0
    5.7171   12.8904   26.1829 C   0  0  0  0  0  0  0  0  0  0  0  0
    7.0709   12.8022   25.4529 C   0  0  0  0  0  0  0  0  0  0  0  0
    9.1874    9.5854   23.6599 C   0  0  0  0  0  0  0  0  0  0  0  0
    9.0872   11.2398   24.3524 S   0  0  0  0  0  0  0  0  0  0  0  0
 30 31  1  0  0  0
 20 31  1  0  0  0
 20 21  1  0  0  0
 21 22  1  0  0  0
 23 22  1  0  0  0
 23 24  1  0  0  0
 24 25  1  0  0  0
 25 26  1  0  0  0
 26 27  1  0  0  0
 23 28  1  0  0  0
 28 29  1  0  0  0
 29 19  1  0  0  0
 19  1  1  0  0  0
  1  2  1  0  0  0
  1  3  1  0  0  0
  1  6  1  0  0  0
  6  7  1  0  0  0
  7  8  1  0  0  0
  8  9  1  0  0  0
  9 10  1  0  0  0
  9 13  1  0  0  0
 13 14  2  0  0  0
 14 15  1  0  0  0
 15 16  2  0  0  0
 16 17  1  0  0  0
  9 11  1  0  0  0
 29 20  1  0  0  0
 11  6  1  0  0  0
 27 23  1  0  0  0
 17 13  1  0  0  0
  2  4  1  0  0  0
  3  5  1  0  0  0
 10 12  1  0  0  0
 17 18  1  0  0  0
M  END
> <minimizedAffinity>
-7.37116

> <minimizedRMSD>
0.27087

$$$$
P98070


 29 33  0  0  0  0  0  0  0  0999 V2000
    7.5882   15.3987   26.1891 O   0  0  0  0  0  0  0  0  0  0  0  0
    7.9674   14.3069   25.8017 C   0  0  0  0  0  0  0  0  0  0  0  0
    7.2724   13.0401   26.0923 C   0  0  0  0  0  0  0  0  0  0  0  0
    6.2533   12.7362   26.9688 C   0  0  0  0  0  0  0  0  0  0  0  0
    5.9221   11.3861   27.1174 C   0  0  0  0  0  0  0  0  0  0  0  0
    6.5590   10.3947   26.3413 C   0  0  0  0  0  0  0  0  0  0  0  0
    7.5586   10.7114   25.4304 C   0  0  0  0  0  0  0  0  0  0  0  0
    8.1930    9.8258   24.6415 N   0  0  0  0  0  0  0  0  0  0  0  0
    9.2094   10.2826   23.8652 C   0  0  0  0  0  0  0  0  0  0  0  0
    9.6879   11.5900   23.9156 C   0  0  0  0  0  0  0  0  0  0  0  0
    9.0257   12.4960   24.7200 C   0  0  0  0  0  0  0  0  0  0  0  0
    7.9175   12.0478   25.3963 C   0  0  0  0  0  0  0  0  0  0  0  0
    9.3161   13.9180   25.1199 C   0  0  0  0  0  0  0  0  0  0  0  0
   10.1569   13.9222   26.2817 O   0  0  0  0  0  0  0  0  0  0  0  0
   11.0637   13.6921   26.0255 H   0  0  0  0  0  0  0  0  0  0  0  0
    9.8447   14.8682   24.1646 N   0  0  0  0  0  0  0  0  0  0  0  0
   11.2843   15.1268   24.3574 C   0  0  0  0  0  0  0  0  0  0  0  0
   11.7994   15.6203   23.0237 C   0  0  0  0  0  0  0  0  0  0  0  0
   11.0854   14.6817   22.0865 C   0  0  0  0  0  0  0  0  0  0  0  0
   11.7510   13.4148   22.1875 O   0  0  0  0  0  0  0  0  0  0  0  0
    9.6715   14.5792   22.7294 C   0  0  0  0  0  0  0  0  0  0  0  0
   12.6319   13.4795   21.7867 H   0  0  0  0  0  0  0  0  0  0  0  0
   11.0684   15.1461   20.6917 C   0  0  0  0  0  0  0  0  0  0  0  0
   10.1941   15.9993   20.0669 C   0  0  0  0  0  0  0  0  0  0  0  0
   10.4800   15.7963   18.7691 N   0  0  0  0  0  0  0  0  0  0  0  0
    9.5453   15.8666   17.7774 O   0  0  0  0  0  0  0  0  0  0  0  0
   11.5285   15.0062   18.5759 N   0  0  0  0  0  0  0  0  0  0  0  0
   11.9377   14.6208   19.7692 N   0  0  0  0  0  0  0  0  0  0  0  0
    8.8371   16.4739   18.0430 H   0  0  0  0  0  0  0  0  0  0  0  0
  1  2  2  0  0  0
  2  3  1  0  0  0
  3  4  2  0  0  0
  4  5  1  0  0  0
  5  6  2  0  0  0
  6  7  1  0  0  0
  7  8  2  0  0  0
  8  9  1  0  0  0
  9 10  2  0  0  0
 10 11  1  0  0  0
 11 12  2  0  0  0
 11 13  1  0  0  0
 13 14  1  0  0  0
 13 16  1  0  0  0
 16 17  1  0  0  0
 17 18  1  0  0  0
 18 19  1  0  0  0
 19 20  1  0  0  0
 19 23  1  0  0  0
 23 24  2  0  0  0
 24 25  1  0  0  0
 25 26  1  0  0  0
 25 27  1  0  0  0
 27 28  2  0  0  0
 19 21  1  0  0  0
 13  2  1  0  0  0
 21 16  1  0  0  0
 12  3  1  0  0  0
 28 23  1  0  0  0
 12  7  1  0  0  0
 14 15  1  0  0  0
 20 22  1  0  0  0
 26 29  1  0  0  0
M  END
> <minimizedAffinity>
-9.16774

> <minimizedRMSD>
0.29150

$$$$
P98076


 28 31  0  0  0  0  0  0  0  0999 V2000
    9.5802   14.7145   22.4478 C   0  0  0  0  0  0  0  0  0  0  0  0
    9.8096   14.2537   23.8227 N   0  0  0  0  0  0  0  0  0  0  0  0
   10.9784   15.0291   24.2716 C   0  0  0  0  0  0  0  0  0  0  0  0
   11.7408   15.4973   22.9815 C   0  0  0  0  0  0  0  0  0  0  0  0
   11.0432   14.7238   21.8734 C   0  0  0  0  0  0  0  0  0  0  0  0
   11.6594   13.4219   21.9925 O   0  0  0  0  0  0  0  0  0  0  0  0
   12.5591   13.4558   21.6314 H   0  0  0  0  0  0  0  0  0  0  0  0
    8.6210   14.1055   24.6396 C   0  0  0  0  0  0  0  0  0  0  0  0
    7.4385   14.4375   23.9025 O   0  0  0  0  0  0  0  0  0  0  0  0
    8.5455   14.8382   25.9934 C   0  0  0  0  0  0  0  0  0  0  0  0
    7.3493   14.1994   26.7301 C   0  0  0  0  0  0  0  0  0  0  0  0
    7.4255   12.7855   26.2325 C   0  0  0  0  0  0  0  0  0  0  0  0
    6.7318   11.6842   26.7008 C   0  0  0  0  0  0  0  0  0  0  0  0
    6.9432   10.4640   26.0634 C   0  0  0  0  0  0  0  0  0  0  0  0
    7.8510   10.3626   24.9953 C   0  0  0  0  0  0  0  0  0  0  0  0
    8.5075   11.4875   24.4916 C   0  0  0  0  0  0  0  0  0  0  0  0
    8.2750   12.7038   25.1081 C   0  0  0  0  0  0  0  0  0  0  0  0
    7.5256   15.3319   23.5373 H   0  0  0  0  0  0  0  0  0  0  0  0
   11.0768   15.2029   20.4367 C   0  0  0  0  0  0  0  0  0  0  0  0
   10.2842   16.1793   19.7964 C   0  0  0  0  0  0  0  0  0  0  0  0
   10.4175   16.1079   18.4746 N   0  0  0  0  0  0  0  0  0  0  0  0
   11.3526   15.1608   18.3507 N   0  0  0  0  0  0  0  0  0  0  0  0
   11.7846   14.5606   19.4795 N   0  0  0  0  0  0  0  0  0  0  0  0
   11.7126   14.9107   17.4692 H   0  0  0  0  0  0  0  0  0  0  0  0
    7.7288   16.0212   21.7621 O   0  0  0  0  0  0  0  0  0  0  0  0
    8.9259   16.0328   22.5636 N   0  0  0  0  0  0  0  0  0  0  0  0
    7.2871   16.8823   21.8282 H   0  0  0  0  0  0  0  0  0  0  0  0
    8.6855   16.2132   23.5383 H   0  0  0  0  0  0  0  0  0  0  0  0
 25 26  1  0  0  0
  1 26  1  0  0  0
  1  2  1  0  0  0
  2  8  1  0  0  0
  8  9  1  0  0  0
  8 10  1  0  0  0
 10 11  1  0  0  0
 11 12  1  0  0  0
 12 13  2  0  0  0
 13 14  1  0  0  0
 14 15  2  0  0  0
 15 16  1  0  0  0
 16 17  2  0  0  0
  2  3  1  0  0  0
  3  4  1  0  0  0
  4  5  1  0  0  0
  5  6  1  0  0  0
  5 19  1  0  0  0
 19 20  1  0  0  0
 20 21  2  0  0  0
 21 22  1  0  0  0
 22 23  1  0  0  0
  5  1  1  0  0  0
 23 19  2  0  0  0
 17  8  1  0  0  0
 17 12  1  0  0  0
 25 27  1  0  0  0
 26 28  1  0  0  0
  9 18  1  0  0  0
  6  7  1  0  0  0
 22 24  1  0  0  0
M  END
> <minimizedAffinity>
-8.44298

> <minimizedRMSD>
0.29672

$$$$
P98089


 31 36  0  0  0  0  0  0  0  0999 V2000
    6.7752   14.6495   23.2008 O   0  0  0  0  0  0  0  0  0  0  0  0
    7.1184   14.1757   24.2798 C   0  0  0  0  0  0  0  0  0  0  0  0
    6.1750   13.2852   25.0998 C   0  0  0  0  0  0  0  0  0  0  0  0
    4.9484   13.8564   25.7845 C   0  0  0  0  0  0  0  0  0  0  0  0
    4.6724   13.1573   27.1337 C   0  0  0  0  0  0  0  0  0  0  0  0
    5.1439   11.6879   27.1935 C   0  0  0  0  0  0  0  0  0  0  0  0
    6.6115   11.4604   26.7648 C   0  0  0  0  0  0  0  0  0  0  0  0
    6.8273   10.2453   25.8729 C   0  0  0  0  0  0  0  0  0  0  0  0
    8.1339   10.2239   25.0802 C   0  0  0  0  0  0  0  0  0  0  0  0
    8.4654   11.5264   24.3549 C   0  0  0  0  0  0  0  0  0  0  0  0
    8.4703   12.6773   25.3701 C   0  0  0  0  0  0  0  0  0  0  0  0
    7.1475   12.7132   26.1344 C   0  0  0  0  0  0  0  0  0  0  0  0
    8.5491   14.1525   24.8751 C   0  0  0  0  0  0  0  0  0  0  0  0
    9.7113   14.2786   23.9841 N   0  0  0  0  0  0  0  0  0  0  0  0
   10.8277   15.1675   24.2992 C   0  0  0  0  0  0  0  0  0  0  0  0
   11.4694   15.5829   22.9791 C   0  0  0  0  0  0  0  0  0  0  0  0
   10.8924   14.5987   21.9953 C   0  0  0  0  0  0  0  0  0  0  0  0
   11.7007   13.4250   22.0471 O   0  0  0  0  0  0  0  0  0  0  0  0
    9.4821   14.3616   22.5511 C   0  0  0  0  0  0  0  0  0  0  0  0
   12.5796   13.6216   21.6869 H   0  0  0  0  0  0  0  0  0  0  0  0
   10.8858   15.0767   20.6146 C   0  0  0  0  0  0  0  0  0  0  0  0
   10.1520   16.0366   19.9614 C   0  0  0  0  0  0  0  0  0  0  0  0
   10.4505   16.0062   18.6392 N   0  0  0  0  0  0  0  0  0  0  0  0
   11.3990   15.0978   18.4589 N   0  0  0  0  0  0  0  0  0  0  0  0
   11.7215   14.6042   19.6523 N   0  0  0  0  0  0  0  0  0  0  0  0
   12.4656   13.9806   19.8161 H   0  0  0  0  0  0  0  0  0  0  0  0
    8.6455   15.0527   26.0754 N   0  0  0  0  0  0  0  0  0  0  0  0
    9.4125   14.8574   27.2129 C   0  0  0  0  0  0  0  0  0  0  0  0
    8.9681   15.7454   28.1625 C   0  0  0  0  0  0  0  0  0  0  0  0
    7.9101   16.4240   27.5410 C   0  0  0  0  0  0  0  0  0  0  0  0
    7.7166   16.0221   26.2832 N   0  0  0  0  0  0  0  0  0  0  0  0
  1  2  2  0  0  0
  2  3  1  0  0  0
  3  4  1  0  0  0
  4  5  1  0  0  0
  5  6  1  0  0  0
  7  6  1  0  0  0
  7  8  1  0  0  0
  8  9  1  0  0  0
  9 10  1  0  0  0
 11 10  1  0  0  0
 11 12  1  0  0  0
 11 13  1  0  0  0
 13 14  1  0  0  0
 14 15  1  0  0  0
 15 16  1  0  0  0
 16 17  1  0  0  0
 17 18  1  0  0  0
 17 21  1  0  0  0
 21 22  2  0  0  0
 22 23  1  0  0  0
 23 24  2  0  0  0
 24 25  1  0  0  0
 17 19  1  0  0  0
 13 27  1  0  0  0
 27 28  1  0  0  0
 28 29  2  0  0  0
 29 30  1  0  0  0
 30 31  2  0  0  0
 13  2  1  0  0  0
 19 14  1  0  0  0
 31 27  1  0  0  0
 12  3  1  0  0  0
 25 21  1  0  0  0
 12  7  1  0  0  0
 18 20  1  0  0  0
 25 26  1  0  0  0
M  END
> <minimizedAffinity>
-8.31574

> <minimizedRMSD>
0.31267

$$$$
P98094


 28 31  0  0  0  0  0  0  0  0999 V2000
    8.9289   14.9299   25.2015 C   0  0  0  0  0  0  0  0  0  0  0  0
    9.5578   14.1238   26.1876 O   0  0  0  0  0  0  0  0  0  0  0  0
    9.9207   13.3268   25.7704 H   0  0  0  0  0  0  0  0  0  0  0  0
    5.4421   12.3144   26.9139 C   0  0  0  0  0  0  0  0  0  0  0  0
    5.5852   10.9537   27.1003 C   0  0  0  0  0  0  0  0  0  0  0  0
    6.6179   10.1745   26.5281 C   0  0  0  0  0  0  0  0  0  0  0  0
    7.4594   10.6972   25.5982 C   0  0  0  0  0  0  0  0  0  0  0  0
    7.2596   12.0196   25.3362 C   0  0  0  0  0  0  0  0  0  0  0  0
    6.3298   12.8208   26.0015 C   0  0  0  0  0  0  0  0  0  0  0  0
    6.5630   14.1899   25.5594 C   0  0  0  0  0  0  0  0  0  0  0  0
    5.9332   15.1662   25.9217 O   0  0  0  0  0  0  0  0  0  0  0  0
    7.7254   14.2150   24.6033 C   0  0  0  0  0  0  0  0  0  0  0  0
    8.0325   12.7501   24.3359 C   0  0  0  0  0  0  0  0  0  0  0  0
    2.9879   12.2854   28.4273 C   0  0  0  0  0  0  0  0  0  0  0  0
    4.3091   13.3437   27.8104 S   0  0  0  0  0  0  0  0  0  0  0  0
    9.9087   15.3948   24.2415 N   0  0  0  0  0  0  0  0  0  0  0  0
   11.2995   14.9809   24.3821 C   0  0  0  0  0  0  0  0  0  0  0  0
   11.9139   15.3467   23.0278 C   0  0  0  0  0  0  0  0  0  0  0  0
   10.8436   14.8416   22.1006 C   0  0  0  0  0  0  0  0  0  0  0  0
   10.9548   13.4165   22.1475 O   0  0  0  0  0  0  0  0  0  0  0  0
    9.5940   15.4181   22.8062 C   0  0  0  0  0  0  0  0  0  0  0  0
   11.7611   13.1397   21.6846 H   0  0  0  0  0  0  0  0  0  0  0  0
   10.8987   15.1880   20.6846 C   0  0  0  0  0  0  0  0  0  0  0  0
   10.1434   16.0198   19.8943 C   0  0  0  0  0  0  0  0  0  0  0  0
   10.4311   15.7838   18.5927 N   0  0  0  0  0  0  0  0  0  0  0  0
   11.3826   14.8626   18.5465 N   0  0  0  0  0  0  0  0  0  0  0  0
   11.7419   14.5856   19.7993 N   0  0  0  0  0  0  0  0  0  0  0  0
   12.5102   14.0235   20.0507 H   0  0  0  0  0  0  0  0  0  0  0  0
 14 15  1  0  0  0
 15  4  1  0  0  0
  4  5  2  0  0  0
  5  6  1  0  0  0
  6  7  2  0  0  0
  7  8  1  0  0  0
  8  9  2  0  0  0
  9 10  1  0  0  0
 10 11  2  0  0  0
 10 12  1  0  0  0
 12  1  1  0  0  0
  1  2  1  0  0  0
  1 16  1  0  0  0
 16 17  1  0  0  0
 17 18  1  0  0  0
 18 19  1  0  0  0
 19 20  1  0  0  0
 19 23  1  0  0  0
 23 24  2  0  0  0
 24 25  1  0  0  0
 25 26  2  0  0  0
 26 27  1  0  0  0
 19 21  1  0  0  0
 12 13  1  0  0  0
  9  4  1  0  0  0
 21 16  1  0  0  0
 13  8  1  0  0  0
 27 23  1  0  0  0
  2  3  1  0  0  0
 20 22  1  0  0  0
 27 28  1  0  0  0
M  END
> <minimizedAffinity>
-7.48314

> <minimizedRMSD>
1.49358

$$$$
P98099


 29 33  0  0  0  0  0  0  0  0999 V2000
    8.4002   11.3271   24.6817 C   0  0  0  0  0  0  0  0  0  0  0  0
    7.5518   10.3542   25.4804 C   0  0  0  0  0  0  0  0  0  0  0  0
    6.6565   11.2485   26.3211 C   0  0  0  0  0  0  0  0  0  0  0  0
    6.3901   12.5014   25.4744 C   0  0  0  0  0  0  0  0  0  0  0  0
    6.3886   13.7764   26.3070 C   0  0  0  0  0  0  0  0  0  0  0  0
    7.7337   14.2772   26.8675 C   0  0  0  0  0  0  0  0  0  0  0  0
    8.9265   14.2894   25.9976 N   0  0  0  0  0  0  0  0  0  0  0  0
    8.6406   14.7238   24.6698 C   0  0  0  0  0  0  0  0  0  0  0  0
    7.7683   15.8173   24.7092 O   0  0  0  0  0  0  0  0  0  0  0  0
    8.0286   13.6864   23.7740 C   0  0  0  0  0  0  0  0  0  0  0  0
    8.6331   13.7062   22.5640 C   0  0  0  0  0  0  0  0  0  0  0  0
   10.0185   14.1143   22.8872 C   0  0  0  0  0  0  0  0  0  0  0  0
    9.7943   15.1345   23.9163 N   0  0  0  0  0  0  0  0  0  0  0  0
   11.1229   15.3802   24.3919 C   0  0  0  0  0  0  0  0  0  0  0  0
   11.8442   15.6124   23.0395 C   0  0  0  0  0  0  0  0  0  0  0  0
   11.1852   14.6372   22.0502 C   0  0  0  0  0  0  0  0  0  0  0  0
   12.1547   13.6056   21.8360 O   0  0  0  0  0  0  0  0  0  0  0  0
    7.3643   12.4338   24.2795 C   0  0  0  0  0  0  0  0  0  0  0  0
    9.3085   13.3446   25.9558 H   0  0  0  0  0  0  0  0  0  0  0  0
    6.9735   15.5789   25.2114 H   0  0  0  0  0  0  0  0  0  0  0  0
   12.8865   13.9551   21.3039 H   0  0  0  0  0  0  0  0  0  0  0  0
   10.8604   15.1768   20.7212 C   0  0  0  0  0  0  0  0  0  0  0  0
   10.0358   16.1673   20.2471 C   0  0  0  0  0  0  0  0  0  0  0  0
   10.1970   16.2802   18.8944 N   0  0  0  0  0  0  0  0  0  0  0  0
   11.0604   15.3578   18.5001 N   0  0  0  0  0  0  0  0  0  0  0  0
   11.4131   14.6613   19.5811 N   0  0  0  0  0  0  0  0  0  0  0  0
   12.0003   13.8714   19.5611 H   0  0  0  0  0  0  0  0  0  0  0  0
    9.8327    9.0415   23.6580 C   0  0  0  0  0  0  0  0  0  0  0  0
    9.2986   10.6812   23.2217 S   0  0  0  0  0  0  0  0  0  0  0  0
 28 29  1  0  0  0
  1 29  1  0  0  0
  1  2  1  0  0  0
  2  3  1  0  0  0
  4  3  1  0  0  0
  4  5  1  0  0  0
  5  6  1  0  0  0
  6  7  1  0  0  0
  7  8  1  0  0  0
  8  9  1  0  0  0
  8 10  1  0  0  0
 10 11  2  0  0  0
 12 11  1  0  0  0
 12 13  1  0  0  0
 13 14  1  0  0  0
 14 15  1  0  0  0
 15 16  1  0  0  0
 16 17  1  0  0  0
 16 22  1  0  0  0
 22 23  2  0  0  0
 23 24  1  0  0  0
 24 25  2  0  0  0
 25 26  1  0  0  0
 18 10  1  0  0  0
 18  1  1  0  0  0
 18  4  1  0  0  0
 13  8  1  0  0  0
 26 22  1  0  0  0
 16 12  1  0  0  0
  7 19  1  0  0  0
  9 20  1  0  0  0
 17 21  1  0  0  0
 26 27  1  0  0  0
M  END
> <minimizedAffinity>
-7.97882

> <minimizedRMSD>
0.33789

$$$$
P98100


 28 30  0  0  0  0  0  0  0  0999 V2000
    8.5130   14.5976   24.9383 C   0  0  0  0  0  0  0  0  0  0  0  0
    8.7735   14.4434   26.3112 O   0  0  0  0  0  0  0  0  0  0  0  0
    8.1786   15.8973   24.7701 F   0  0  0  0  0  0  0  0  0  0  0  0
    7.9647   14.6223   26.8159 H   0  0  0  0  0  0  0  0  0  0  0  0
    9.7527   14.3182   24.2460 N   0  0  0  0  0  0  0  0  0  0  0  0
   10.9054   15.1282   24.6440 C   0  0  0  0  0  0  0  0  0  0  0  0
   11.6632   15.5027   23.3674 C   0  0  0  0  0  0  0  0  0  0  0  0
   11.0805   14.5855   22.3183 C   0  0  0  0  0  0  0  0  0  0  0  0
   11.7151   13.3103   22.4503 O   0  0  0  0  0  0  0  0  0  0  0  0
    9.6302   14.4810   22.7940 C   0  0  0  0  0  0  0  0  0  0  0  0
   12.6350   13.3742   22.1492 H   0  0  0  0  0  0  0  0  0  0  0  0
   11.1466   15.0880   20.9319 C   0  0  0  0  0  0  0  0  0  0  0  0
   10.2781   15.9400   20.2875 C   0  0  0  0  0  0  0  0  0  0  0  0
   10.6029   15.7582   18.9968 N   0  0  0  0  0  0  0  0  0  0  0  0
    9.7193   15.8968   17.9665 O   0  0  0  0  0  0  0  0  0  0  0  0
   11.6519   14.9662   18.8227 N   0  0  0  0  0  0  0  0  0  0  0  0
   12.0303   14.5637   20.0232 N   0  0  0  0  0  0  0  0  0  0  0  0
    9.0070   16.5000   18.2304 H   0  0  0  0  0  0  0  0  0  0  0  0
    7.3702   13.6729   24.4102 C   0  0  0  0  0  0  0  0  0  0  0  0
    6.7254   13.8152   23.3669 O   0  0  0  0  0  0  0  0  0  0  0  0
    7.7246   11.2758   24.9956 C   0  0  0  0  0  0  0  0  0  0  0  0
    7.3148   10.1839   25.7574 C   0  0  0  0  0  0  0  0  0  0  0  0
    6.3343   10.3173   26.7511 C   0  0  0  0  0  0  0  0  0  0  0  0
    5.7377   11.5492   26.9982 C   0  0  0  0  0  0  0  0  0  0  0  0
    6.0832   12.6404   26.2147 C   0  0  0  0  0  0  0  0  0  0  0  0
    7.0667   12.4935   25.2279 C   0  0  0  0  0  0  0  0  0  0  0  0
    9.4159    9.4442   23.5906 C   0  0  0  0  0  0  0  0  0  0  0  0
    9.0742   11.1933   23.8295 S   0  0  0  0  0  0  0  0  0  0  0  0
 27 28  1  0  0  0
 28 21  1  0  0  0
 21 22  2  0  0  0
 22 23  1  0  0  0
 23 24  2  0  0  0
 24 25  1  0  0  0
 25 26  2  0  0  0
 26 19  1  0  0  0
 19 20  2  0  0  0
 19  1  1  0  0  0
  1  2  1  0  0  0
  1  3  1  0  0  0
  1  5  1  0  0  0
  5  6  1  0  0  0
  6  7  1  0  0  0
  7  8  1  0  0  0
  8  9  1  0  0  0
  8 12  1  0  0  0
 12 13  2  0  0  0
 13 14  1  0  0  0
 14 15  1  0  0  0
 14 16  1  0  0  0
 16 17  2  0  0  0
  8 10  1  0  0  0
 26 21  1  0  0  0
 10  5  1  0  0  0
 17 12  1  0  0  0
  2  4  1  0  0  0
  9 11  1  0  0  0
 15 18  1  0  0  0
M  END
> <minimizedAffinity>
-7.60979

> <minimizedRMSD>
0.39081

$$$$
P98101


 26 29  0  0  0  0  0  0  0  0999 V2000
    7.9114   14.0520   24.4944 C   0  0  0  0  0  0  0  0  0  0  0  0
    8.3150   14.0872   23.0293 C   0  0  0  0  0  0  0  0  0  0  0  0
    7.6673   13.5774   22.1183 O   0  0  0  0  0  0  0  0  0  0  0  0
    9.4965   15.0371   22.8570 C   0  0  0  0  0  0  0  0  0  0  0  0
    9.9386   15.1597   24.2403 N   0  0  0  0  0  0  0  0  0  0  0  0
   11.3709   15.1515   24.3606 C   0  0  0  0  0  0  0  0  0  0  0  0
   11.8529   15.4036   22.9386 C   0  0  0  0  0  0  0  0  0  0  0  0
   10.7816   14.6809   22.1077 C   0  0  0  0  0  0  0  0  0  0  0  0
   11.0654   13.2974   22.1990 O   0  0  0  0  0  0  0  0  0  0  0  0
    9.1312   14.5902   25.1962 C   0  0  0  0  0  0  0  0  0  0  0  0
    9.3880   14.5457   26.3883 O   0  0  0  0  0  0  0  0  0  0  0  0
   11.8836   13.1025   21.7157 H   0  0  0  0  0  0  0  0  0  0  0  0
    7.9822   11.4886   24.9362 C   0  0  0  0  0  0  0  0  0  0  0  0
    7.4297   10.4050   25.6318 C   0  0  0  0  0  0  0  0  0  0  0  0
    6.3617   10.5689   26.5164 C   0  0  0  0  0  0  0  0  0  0  0  0
    5.8258   11.8257   26.7285 C   0  0  0  0  0  0  0  0  0  0  0  0
    6.3353   12.9080   26.0241 C   0  0  0  0  0  0  0  0  0  0  0  0
    7.4063   12.7634   25.1122 C   0  0  0  0  0  0  0  0  0  0  0  0
    9.5010    9.5369   23.5031 C   0  0  0  0  0  0  0  0  0  0  0  0
    9.4494   11.2874   23.9447 S   0  0  0  0  0  0  0  0  0  0  0  0
   10.7778   15.1017   20.6979 C   0  0  0  0  0  0  0  0  0  0  0  0
   10.0857   16.0646   19.9986 C   0  0  0  0  0  0  0  0  0  0  0  0
   10.4617   16.0376   18.6898 N   0  0  0  0  0  0  0  0  0  0  0  0
   11.3778   15.0933   18.5482 N   0  0  0  0  0  0  0  0  0  0  0  0
   11.5326   14.5092   19.7334 N   0  0  0  0  0  0  0  0  0  0  0  0
   12.1240   13.7387   19.8938 H   0  0  0  0  0  0  0  0  0  0  0  0
 19 20  1  0  0  0
 20 13  1  0  0  0
 13 14  2  0  0  0
 14 15  1  0  0  0
 15 16  2  0  0  0
 16 17  1  0  0  0
 17 18  2  0  0  0
  1 18  1  0  0  0
  1  2  1  0  0  0
  2  3  2  0  0  0
  4  2  1  0  0  0
  4  5  1  0  0  0
  5  6  1  0  0  0
  6  7  1  0  0  0
  7  8  1  0  0  0
  8  9  1  0  0  0
  8 21  1  0  0  0
 21 22  2  0  0  0
 22 23  1  0  0  0
 23 24  2  0  0  0
 24 25  1  0  0  0
  5 10  1  0  0  0
 10 11  2  0  0  0
 18 13  1  0  0  0
 10  1  1  0  0  0
  8  4  1  0  0  0
 25 21  1  0  0  0
  9 12  1  0  0  0
 25 26  1  0  0  0
M  END
> <minimizedAffinity>
-8.79451

> <minimizedRMSD>
0.25430

$$$$
P98102


 29 31  0  0  0  0  0  0  0  0999 V2000
    9.7622   15.0835   23.9044 N   0  0  0  0  0  0  0  0  0  0  0  0
   11.1812   15.2213   24.2257 C   0  0  0  0  0  0  0  0  0  0  0  0
   11.7614   15.6740   22.8991 C   0  0  0  0  0  0  0  0  0  0  0  0
   11.0352   14.7886   21.8926 C   0  0  0  0  0  0  0  0  0  0  0  0
   11.8550   13.6545   21.6599 O   0  0  0  0  0  0  0  0  0  0  0  0
    9.7554   14.3567   22.6262 C   0  0  0  0  0  0  0  0  0  0  0  0
   12.6622   13.9285   21.1969 H   0  0  0  0  0  0  0  0  0  0  0  0
   10.7439   15.4647   20.6197 C   0  0  0  0  0  0  0  0  0  0  0  0
    9.9997   16.6176   20.5879 N   0  0  0  0  0  0  0  0  0  0  0  0
    9.8733   17.0794   19.3442 N   0  0  0  0  0  0  0  0  0  0  0  0
   10.4452   16.2116   18.5317 N   0  0  0  0  0  0  0  0  0  0  0  0
   10.9930   15.2420   19.2916 C   0  0  0  0  0  0  0  0  0  0  0  0
   11.6389   14.2038   18.7725 O   0  0  0  0  0  0  0  0  0  0  0  0
    9.6091   17.0483   21.3823 H   0  0  0  0  0  0  0  0  0  0  0  0
   11.7586   14.1425   17.8452 H   0  0  0  0  0  0  0  0  0  0  0  0
    9.0338   14.4307   24.9751 C   0  0  0  0  0  0  0  0  0  0  0  0
    8.6389   15.4285   25.8935 O   0  0  0  0  0  0  0  0  0  0  0  0
    9.8498   13.6090   25.6814 F   0  0  0  0  0  0  0  0  0  0  0  0
    8.1477   15.0200   26.6234 H   0  0  0  0  0  0  0  0  0  0  0  0
    7.7340   13.7613   24.4875 C   0  0  0  0  0  0  0  0  0  0  0  0
    6.9653   14.2013   23.6321 O   0  0  0  0  0  0  0  0  0  0  0  0
    7.9000   11.2908   24.8564 C   0  0  0  0  0  0  0  0  0  0  0  0
    7.4453   10.1839   25.5679 C   0  0  0  0  0  0  0  0  0  0  0  0
    6.4969   10.3159   26.5934 C   0  0  0  0  0  0  0  0  0  0  0  0
    5.9726   11.5612   26.9211 C   0  0  0  0  0  0  0  0  0  0  0  0
    6.3808   12.6768   26.2062 C   0  0  0  0  0  0  0  0  0  0  0  0
    7.3426   12.5353   25.1960 C   0  0  0  0  0  0  0  0  0  0  0  0
    9.6548    9.4977   23.4295 C   0  0  0  0  0  0  0  0  0  0  0  0
    9.1475   11.2052   23.5860 S   0  0  0  0  0  0  0  0  0  0  0  0
 28 29  1  0  0  0
 29 22  1  0  0  0
 22 23  2  0  0  0
 23 24  1  0  0  0
 24 25  2  0  0  0
 25 26  1  0  0  0
 26 27  2  0  0  0
 27 20  1  0  0  0
 20 21  2  0  0  0
 20 16  1  0  0  0
 16 17  1  0  0  0
 16 18  1  0  0  0
 16  1  1  0  0  0
  1  2  1  0  0  0
  2  3  1  0  0  0
  3  4  1  0  0  0
  4  5  1  0  0  0
  4  8  1  0  0  0
  8  9  1  0  0  0
  9 10  1  0  0  0
 10 11  2  0  0  0
 11 12  1  0  0  0
 12 13  1  0  0  0
  4  6  1  0  0  0
 27 22  1  0  0  0
  6  1  1  0  0  0
 12  8  2  0  0  0
 17 19  1  0  0  0
  5  7  1  0  0  0
  9 14  1  0  0  0
 13 15  1  0  0  0
M  END
> <minimizedAffinity>
-8.50501

> <minimizedRMSD>
0.28978

$$$$
P98103


 28 31  0  0  0  0  0  0  0  0999 V2000
    4.7281   14.5097   26.8377 C   0  0  0  0  0  0  0  0  0  0  0  0
    6.1793   14.2384   26.8265 N   0  0  0  0  0  0  0  0  0  0  0  0
    6.9896   15.3645   26.4169 N   0  0  0  0  0  0  0  0  0  0  0  0
    8.3943   15.0110   26.0800 C   0  0  0  0  0  0  0  0  0  0  0  0
    8.5293   14.6394   24.5647 C   0  0  0  0  0  0  0  0  0  0  0  0
    8.3103   15.8555   23.8693 O   0  0  0  0  0  0  0  0  0  0  0  0
    7.3724   13.6835   24.1817 C   0  0  0  0  0  0  0  0  0  0  0  0
    7.1395   12.6133   25.2007 C   0  0  0  0  0  0  0  0  0  0  0  0
    7.5886   11.3161   24.9462 C   0  0  0  0  0  0  0  0  0  0  0  0
    7.1938   10.2766   25.7740 C   0  0  0  0  0  0  0  0  0  0  0  0
    6.3761   10.5269   26.8682 C   0  0  0  0  0  0  0  0  0  0  0  0
    6.0424   11.8367   27.1940 C   0  0  0  0  0  0  0  0  0  0  0  0
    6.4431   12.9096   26.3828 C   0  0  0  0  0  0  0  0  0  0  0  0
    7.0038   16.0428   27.1786 H   0  0  0  0  0  0  0  0  0  0  0  0
    9.0180   16.4830   24.0845 H   0  0  0  0  0  0  0  0  0  0  0  0
    9.8253   14.0909   24.1226 N   0  0  0  0  0  0  0  0  0  0  0  0
   11.0054   14.9213   24.3975 C   0  0  0  0  0  0  0  0  0  0  0  0
   11.4658   15.5417   23.0867 C   0  0  0  0  0  0  0  0  0  0  0  0
   11.0723   14.5222   22.0456 C   0  0  0  0  0  0  0  0  0  0  0  0
   12.1006   13.5519   21.9131 O   0  0  0  0  0  0  0  0  0  0  0  0
    9.8267   13.8643   22.6459 C   0  0  0  0  0  0  0  0  0  0  0  0
   12.8902   13.9675   21.5328 H   0  0  0  0  0  0  0  0  0  0  0  0
   10.8719   15.1187   20.7089 C   0  0  0  0  0  0  0  0  0  0  0  0
   10.0766   16.1406   20.2427 C   0  0  0  0  0  0  0  0  0  0  0  0
   10.2006   16.2335   18.8887 N   0  0  0  0  0  0  0  0  0  0  0  0
   11.0891   15.3309   18.4991 N   0  0  0  0  0  0  0  0  0  0  0  0
   11.5578   14.7267   19.5950 N   0  0  0  0  0  0  0  0  0  0  0  0
   12.3017   14.0819   19.5988 H   0  0  0  0  0  0  0  0  0  0  0  0
  1  2  1  0  0  0
  2  3  1  0  0  0
  3  4  1  0  0  0
  4  5  1  0  0  0
  5  6  1  0  0  0
  5 16  1  0  0  0
 16 17  1  0  0  0
 17 18  1  0  0  0
 18 19  1  0  0  0
 19 20  1  0  0  0
 19 23  1  0  0  0
 23 24  2  0  0  0
 24 25  1  0  0  0
 25 26  2  0  0  0
 26 27  1  0  0  0
 19 21  1  0  0  0
  5  7  1  0  0  0
  7  8  1  0  0  0
  8  9  2  0  0  0
  9 10  1  0  0  0
 10 11  2  0  0  0
 11 12  1  0  0  0
 12 13  2  0  0  0
 13  2  1  0  0  0
 21 16  1  0  0  0
 13  8  1  0  0  0
 27 23  1  0  0  0
  3 14  1  0  0  0
  6 15  1  0  0  0
 20 22  1  0  0  0
 27 28  1  0  0  0
M  END
> <minimizedAffinity>
-7.97940

> <minimizedRMSD>
0.22605

$$$$
P98116


 30 32  0  0  0  0  0  0  0  0999 V2000
    8.8225   14.5486   25.0841 C   0  0  0  0  0  0  0  0  0  0  0  0
    9.3415   13.9681   26.2418 O   0  0  0  0  0  0  0  0  0  0  0  0
    8.5232   15.8518   25.5029 O   0  0  0  0  0  0  0  0  0  0  0  0
    9.6259   13.0753   26.2314 H   0  0  0  0  0  0  0  0  0  0  0  0
    8.1525   16.4646   24.8987 H   0  0  0  0  0  0  0  0  0  0  0  0
    9.8987   14.5287   24.1341 N   0  0  0  0  0  0  0  0  0  0  0  0
   11.1073   15.3023   24.4392 C   0  0  0  0  0  0  0  0  0  0  0  0
   11.7317   15.6886   23.0895 C   0  0  0  0  0  0  0  0  0  0  0  0
   11.0158   14.7860   22.1215 C   0  0  0  0  0  0  0  0  0  0  0  0
   11.6779   13.5194   22.1727 O   0  0  0  0  0  0  0  0  0  0  0  0
    9.6051   14.7823   22.7322 C   0  0  0  0  0  0  0  0  0  0  0  0
   12.5576   13.5980   21.7716 H   0  0  0  0  0  0  0  0  0  0  0  0
   11.0125   15.1883   20.7197 C   0  0  0  0  0  0  0  0  0  0  0  0
   10.2726   16.0956   20.0042 C   0  0  0  0  0  0  0  0  0  0  0  0
   10.5298   15.9354   18.6820 N   0  0  0  0  0  0  0  0  0  0  0  0
   11.4631   15.0025   18.5579 N   0  0  0  0  0  0  0  0  0  0  0  0
   11.8118   14.6099   19.7801 N   0  0  0  0  0  0  0  0  0  0  0  0
   12.5473   13.9864   19.9787 H   0  0  0  0  0  0  0  0  0  0  0  0
    7.4849   13.8802   24.6414 C   0  0  0  0  0  0  0  0  0  0  0  0
    5.4266    9.8703   28.3440 C   0  0  0  0  0  0  0  0  0  0  0  0
    5.9241   10.8562   27.3261 C   0  0  0  0  0  0  0  0  0  0  0  0
    5.5080   12.1813   27.3869 C   0  0  0  0  0  0  0  0  0  0  0  0
    6.0005   13.1119   26.4772 C   0  0  0  0  0  0  0  0  0  0  0  0
    6.9509   12.7577   25.5025 C   0  0  0  0  0  0  0  0  0  0  0  0
    7.3559   11.4164   25.4231 C   0  0  0  0  0  0  0  0  0  0  0  0
    6.8278   10.4785   26.3219 C   0  0  0  0  0  0  0  0  0  0  0  0
    8.7660   10.9505   24.5110 S   0  0  0  0  0  0  0  0  0  0  0  0
    8.7946    9.2869   24.0200 C   0  0  0  0  0  0  0  0  0  0  0  0
    8.9669   11.6896   22.9782 C   0  0  0  0  0  0  0  0  0  0  0  0
    9.7074   11.3133   25.4230 H   0  0  0  0  0  0  0  0  0  0  0  0
 20 21  1  0  0  0
 21 22  2  0  0  0
 22 23  1  0  0  0
 23 24  2  0  0  0
 24 19  1  0  0  0
 19  1  1  0  0  0
  1  2  1  0  0  0
  1  3  1  0  0  0
  1  6  1  0  0  0
  6  7  1  0  0  0
  7  8  1  0  0  0
  8  9  1  0  0  0
  9 10  1  0  0  0
  9 13  1  0  0  0
 13 14  2  0  0  0
 14 15  1  0  0  0
 15 16  2  0  0  0
 16 17  1  0  0  0
  9 11  1  0  0  0
 24 25  1  0  0  0
 25 27  1  0  0  0
 27 28  1  0  0  0
 27 29  1  0  0  0
 25 26  2  0  0  0
 26 21  1  0  0  0
 11  6  1  0  0  0
 17 13  1  0  0  0
  2  4  1  0  0  0
  3  5  1  0  0  0
 10 12  1  0  0  0
 17 18  1  0  0  0
 27 30  1  0  0  0
M  END
> <minimizedAffinity>
-6.30696

> <minimizedRMSD>
0.35523

$$$$
P98135


 27 30  0  0  0  0  0  0  0  0999 V2000
    9.2752    9.6922   23.6907 C   0  0  0  0  0  0  0  0  0  0  0  0
    8.8618   11.1490   23.9426 C   0  0  0  0  0  0  0  0  0  0  0  0
   10.1431   11.9495   24.1406 C   0  0  0  0  0  0  0  0  0  0  0  0
   10.0651   13.1096   25.0975 C   0  0  0  0  0  0  0  0  0  0  0  0
    9.1930   14.2941   24.6976 C   0  0  0  0  0  0  0  0  0  0  0  0
    9.0841   15.1137   25.8646 O   0  0  0  0  0  0  0  0  0  0  0  0
    7.7401   13.8723   24.3231 C   0  0  0  0  0  0  0  0  0  0  0  0
    7.2329   12.7034   25.1473 C   0  0  0  0  0  0  0  0  0  0  0  0
    6.2321   12.9457   26.0993 C   0  0  0  0  0  0  0  0  0  0  0  0
    5.7461   11.9130   26.8875 C   0  0  0  0  0  0  0  0  0  0  0  0
    6.2582   10.6332   26.7301 C   0  0  0  0  0  0  0  0  0  0  0  0
    7.2716   10.3839   25.8013 C   0  0  0  0  0  0  0  0  0  0  0  0
    7.7787   11.4026   24.9897 C   0  0  0  0  0  0  0  0  0  0  0  0
    9.9679   15.4038   26.1395 H   0  0  0  0  0  0  0  0  0  0  0  0
    9.8025   15.1385   23.6898 N   0  0  0  0  0  0  0  0  0  0  0  0
   11.2185   15.4557   23.9102 C   0  0  0  0  0  0  0  0  0  0  0  0
   11.7550   15.8337   22.5487 C   0  0  0  0  0  0  0  0  0  0  0  0
   11.0636   14.8130   21.6803 C   0  0  0  0  0  0  0  0  0  0  0  0
   11.7687   13.5743   21.7705 O   0  0  0  0  0  0  0  0  0  0  0  0
    9.6621   14.7142   22.2943 C   0  0  0  0  0  0  0  0  0  0  0  0
   12.6482   13.6733   21.3737 H   0  0  0  0  0  0  0  0  0  0  0  0
   11.0338   15.1849   20.2781 C   0  0  0  0  0  0  0  0  0  0  0  0
   10.3697   16.1666   19.5913 C   0  0  0  0  0  0  0  0  0  0  0  0
   10.6111   16.0162   18.2716 N   0  0  0  0  0  0  0  0  0  0  0  0
   11.4768   15.0228   18.1272 N   0  0  0  0  0  0  0  0  0  0  0  0
   11.7939   14.5765   19.3338 N   0  0  0  0  0  0  0  0  0  0  0  0
   12.4838   13.8989   19.5188 H   0  0  0  0  0  0  0  0  0  0  0  0
  2  1  1  0  0  0
  2  3  1  0  0  0
  3  4  1  0  0  0
  4  5  1  0  0  0
  5  6  1  0  0  0
  5 15  1  0  0  0
 15 16  1  0  0  0
 16 17  1  0  0  0
 17 18  1  0  0  0
 18 19  1  0  0  0
 18 22  1  0  0  0
 22 23  2  0  0  0
 23 24  1  0  0  0
 24 25  2  0  0  0
 25 26  1  0  0  0
 18 20  1  0  0  0
  5  7  1  0  0  0
  7  8  1  0  0  0
  8  9  2  0  0  0
  9 10  1  0  0  0
 10 11  2  0  0  0
 11 12  1  0  0  0
 12 13  2  0  0  0
 13  2  1  0  0  0
 20 15  1  0  0  0
 13  8  1  0  0  0
 26 22  1  0  0  0
  6 14  1  0  0  0
 19 21  1  0  0  0
 26 27  1  0  0  0
M  END
> <minimizedAffinity>
-8.66726

> <minimizedRMSD>
0.27754

$$$$
P98170


 29 32  0  0  0  0  0  0  0  0999 V2000
    7.7665   11.2296   25.0295 C   0  0  0  0  0  0  0  0  0  0  0  0
    7.2810   10.2356   25.8653 C   0  0  0  0  0  0  0  0  0  0  0  0
    6.2191   10.4787   26.7384 C   0  0  0  0  0  0  0  0  0  0  0  0
    5.6467   11.7336   26.8100 C   0  0  0  0  0  0  0  0  0  0  0  0
    6.0806   12.7375   25.9541 C   0  0  0  0  0  0  0  0  0  0  0  0
    7.0825   12.4594   25.0124 C   0  0  0  0  0  0  0  0  0  0  0  0
    7.4209   13.4965   23.9773 C   0  0  0  0  0  0  0  0  0  0  0  0
    8.3632   14.6145   24.5240 C   0  0  0  0  0  0  0  0  0  0  0  0
    9.0750   14.1482   25.6575 O   0  0  0  0  0  0  0  0  0  0  0  0
    7.5445   15.7413   25.0011 N   0  0  0  0  0  0  0  0  0  0  0  0
    6.7123   16.3783   23.9668 C   0  0  0  0  0  0  0  0  0  0  0  0
    6.7310   15.4478   26.2015 C   0  0  0  0  0  0  0  0  0  0  0  0
    5.2895   14.3209   26.0878 S   0  0  0  0  0  0  0  0  0  0  0  0
    9.6361   13.3995   25.4014 H   0  0  0  0  0  0  0  0  0  0  0  0
    9.3653   15.1183   23.5670 N   0  0  0  0  0  0  0  0  0  0  0  0
   10.7291   15.3322   24.0763 C   0  0  0  0  0  0  0  0  0  0  0  0
   11.5478   15.6157   22.8241 C   0  0  0  0  0  0  0  0  0  0  0  0
   11.0066   14.5962   21.8481 C   0  0  0  0  0  0  0  0  0  0  0  0
   11.8294   13.4296   21.9225 O   0  0  0  0  0  0  0  0  0  0  0  0
    9.5903   14.2928   22.3673 C   0  0  0  0  0  0  0  0  0  0  0  0
   12.7171   13.6384   21.5918 H   0  0  0  0  0  0  0  0  0  0  0  0
   11.0107   15.0448   20.4548 C   0  0  0  0  0  0  0  0  0  0  0  0
   10.3187   16.0299   19.7937 C   0  0  0  0  0  0  0  0  0  0  0  0
   10.5726   15.9386   18.4634 N   0  0  0  0  0  0  0  0  0  0  0  0
   11.4606   14.9702   18.2845 N   0  0  0  0  0  0  0  0  0  0  0  0
   11.7850   14.4889   19.4835 N   0  0  0  0  0  0  0  0  0  0  0  0
   12.4900   13.8210   19.6452 H   0  0  0  0  0  0  0  0  0  0  0  0
    9.3134    9.3245   23.5573 C   0  0  0  0  0  0  0  0  0  0  0  0
    9.2772   11.0366   24.0846 S   0  0  0  0  0  0  0  0  0  0  0  0
 28 29  1  0  0  0
 29  1  1  0  0  0
  1  2  2  0  0  0
  2  3  1  0  0  0
  3  4  2  0  0  0
  4  5  1  0  0  0
  5  6  2  0  0  0
  6  7  1  0  0  0
  7  8  1  0  0  0
  8  9  1  0  0  0
  8 15  1  0  0  0
 15 16  1  0  0  0
 16 17  1  0  0  0
 17 18  1  0  0  0
 18 19  1  0  0  0
 18 22  1  0  0  0
 22 23  2  0  0  0
 23 24  1  0  0  0
 24 25  2  0  0  0
 25 26  1  0  0  0
 18 20  1  0  0  0
  8 10  1  0  0  0
 10 11  1  0  0  0
 10 12  1  0  0  0
 12 13  1  0  0  0
  6  1  1  0  0  0
 20 15  1  0  0  0
 13  5  1  0  0  0
 26 22  1  0  0  0
  9 14  1  0  0  0
 19 21  1  0  0  0
 26 27  1  0  0  0
M  END
> <minimizedAffinity>
-8.11985

> <minimizedRMSD>
0.32910

$$$$
P98172


 30 32  0  0  0  0  0  0  0  0999 V2000
    8.4880   14.5653   24.9207 C   0  0  0  0  0  0  0  0  0  0  0  0
    8.6899   14.4614   26.3078 O   0  0  0  0  0  0  0  0  0  0  0  0
    8.1299   15.8975   24.7149 O   0  0  0  0  0  0  0  0  0  0  0  0
    8.9421   13.6413   26.6844 H   0  0  0  0  0  0  0  0  0  0  0  0
    7.9436   16.2042   23.8493 H   0  0  0  0  0  0  0  0  0  0  0  0
    9.7215   14.2691   24.2425 N   0  0  0  0  0  0  0  0  0  0  0  0
    9.6100   14.3810   22.7776 C   0  0  0  0  0  0  0  0  0  0  0  0
   11.0413   14.5846   22.2821 C   0  0  0  0  0  0  0  0  0  0  0  0
   11.7612   13.3579   22.4036 O   0  0  0  0  0  0  0  0  0  0  0  0
   11.5613   15.5449   23.3194 C   0  0  0  0  0  0  0  0  0  0  0  0
   10.9124   15.0512   24.6208 C   0  0  0  0  0  0  0  0  0  0  0  0
   11.8495   14.1209   25.3941 C   0  0  0  0  0  0  0  0  0  0  0  0
   11.4384   12.7267   21.7416 H   0  0  0  0  0  0  0  0  0  0  0  0
   11.0746   15.0878   20.8952 C   0  0  0  0  0  0  0  0  0  0  0  0
   10.1872   15.9210   20.2528 C   0  0  0  0  0  0  0  0  0  0  0  0
   10.5292   15.7644   18.9622 N   0  0  0  0  0  0  0  0  0  0  0  0
    9.6523   15.8862   17.9236 O   0  0  0  0  0  0  0  0  0  0  0  0
   11.5924   14.9925   18.7880 N   0  0  0  0  0  0  0  0  0  0  0  0
   11.9732   14.5898   19.9859 N   0  0  0  0  0  0  0  0  0  0  0  0
    8.9254   16.4744   18.1814 H   0  0  0  0  0  0  0  0  0  0  0  0
    7.2789   13.7059   24.4834 C   0  0  0  0  0  0  0  0  0  0  0  0
    7.6967   11.2323   25.0389 C   0  0  0  0  0  0  0  0  0  0  0  0
    7.2568   10.1168   25.7509 C   0  0  0  0  0  0  0  0  0  0  0  0
    6.2858   10.2260   26.7561 C   0  0  0  0  0  0  0  0  0  0  0  0
    5.7642   11.4659   27.0823 C   0  0  0  0  0  0  0  0  0  0  0  0
    4.5764   11.6720   28.5256 Br  0  0  0  0  0  0  0  0  0  0  0  0
    6.1208   12.5725   26.3410 C   0  0  0  0  0  0  0  0  0  0  0  0
    7.0506   12.4566   25.2924 C   0  0  0  0  0  0  0  0  0  0  0  0
    9.4117    9.4458   23.5821 C   0  0  0  0  0  0  0  0  0  0  0  0
    9.0723   11.1783   23.9018 S   0  0  0  0  0  0  0  0  0  0  0  0
 29 30  1  0  0  0
 30 22  1  0  0  0
 22 23  2  0  0  0
 23 24  1  0  0  0
 24 25  2  0  0  0
 25 26  1  0  0  0
 25 27  1  0  0  0
 27 28  2  0  0  0
 28 21  1  0  0  0
 21  1  1  0  0  0
  1  2  1  0  0  0
  1  3  1  0  0  0
  1  6  1  0  0  0
  6  7  1  0  0  0
  7  8  1  0  0  0
  8  9  1  0  0  0
  8 14  1  0  0  0
 14 15  2  0  0  0
 15 16  1  0  0  0
 16 17  1  0  0  0
 16 18  1  0  0  0
 18 19  2  0  0  0
  8 10  1  0  0  0
 10 11  1  0  0  0
 11 12  1  0  0  0
 28 22  1  0  0  0
 11  6  1  0  0  0
 19 14  1  0  0  0
  2  4  1  0  0  0
  3  5  1  0  0  0
  9 13  1  0  0  0
 17 20  1  0  0  0
M  END
> <minimizedAffinity>
-7.62442

> <minimizedRMSD>
0.39374

$$$$
P98180


 29 32  0  0  0  0  0  0  0  0999 V2000
    9.1153   14.9613   25.2589 C   0  0  0  0  0  0  0  0  0  0  0  0
    9.4556   14.0481   26.2554 O   0  0  0  0  0  0  0  0  0  0  0  0
    9.2700   16.1577   25.9489 O   0  0  0  0  0  0  0  0  0  0  0  0
    9.4415   13.1291   26.0733 H   0  0  0  0  0  0  0  0  0  0  0  0
    9.1040   16.9725   25.5169 H   0  0  0  0  0  0  0  0  0  0  0  0
   11.3990   13.4373   22.1395 O   0  0  0  0  0  0  0  0  0  0  0  0
   11.0259   14.8189   22.0948 C   0  0  0  0  0  0  0  0  0  0  0  0
   11.9837   15.5668   22.9831 C   0  0  0  0  0  0  0  0  0  0  0  0
   11.4329   15.2870   24.3903 C   0  0  0  0  0  0  0  0  0  0  0  0
   10.0707   14.7914   24.2036 N   0  0  0  0  0  0  0  0  0  0  0  0
    9.7083   15.1002   22.8271 C   0  0  0  0  0  0  0  0  0  0  0  0
   12.2354   13.3127   21.6643 H   0  0  0  0  0  0  0  0  0  0  0  0
   10.9883   15.2033   20.6842 C   0  0  0  0  0  0  0  0  0  0  0  0
   10.2143   16.0871   19.9718 C   0  0  0  0  0  0  0  0  0  0  0  0
   10.4452   15.9194   18.6448 N   0  0  0  0  0  0  0  0  0  0  0  0
   11.3874   14.9964   18.5096 N   0  0  0  0  0  0  0  0  0  0  0  0
   11.7837   14.6380   19.7318 N   0  0  0  0  0  0  0  0  0  0  0  0
   12.5470   14.0455   19.9206 H   0  0  0  0  0  0  0  0  0  0  0  0
    7.6246   14.8494   24.8660 C   0  0  0  0  0  0  0  0  0  0  0  0
    6.8733   13.5780   25.2608 C   0  0  0  0  0  0  0  0  0  0  0  0
    6.5796   13.5403   26.7701 C   0  0  0  0  0  0  0  0  0  0  0  0
    5.6906   12.3681   27.1239 C   0  0  0  0  0  0  0  0  0  0  0  0
    6.2535   11.0433   26.6457 C   0  0  0  0  0  0  0  0  0  0  0  0
    7.4588   11.1419   25.6936 C   0  0  0  0  0  0  0  0  0  0  0  0
    7.6677    9.8027   25.0386 C   0  0  0  0  0  0  0  0  0  0  0  0
    9.0578    9.5339   23.9233 S   0  0  0  0  0  0  0  0  0  0  0  0
    9.2397   11.0975   23.1397 C   0  0  0  0  0  0  0  0  0  0  0  0
    8.7097   12.2988   23.8730 C   0  0  0  0  0  0  0  0  0  0  0  0
    7.3998   12.2464   24.6670 C   0  0  0  0  0  0  0  0  0  0  0  0
  7  6  1  0  0  0
  7 13  1  0  0  0
 13 14  2  0  0  0
 14 15  1  0  0  0
 15 16  2  0  0  0
 16 17  1  0  0  0
  7  8  1  0  0  0
  8  9  1  0  0  0
  9 10  1  0  0  0
 10  1  1  0  0  0
  1  2  1  0  0  0
  1  3  1  0  0  0
  1 19  1  0  0  0
 20 19  1  0  0  0
 20 21  1  0  0  0
 21 22  1  0  0  0
 22 23  1  0  0  0
 24 23  1  0  0  0
 24 25  1  0  0  0
 25 26  1  0  0  0
 26 27  1  0  0  0
 27 28  1  0  0  0
 29 28  1  0  0  0
 10 11  1  0  0  0
 11  7  1  0  0  0
 17 13  1  0  0  0
 29 20  1  0  0  0
 29 24  1  0  0  0
  6 12  1  0  0  0
 17 18  1  0  0  0
  2  4  1  0  0  0
  3  5  1  0  0  0
M  END
> <minimizedAffinity>
-6.81802

> <minimizedRMSD>
0.34252

$$$$
P98182


 36 39  0  0  0  0  0  0  0  0999 V2000
    7.5542   11.2970   25.2649 C   0  0  0  0  0  0  0  0  0  0  0  0
    7.1345   10.1876   25.9960 C   0  0  0  0  0  0  0  0  0  0  0  0
    6.1489   10.3067   26.9905 C   0  0  0  0  0  0  0  0  0  0  0  0
    5.5668   11.5464   27.2792 C   0  0  0  0  0  0  0  0  0  0  0  0
    5.9126   12.6522   26.5086 C   0  0  0  0  0  0  0  0  0  0  0  0
    6.8983   12.5156   25.5223 C   0  0  0  0  0  0  0  0  0  0  0  0
    4.5411   11.6384   28.3638 C   0  0  0  0  0  0  0  0  0  0  0  0
    4.6861   10.8964   29.2921 O   0  0  0  0  0  0  0  0  0  0  0  0
    3.5492   12.6491   28.1146 N   0  0  0  0  0  0  0  0  0  0  0  0
    3.7017   13.1784   27.2986 H   0  0  0  0  0  0  0  0  0  0  0  0
    2.4079   13.0075   28.8316 C   0  0  0  0  0  0  0  0  0  0  0  0
    2.1462   14.3604   29.0321 C   0  0  0  0  0  0  0  0  0  0  0  0
    1.0125   14.7078   29.7484 C   0  0  0  0  0  0  0  0  0  0  0  0
    0.1478   13.8107   30.2639 N   0  0  0  0  0  0  0  0  0  0  0  0
    0.4245   12.5069   30.0483 C   0  0  0  0  0  0  0  0  0  0  0  0
    1.5314   12.0593   29.3464 C   0  0  0  0  0  0  0  0  0  0  0  0
    9.2029    9.5363   23.6663 C   0  0  0  0  0  0  0  0  0  0  0  0
    8.8846   11.2580   24.0798 S   0  0  0  0  0  0  0  0  0  0  0  0
    7.1363   13.6884   24.6814 C   0  0  0  0  0  0  0  0  0  0  0  0
    6.4883   13.8676   23.6582 O   0  0  0  0  0  0  0  0  0  0  0  0
    8.1806   14.7003   25.1306 C   0  0  0  0  0  0  0  0  0  0  0  0
    7.8214   15.6205   25.8124 O   0  0  0  0  0  0  0  0  0  0  0  0
    9.4437   14.4125   24.5617 N   0  0  0  0  0  0  0  0  0  0  0  0
   10.7699   15.1020   24.7150 C   0  0  0  0  0  0  0  0  0  0  0  0
   11.7442   15.0323   23.5408 C   0  0  0  0  0  0  0  0  0  0  0  0
   10.8210   14.5648   22.4842 C   0  0  0  0  0  0  0  0  0  0  0  0
   10.9113   13.1395   22.4787 O   0  0  0  0  0  0  0  0  0  0  0  0
    9.5422   15.0066   23.1883 C   0  0  0  0  0  0  0  0  0  0  0  0
   11.7272   12.8690   22.0291 H   0  0  0  0  0  0  0  0  0  0  0  0
   10.9609   15.1180   21.1180 C   0  0  0  0  0  0  0  0  0  0  0  0
   10.0781   15.8871   20.3926 C   0  0  0  0  0  0  0  0  0  0  0  0
   10.5403   15.7734   19.1296 N   0  0  0  0  0  0  0  0  0  0  0  0
    9.7843   15.9814   18.0154 O   0  0  0  0  0  0  0  0  0  0  0  0
   11.6511   15.0515   19.0440 N   0  0  0  0  0  0  0  0  0  0  0  0
   11.9605   14.6794   20.2793 N   0  0  0  0  0  0  0  0  0  0  0  0
    9.0132   16.5235   18.2444 H   0  0  0  0  0  0  0  0  0  0  0  0
 17 18  1  0  0  0
 18  1  1  0  0  0
  1  2  2  0  0  0
  2  3  1  0  0  0
  3  4  2  0  0  0
  4  7  1  0  0  0
  7  8  2  0  0  0
  7  9  1  0  0  0
  9 11  1  0  0  0
 11 12  2  0  0  0
 12 13  1  0  0  0
 13 14  2  0  0  0
 14 15  1  0  0  0
 15 16  2  0  0  0
  4  5  1  0  0  0
  5  6  2  0  0  0
  6 19  1  0  0  0
 19 20  2  0  0  0
 19 21  1  0  0  0
 21 22  2  0  0  0
 21 23  1  0  0  0
 23 24  1  0  0  0
 24 25  1  0  0  0
 25 26  1  0  0  0
 26 27  1  0  0  0
 26 30  1  0  0  0
 30 31  2  0  0  0
 31 32  1  0  0  0
 32 33  1  0  0  0
 32 34  1  0  0  0
 34 35  2  0  0  0
 26 28  1  0  0  0
  6  1  1  0  0  0
 28 23  1  0  0  0
 16 11  1  0  0  0
 35 30  1  0  0  0
  9 10  1  0  0  0
 27 29  1  0  0  0
 33 36  1  0  0  0
M  END
> <minimizedAffinity>
-7.91477

> <minimizedRMSD>
1.19637

$$$$
P98183


 33 36  0  0  0  0  0  0  0  0999 V2000
    8.4180   14.6827   24.7425 C   0  0  0  0  0  0  0  0  0  0  0  0
    7.7977   15.8022   25.3251 O   0  0  0  0  0  0  0  0  0  0  0  0
    9.0644   14.0810   25.8167 O   0  0  0  0  0  0  0  0  0  0  0  0
    7.2879   16.3836   24.7959 H   0  0  0  0  0  0  0  0  0  0  0  0
    9.5610   13.2973   25.6854 H   0  0  0  0  0  0  0  0  0  0  0  0
    9.3848   15.1810   23.7890 N   0  0  0  0  0  0  0  0  0  0  0  0
   10.7585   15.2819   24.2980 C   0  0  0  0  0  0  0  0  0  0  0  0
   11.5747   15.5175   23.0404 C   0  0  0  0  0  0  0  0  0  0  0  0
   10.9484   14.5463   22.0590 C   0  0  0  0  0  0  0  0  0  0  0  0
   11.6669   13.3163   22.0946 O   0  0  0  0  0  0  0  0  0  0  0  0
    9.5256   14.3326   22.5909 C   0  0  0  0  0  0  0  0  0  0  0  0
   12.5655   13.4568   21.7574 H   0  0  0  0  0  0  0  0  0  0  0  0
   10.9803   15.0349   20.6790 C   0  0  0  0  0  0  0  0  0  0  0  0
   10.2697   16.0071   20.0185 C   0  0  0  0  0  0  0  0  0  0  0  0
   10.6141   15.9993   18.7056 N   0  0  0  0  0  0  0  0  0  0  0  0
   11.5687   15.0944   18.5423 N   0  0  0  0  0  0  0  0  0  0  0  0
   11.8373   14.5631   19.7336 N   0  0  0  0  0  0  0  0  0  0  0  0
   12.5589   13.9161   19.9068 H   0  0  0  0  0  0  0  0  0  0  0  0
    7.2770   13.8509   24.1032 C   0  0  0  0  0  0  0  0  0  0  0  0
    7.9037   11.5369   25.1879 C   0  0  0  0  0  0  0  0  0  0  0  0
    7.3093   10.2952   25.8273 C   0  0  0  0  0  0  0  0  0  0  0  0
    6.1914   10.5264   26.8473 C   0  0  0  0  0  0  0  0  0  0  0  0
    5.7892   11.9814   27.1533 C   0  0  0  0  0  0  0  0  0  0  0  0
    4.4418   12.0199   27.8867 C   0  0  0  0  0  0  0  0  0  0  0  0
    4.8237   11.8803   29.3380 C   0  0  0  0  0  0  0  0  0  0  0  0
    6.0350   12.6834   29.4132 N   0  0  0  0  0  0  0  0  0  0  0  0
    6.7260   12.5519   28.1436 N   0  0  0  0  0  0  0  0  0  0  0  0
    5.7462   12.8495   25.8910 C   0  0  0  0  0  0  0  0  0  0  0  0
    6.8062   12.5580   24.8149 C   0  0  0  0  0  0  0  0  0  0  0  0
    6.6299   12.3461   30.1699 H   0  0  0  0  0  0  0  0  0  0  0  0
    7.5296   11.9332   28.2524 H   0  0  0  0  0  0  0  0  0  0  0  0
    9.4040    9.5366   23.6692 C   0  0  0  0  0  0  0  0  0  0  0  0
    8.9547   11.2655   23.6833 S   0  0  0  0  0  0  0  0  0  0  0  0
 32 33  1  0  0  0
 20 33  1  0  0  0
 20 21  1  0  0  0
 21 22  1  0  0  0
 23 22  1  0  0  0
 23 24  1  0  0  0
 24 25  1  0  0  0
 25 26  1  0  0  0
 26 27  1  0  0  0
 23 28  1  0  0  0
 28 29  1  0  0  0
 29 19  1  0  0  0
 19  1  1  0  0  0
  1  2  1  0  0  0
  1  3  1  0  0  0
  1  6  1  0  0  0
  6  7  1  0  0  0
  7  8  1  0  0  0
  8  9  1  0  0  0
  9 10  1  0  0  0
  9 13  1  0  0  0
 13 14  2  0  0  0
 14 15  1  0  0  0
 15 16  2  0  0  0
 16 17  1  0  0  0
  9 11  1  0  0  0
 29 20  1  0  0  0
 11  6  1  0  0  0
 27 23  1  0  0  0
 17 13  1  0  0  0
 26 30  1  0  0  0
 27 31  1  0  0  0
  2  4  1  0  0  0
  3  5  1  0  0  0
 10 12  1  0  0  0
 17 18  1  0  0  0
M  END
> <minimizedAffinity>
-7.40219

> <minimizedRMSD>
0.44077

$$$$
P98184


 28 30  0  0  0  0  0  0  0  0999 V2000
    8.5691   14.6952   24.9179 C   0  0  0  0  0  0  0  0  0  0  0  0
    8.8876   14.5635   26.2834 O   0  0  0  0  0  0  0  0  0  0  0  0
    8.2624   16.0475   24.7430 O   0  0  0  0  0  0  0  0  0  0  0  0
    9.1284   13.7268   26.6298 H   0  0  0  0  0  0  0  0  0  0  0  0
    8.0177   16.3667   23.8967 H   0  0  0  0  0  0  0  0  0  0  0  0
    9.7518   14.3602   24.1474 N   0  0  0  0  0  0  0  0  0  0  0  0
   10.9448   15.1893   24.4148 C   0  0  0  0  0  0  0  0  0  0  0  0
   11.5917   15.5546   23.0778 C   0  0  0  0  0  0  0  0  0  0  0  0
   10.9465   14.6044   22.1031 C   0  0  0  0  0  0  0  0  0  0  0  0
   11.6822   13.3842   22.1435 O   0  0  0  0  0  0  0  0  0  0  0  0
    9.5385   14.4567   22.6913 C   0  0  0  0  0  0  0  0  0  0  0  0
   12.5631   13.5250   21.7626 H   0  0  0  0  0  0  0  0  0  0  0  0
   10.9405   15.0689   20.7086 C   0  0  0  0  0  0  0  0  0  0  0  0
   10.1918   16.0024   20.0311 C   0  0  0  0  0  0  0  0  0  0  0  0
   10.4853   15.9435   18.7049 N   0  0  0  0  0  0  0  0  0  0  0  0
   11.4439   15.0421   18.5413 N   0  0  0  0  0  0  0  0  0  0  0  0
   11.7787   14.5828   19.7492 N   0  0  0  0  0  0  0  0  0  0  0  0
   12.5317   13.9733   19.9243 H   0  0  0  0  0  0  0  0  0  0  0  0
    7.2442   13.9509   24.6024 C   0  0  0  0  0  0  0  0  0  0  0  0
    7.4791   11.5532   25.4320 C   0  0  0  0  0  0  0  0  0  0  0  0
    6.9790   10.5198   26.2272 C   0  0  0  0  0  0  0  0  0  0  0  0
    5.9524   10.7425   27.1494 C   0  0  0  0  0  0  0  0  0  0  0  0
    5.4125   12.0097   27.2971 C   0  0  0  0  0  0  0  0  0  0  0  0
    5.8655   13.0390   26.4833 C   0  0  0  0  0  0  0  0  0  0  0  0
    6.8750   12.8141   25.5279 C   0  0  0  0  0  0  0  0  0  0  0  0
    8.7155   11.3192   24.1805 S   0  0  0  0  0  0  0  0  0  0  0  0
   10.0351    9.2414   23.0909 C   0  0  0  0  0  0  0  0  0  0  0  0
    8.8807    9.5660   23.9663 C   0  0  0  0  0  0  0  0  0  0  0  0
 27 28  1  0  0  0
 28 26  1  0  0  0
 26 20  1  0  0  0
 20 21  2  0  0  0
 21 22  1  0  0  0
 22 23  2  0  0  0
 23 24  1  0  0  0
 24 25  2  0  0  0
 25 19  1  0  0  0
 19  1  1  0  0  0
  1  2  1  0  0  0
  1  3  1  0  0  0
  1  6  1  0  0  0
  6  7  1  0  0  0
  7  8  1  0  0  0
  8  9  1  0  0  0
  9 10  1  0  0  0
  9 13  1  0  0  0
 13 14  2  0  0  0
 14 15  1  0  0  0
 15 16  2  0  0  0
 16 17  1  0  0  0
  9 11  1  0  0  0
 25 20  1  0  0  0
 11  6  1  0  0  0
 17 13  1  0  0  0
  2  4  1  0  0  0
  3  5  1  0  0  0
 10 12  1  0  0  0
 17 18  1  0  0  0
M  END
> <minimizedAffinity>
-6.51903

> <minimizedRMSD>
0.38273

$$$$
P98187


 30 33  0  0  0  0  0  0  0  0999 V2000
    8.3510   14.4382   24.4189 C   0  0  0  0  0  0  0  0  0  0  0  0
    8.4815   14.7085   25.7966 O   0  0  0  0  0  0  0  0  0  0  0  0
    7.8513   15.6248   23.8572 O   0  0  0  0  0  0  0  0  0  0  0  0
    8.8036   14.0460   26.3756 H   0  0  0  0  0  0  0  0  0  0  0  0
    7.6851   15.6735   22.9364 H   0  0  0  0  0  0  0  0  0  0  0  0
    9.6516   14.1400   23.8733 N   0  0  0  0  0  0  0  0  0  0  0  0
   10.7588   15.0185   24.2600 C   0  0  0  0  0  0  0  0  0  0  0  0
   11.3298   15.5862   22.9653 C   0  0  0  0  0  0  0  0  0  0  0  0
   11.0306   14.5030   21.9575 C   0  0  0  0  0  0  0  0  0  0  0  0
   12.0234   13.4945   22.0613 O   0  0  0  0  0  0  0  0  0  0  0  0
    9.6766   13.9740   22.4173 C   0  0  0  0  0  0  0  0  0  0  0  0
   12.8764   13.8488   21.7650 H   0  0  0  0  0  0  0  0  0  0  0  0
   11.0088   14.9615   20.5661 C   0  0  0  0  0  0  0  0  0  0  0  0
   10.3055   15.9423   19.9063 C   0  0  0  0  0  0  0  0  0  0  0  0
   10.5482   15.8501   18.5741 N   0  0  0  0  0  0  0  0  0  0  0  0
   11.4338   14.8823   18.3902 N   0  0  0  0  0  0  0  0  0  0  0  0
   11.7753   14.4071   19.5864 N   0  0  0  0  0  0  0  0  0  0  0  0
   12.4863   13.7440   19.7416 H   0  0  0  0  0  0  0  0  0  0  0  0
    7.2719   13.3635   24.0853 C   0  0  0  0  0  0  0  0  0  0  0  0
    8.5086   10.6360   24.4418 C   0  0  0  0  0  0  0  0  0  0  0  0
    7.4040   11.1472   25.3338 C   0  0  0  0  0  0  0  0  0  0  0  0
    6.9103   10.3022   26.3295 C   0  0  0  0  0  0  0  0  0  0  0  0
    5.9397   10.7181   27.2476 C   0  0  0  0  0  0  0  0  0  0  0  0
    5.4319   12.0205   27.1580 C   0  0  0  0  0  0  0  0  0  0  0  0
    4.4829   12.7652   27.9081 C   0  0  0  0  0  0  0  0  0  0  0  0
    4.3358   13.9895   27.3007 C   0  0  0  0  0  0  0  0  0  0  0  0
    5.1701   14.0213   26.2177 N   0  0  0  0  0  0  0  0  0  0  0  0
    5.8776   12.8377   26.1246 C   0  0  0  0  0  0  0  0  0  0  0  0
    6.8590   12.4397   25.1913 C   0  0  0  0  0  0  0  0  0  0  0  0
    5.2546   14.7784   25.5941 H   0  0  0  0  0  0  0  0  0  0  0  0
 20 21  1  0  0  0
 21 22  2  0  0  0
 22 23  1  0  0  0
 23 24  2  0  0  0
 24 25  1  0  0  0
 25 26  2  0  0  0
 26 27  1  0  0  0
 27 28  1  0  0  0
 28 29  2  0  0  0
 29 19  1  0  0  0
 19  1  1  0  0  0
  1  2  1  0  0  0
  1  3  1  0  0  0
  1  6  1  0  0  0
  6  7  1  0  0  0
  7  8  1  0  0  0
  8  9  1  0  0  0
  9 10  1  0  0  0
  9 13  1  0  0  0
 13 14  2  0  0  0
 14 15  1  0  0  0
 15 16  2  0  0  0
 16 17  1  0  0  0
  9 11  1  0  0  0
 29 21  1  0  0  0
 11  6  1  0  0  0
 28 24  1  0  0  0
 17 13  1  0  0  0
 27 30  1  0  0  0
  2  4  1  0  0  0
  3  5  1  0  0  0
 10 12  1  0  0  0
 17 18  1  0  0  0
M  END
> <minimizedAffinity>
-7.86375

> <minimizedRMSD>
0.50001

$$$$
P98189


 32 35  0  0  0  0  0  0  0  0999 V2000
    8.7249   14.8399   24.4581 C   0  0  0  0  0  0  0  0  0  0  0  0
    8.8566   15.3522   25.7670 O   0  0  0  0  0  0  0  0  0  0  0  0
    8.3868   15.9429   23.6542 O   0  0  0  0  0  0  0  0  0  0  0  0
    9.0818   14.7796   26.4738 H   0  0  0  0  0  0  0  0  0  0  0  0
    8.2498   15.8279   22.7344 H   0  0  0  0  0  0  0  0  0  0  0  0
    9.9492   14.2260   24.0103 N   0  0  0  0  0  0  0  0  0  0  0  0
   11.1982   14.9398   24.2756 C   0  0  0  0  0  0  0  0  0  0  0  0
   11.6172   15.6146   22.9812 C   0  0  0  0  0  0  0  0  0  0  0  0
   11.1112   14.6710   21.9136 C   0  0  0  0  0  0  0  0  0  0  0  0
   12.1215   13.7176   21.6100 O   0  0  0  0  0  0  0  0  0  0  0  0
    9.9275   13.9488   22.5584 C   0  0  0  0  0  0  0  0  0  0  0  0
   12.8772   14.1668   21.2002 H   0  0  0  0  0  0  0  0  0  0  0  0
   10.7859   15.3566   20.6562 C   0  0  0  0  0  0  0  0  0  0  0  0
   10.0427   16.4724   20.3554 C   0  0  0  0  0  0  0  0  0  0  0  0
    9.9937   16.6307   19.0052 N   0  0  0  0  0  0  0  0  0  0  0  0
   10.7244   15.6731   18.4561 N   0  0  0  0  0  0  0  0  0  0  0  0
   11.2561   14.9513   19.4421 N   0  0  0  0  0  0  0  0  0  0  0  0
   11.9035   14.2213   19.3111 H   0  0  0  0  0  0  0  0  0  0  0  0
    7.5054   13.8801   24.4156 C   0  0  0  0  0  0  0  0  0  0  0  0
    8.0925   11.4158   25.3535 C   0  0  0  0  0  0  0  0  0  0  0  0
    7.1694   10.2527   25.7380 C   0  0  0  0  0  0  0  0  0  0  0  0
    6.1878   10.3954   26.9019 C   0  0  0  0  0  0  0  0  0  0  0  0
    5.7982   11.8282   27.2593 C   0  0  0  0  0  0  0  0  0  0  0  0
    4.3800   11.9089   27.8347 C   0  0  0  0  0  0  0  0  0  0  0  0
    4.3836   13.1492   28.7201 C   0  0  0  0  0  0  0  0  0  0  0  0
    5.8509   13.4564   28.9672 C   0  0  0  0  0  0  0  0  0  0  0  0
    6.5929   12.3150   28.4123 N   0  0  0  0  0  0  0  0  0  0  0  0
    5.9705   12.7255   26.0244 C   0  0  0  0  0  0  0  0  0  0  0  0
    7.4375   12.8214   25.5500 C   0  0  0  0  0  0  0  0  0  0  0  0
    6.6869   11.5797   29.1129 H   0  0  0  0  0  0  0  0  0  0  0  0
    9.4987    9.4778   23.7193 C   0  0  0  0  0  0  0  0  0  0  0  0
    8.8230   11.1418   23.6931 S   0  0  0  0  0  0  0  0  0  0  0  0
 31 32  1  0  0  0
 20 32  1  0  0  0
 20 21  1  0  0  0
 21 22  1  0  0  0
 23 22  1  0  0  0
 23 24  1  0  0  0
 24 25  1  0  0  0
 25 26  1  0  0  0
 26 27  1  0  0  0
 23 28  1  0  0  0
 28 29  1  0  0  0
 29 19  1  0  0  0
 19  1  1  0  0  0
  1  2  1  0  0  0
  1  3  1  0  0  0
  1  6  1  0  0  0
  6  7  1  0  0  0
  7  8  1  0  0  0
  8  9  1  0  0  0
  9 10  1  0  0  0
  9 13  1  0  0  0
 13 14  2  0  0  0
 14 15  1  0  0  0
 15 16  2  0  0  0
 16 17  1  0  0  0
  9 11  1  0  0  0
 29 20  1  0  0  0
 11  6  1  0  0  0
 27 23  1  0  0  0
 17 13  1  0  0  0
 27 30  1  0  0  0
  2  4  1  0  0  0
  3  5  1  0  0  0
 10 12  1  0  0  0
 17 18  1  0  0  0
M  END
> <minimizedAffinity>
-7.08618

> <minimizedRMSD>
0.29012

$$$$
P98415


 25 26  0  0  0  0  0  0  0  0999 V2000
    9.3528   14.0740   24.1516 C   0  0  0  0  0  0  0  0  0  0  0  0
    9.6857   14.8937   22.9686 N   0  0  0  0  0  0  0  0  0  0  0  0
    8.9281   16.1444   22.9365 C   0  0  0  0  0  0  0  0  0  0  0  0
    9.1470   16.8156   21.6073 C   0  0  0  0  0  0  0  0  0  0  0  0
   10.6186   17.1323   21.4492 C   0  0  0  0  0  0  0  0  0  0  0  0
   11.5530   15.9524   21.5868 C   0  0  0  0  0  0  0  0  0  0  0  0
   11.1342   15.0995   22.8111 C   0  0  0  0  0  0  0  0  0  0  0  0
   11.8441   15.2087   20.2621 C   0  0  0  0  0  0  0  0  0  0  0  0
   10.8026   15.2608   19.1686 C   0  0  0  0  0  0  0  0  0  0  0  0
   11.1382   16.1826   18.1440 O   0  0  0  0  0  0  0  0  0  0  0  0
   11.1962   17.0754   18.5187 H   0  0  0  0  0  0  0  0  0  0  0  0
    9.2784   14.7907   25.4787 N   0  0  0  0  0  0  0  0  0  0  0  0
   10.2302   14.5238   26.2210 O   0  0  0  0  0  0  0  0  0  0  0  0
    7.9884   13.3944   23.8673 C   0  0  0  0  0  0  0  0  0  0  0  0
    7.8928   11.0435   24.8856 C   0  0  0  0  0  0  0  0  0  0  0  0
    7.2334   10.1687   25.7489 C   0  0  0  0  0  0  0  0  0  0  0  0
    6.2335   10.6191   26.6315 C   0  0  0  0  0  0  0  0  0  0  0  0
    5.8767   11.9676   26.6956 C   0  0  0  0  0  0  0  0  0  0  0  0
    6.4928   12.8373   25.7929 C   0  0  0  0  0  0  0  0  0  0  0  0
    7.4778   12.3905   24.8821 C   0  0  0  0  0  0  0  0  0  0  0  0
    9.1294    8.7505   23.6577 C   0  0  0  0  0  0  0  0  0  0  0  0
    9.2234   10.5421   23.7941 S   0  0  0  0  0  0  0  0  0  0  0  0
    4.9428   12.5150   27.7587 C   0  0  0  0  0  0  0  0  0  0  0  0
    4.0577   11.5385   28.4075 C   0  0  0  0  0  0  0  0  0  0  0  0
    3.3525   10.7750   28.9284 N   0  0  0  0  0  0  0  0  0  0  0  0
 21 22  1  0  0  0
 22 15  1  0  0  0
 15 16  2  0  0  0
 16 17  1  0  0  0
 17 18  2  0  0  0
 18 23  1  0  0  0
 23 24  1  0  0  0
 24 25  3  0  0  0
 18 19  1  0  0  0
 19 20  2  0  0  0
 20 14  1  0  0  0
  1 14  1  0  0  0
  1 12  1  0  0  0
 12 13  2  0  0  0
  1  2  1  0  0  0
  2  3  1  0  0  0
  3  4  1  0  0  0
  4  5  1  0  0  0
  5  6  1  0  0  0
  6  8  1  0  0  0
  8  9  1  0  0  0
  9 10  1  0  0  0
  6  7  1  0  0  0
 20 15  1  0  0  0
  7  2  1  0  0  0
 10 11  1  0  0  0
M  END
> <minimizedAffinity>
-5.89875

> <minimizedRMSD>
0.48163

$$$$
P98423


 22 23  0  0  0  0  0  0  0  0999 V2000
    8.3115   14.3112   23.4174 C   0  0  0  0  0  0  0  0  0  0  0  0
    9.4090   15.0401   22.7898 N   0  0  0  0  0  0  0  0  0  0  0  0
   10.5971   15.3611   23.5619 C   0  0  0  0  0  0  0  0  0  0  0  0
   11.7251   15.5489   22.5592 C   0  0  0  0  0  0  0  0  0  0  0  0
   11.4225   16.6797   21.5909 C   0  0  0  0  0  0  0  0  0  0  0  0
   10.0311   16.5600   20.9661 C   0  0  0  0  0  0  0  0  0  0  0  0
    8.9721   16.2125   22.0230 C   0  0  0  0  0  0  0  0  0  0  0  0
    9.9735   15.5169   19.8455 C   0  0  0  0  0  0  0  0  0  0  0  0
   11.2846   15.2867   19.1540 C   0  0  0  0  0  0  0  0  0  0  0  0
   11.3163   16.1622   18.0473 O   0  0  0  0  0  0  0  0  0  0  0  0
   10.5627   15.9758   17.4658 H   0  0  0  0  0  0  0  0  0  0  0  0
    7.6444   13.4016   22.4176 N   0  0  0  0  0  0  0  0  0  0  0  0
    6.4344   13.6232   22.3051 O   0  0  0  0  0  0  0  0  0  0  0  0
    8.7809   13.4774   24.6286 C   0  0  0  0  0  0  0  0  0  0  0  0
    7.9616   11.0895   25.0360 C   0  0  0  0  0  0  0  0  0  0  0  0
    7.1307   10.2387   25.7612 C   0  0  0  0  0  0  0  0  0  0  0  0
    6.1550   10.7486   26.6231 C   0  0  0  0  0  0  0  0  0  0  0  0
    5.9453   12.1166   26.7280 C   0  0  0  0  0  0  0  0  0  0  0  0
    6.7617   12.9845   26.0202 C   0  0  0  0  0  0  0  0  0  0  0  0
    7.8059   12.4833   25.2221 C   0  0  0  0  0  0  0  0  0  0  0  0
    8.9365    8.7240   23.7472 C   0  0  0  0  0  0  0  0  0  0  0  0
    9.2111   10.4939   23.8952 S   0  0  0  0  0  0  0  0  0  0  0  0
 21 22  1  0  0  0
 22 15  1  0  0  0
 15 16  2  0  0  0
 16 17  1  0  0  0
 17 18  2  0  0  0
 18 19  1  0  0  0
 19 20  2  0  0  0
 20 14  1  0  0  0
  1 14  1  0  0  0
  1 12  1  0  0  0
 12 13  2  0  0  0
  1  2  1  0  0  0
  2  3  1  0  0  0
  3  4  1  0  0  0
  4  5  1  0  0  0
  5  6  1  0  0  0
  6  8  1  0  0  0
  8  9  1  0  0  0
  9 10  1  0  0  0
  6  7  1  0  0  0
 20 15  1  0  0  0
  7  2  1  0  0  0
 10 11  1  0  0  0
M  END
> <minimizedAffinity>
-6.77309

> <minimizedRMSD>
0.44978

$$$$
P98426


 24 26  0  0  0  0  0  0  0  0999 V2000
    7.8853   14.3700   23.5556 C   0  0  0  0  0  0  0  0  0  0  0  0
    9.3442    9.5093   23.8074 C   0  0  0  0  0  0  0  0  0  0  0  0
    8.7736   10.9206   23.9990 C   0  0  0  0  0  0  0  0  0  0  0  0
    9.8645   11.9995   23.9965 C   0  0  0  0  0  0  0  0  0  0  0  0
    9.6397   13.0776   24.9004 O   0  0  0  0  0  0  0  0  0  0  0  0
    8.2936   13.6021   24.8740 C   0  0  0  0  0  0  0  0  0  0  0  0
    7.4251   12.4889   25.4174 C   0  0  0  0  0  0  0  0  0  0  0  0
    6.3981   12.7717   26.3245 C   0  0  0  0  0  0  0  0  0  0  0  0
    5.7684   11.7317   26.9942 C   0  0  0  0  0  0  0  0  0  0  0  0
    6.1545   10.4161   26.7491 C   0  0  0  0  0  0  0  0  0  0  0  0
    7.1260   10.1215   25.7913 C   0  0  0  0  0  0  0  0  0  0  0  0
    7.7670   11.1498   25.1085 C   0  0  0  0  0  0  0  0  0  0  0  0
    8.9804   15.1626   23.0102 N   0  0  0  0  0  0  0  0  0  0  0  0
    9.7950   15.9940   23.8804 C   0  0  0  0  0  0  0  0  0  0  0  0
   11.2152   15.9443   23.3173 C   0  0  0  0  0  0  0  0  0  0  0  0
   11.2318   16.4456   21.8780 C   0  0  0  0  0  0  0  0  0  0  0  0
   10.2021   15.6568   21.0516 C   0  0  0  0  0  0  0  0  0  0  0  0
    8.8153   15.7591   21.6899 C   0  0  0  0  0  0  0  0  0  0  0  0
   10.2020   16.0802   19.5906 C   0  0  0  0  0  0  0  0  0  0  0  0
   11.2460   15.3721   18.7426 C   0  0  0  0  0  0  0  0  0  0  0  0
   11.9471   14.3585   19.4344 O   0  0  0  0  0  0  0  0  0  0  0  0
   12.4339   14.7506   20.1761 H   0  0  0  0  0  0  0  0  0  0  0  0
    7.3568   13.3692   22.5529 N   0  0  0  0  0  0  0  0  0  0  0  0
    6.1690   13.5570   22.2664 O   0  0  0  0  0  0  0  0  0  0  0  0
  3  2  1  0  0  0
  3  4  1  0  0  0
  4  5  1  0  0  0
  6  5  1  0  0  0
  6  1  1  0  0  0
  1 23  1  0  0  0
 23 24  2  0  0  0
  1 13  1  0  0  0
 13 14  1  0  0  0
 14 15  1  0  0  0
 15 16  1  0  0  0
 16 17  1  0  0  0
 17 19  1  0  0  0
 19 20  1  0  0  0
 20 21  1  0  0  0
 17 18  1  0  0  0
  6  7  1  0  0  0
  7  8  2  0  0  0
  8  9  1  0  0  0
  9 10  2  0  0  0
 10 11  1  0  0  0
 11 12  2  0  0  0
 12  3  1  0  0  0
 18 13  1  0  0  0
 12  7  1  0  0  0
 21 22  1  0  0  0
M  END
> <minimizedAffinity>
-7.64795

> <minimizedRMSD>
0.33307

$$$$
P98430


 23 25  0  0  0  0  0  0  0  0999 V2000
    8.7690   13.4056   24.9824 C   0  0  0  0  0  0  0  0  0  0  0  0
    9.9911   13.8943   25.2579 C   0  0  0  0  0  0  0  0  0  0  0  0
   10.4331   14.9542   24.2684 C   0  0  0  0  0  0  0  0  0  0  0  0
   11.5971   14.5052   23.3655 C   0  0  0  0  0  0  0  0  0  0  0  0
   11.6365   15.2509   22.0150 C   0  0  0  0  0  0  0  0  0  0  0  0
   10.2709   15.1774   21.3131 C   0  0  0  0  0  0  0  0  0  0  0  0
    9.2405   15.8244   22.2453 C   0  0  0  0  0  0  0  0  0  0  0  0
    9.2261   15.1128   23.5071 N   0  0  0  0  0  0  0  0  0  0  0  0
    8.3323   14.1079   23.7633 C   0  0  0  0  0  0  0  0  0  0  0  0
    7.3634   13.7640   23.1128 O   0  0  0  0  0  0  0  0  0  0  0  0
    7.9599   11.0325   25.0249 C   0  0  0  0  0  0  0  0  0  0  0  0
    6.8991   10.1515   25.2690 C   0  0  0  0  0  0  0  0  0  0  0  0
    5.7979   10.5438   26.0252 C   0  0  0  0  0  0  0  0  0  0  0  0
    5.7511   11.8179   26.5713 C   0  0  0  0  0  0  0  0  0  0  0  0
    6.7822   12.7216   26.3133 C   0  0  0  0  0  0  0  0  0  0  0  0
    6.6246   14.3000   26.9965 Cl  0  0  0  0  0  0  0  0  0  0  0  0
    7.8903   12.3559   25.5248 C   0  0  0  0  0  0  0  0  0  0  0  0
    9.1115    8.7925   23.6908 C   0  0  0  0  0  0  0  0  0  0  0  0
    9.3826   10.5370   24.0664 S   0  0  0  0  0  0  0  0  0  0  0  0
   10.2267   15.8365   19.9305 C   0  0  0  0  0  0  0  0  0  0  0  0
   11.0835   15.1695   18.8693 C   0  0  0  0  0  0  0  0  0  0  0  0
   10.9579   15.8744   17.6335 O   0  0  0  0  0  0  0  0  0  0  0  0
   10.0308   15.8641   17.3482 H   0  0  0  0  0  0  0  0  0  0  0  0
 18 19  1  0  0  0
 19 11  1  0  0  0
 11 12  2  0  0  0
 12 13  1  0  0  0
 13 14  2  0  0  0
 14 15  1  0  0  0
 15 16  1  0  0  0
 15 17  2  0  0  0
 17  1  1  0  0  0
  1  2  2  0  0  0
  2  3  1  0  0  0
  3  4  1  0  0  0
  4  5  1  0  0  0
  5  6  1  0  0  0
  6 20  1  0  0  0
 20 21  1  0  0  0
 21 22  1  0  0  0
  6  7  1  0  0  0
  7  8  1  0  0  0
  8  9  1  0  0  0
  9 10  2  0  0  0
 17 11  1  0  0  0
  9  1  1  0  0  0
  8  3  1  0  0  0
 22 23  1  0  0  0
M  END
> <minimizedAffinity>
-8.31639

> <minimizedRMSD>
0.30316

$$$$
P98490


 25 26  0  0  0  0  0  0  0  0999 V2000
    8.0436   14.9337   24.1387 C   0  0  0  0  0  0  0  0  0  0  0  0
    9.2810   14.8389   23.3291 N   0  0  0  0  0  0  0  0  0  0  0  0
   10.4560   15.3502   24.0284 C   0  0  0  0  0  0  0  0  0  0  0  0
   11.6646   14.8168   23.2763 C   0  0  0  0  0  0  0  0  0  0  0  0
   11.6328   15.1355   21.7850 C   0  0  0  0  0  0  0  0  0  0  0  0
   10.4648   16.0223   21.4012 C   0  0  0  0  0  0  0  0  0  0  0  0
    9.1471   15.4929   21.9892 C   0  0  0  0  0  0  0  0  0  0  0  0
   10.3806   16.2794   19.8989 C   0  0  0  0  0  0  0  0  0  0  0  0
    9.8439   17.3065   19.4845 O   0  0  0  0  0  0  0  0  0  0  0  0
   10.9502   15.2795   18.9092 C   0  0  0  0  0  0  0  0  0  0  0  0
   11.0001   15.7877   17.5818 O   0  0  0  0  0  0  0  0  0  0  0  0
   10.1014   15.9936   17.2805 H   0  0  0  0  0  0  0  0  0  0  0  0
    6.8127   14.3795   23.4821 N   0  0  0  0  0  0  0  0  0  0  0  0
    7.0358   13.2902   22.9404 O   0  0  0  0  0  0  0  0  0  0  0  0
    8.1796   14.3455   25.5932 C   0  0  0  0  0  0  0  0  0  0  0  0
    8.0578   11.7787   25.4355 C   0  0  0  0  0  0  0  0  0  0  0  0
    7.2475   10.6331   25.5204 C   0  0  0  0  0  0  0  0  0  0  0  0
    5.9744   10.6772   26.0892 C   0  0  0  0  0  0  0  0  0  0  0  0
    5.4762   11.8704   26.5890 C   0  0  0  0  0  0  0  0  0  0  0  0
    6.2323   13.0310   26.4748 C   0  0  0  0  0  0  0  0  0  0  0  0
    7.5070   13.0072   25.8756 C   0  0  0  0  0  0  0  0  0  0  0  0
    9.4390   11.7558   24.8136 C   0  0  0  0  0  0  0  0  0  0  0  0
   10.2686   10.1506   24.7607 S   0  0  0  0  0  0  0  0  0  0  0  0
    9.0483    8.0863   23.5287 C   0  0  0  0  0  0  0  0  0  0  0  0
    9.4567    9.5042   23.3040 C   0  0  0  0  0  0  0  0  0  0  0  0
 24 25  1  0  0  0
 25 23  1  0  0  0
 23 22  1  0  0  0
 22 16  1  0  0  0
 16 17  2  0  0  0
 17 18  1  0  0  0
 18 19  2  0  0  0
 19 20  1  0  0  0
 20 21  2  0  0  0
 21 15  1  0  0  0
  1 15  1  0  0  0
  1 13  1  0  0  0
 13 14  2  0  0  0
  1  2  1  0  0  0
  2  3  1  0  0  0
  3  4  1  0  0  0
  4  5  1  0  0  0
  5  6  1  0  0  0
  6  8  1  0  0  0
  8  9  2  0  0  0
  8 10  1  0  0  0
 10 11  1  0  0  0
  6  7  1  0  0  0
 21 16  1  0  0  0
  7  2  1  0  0  0
 11 12  1  0  0  0
M  END
> <minimizedAffinity>
-6.08201

> <minimizedRMSD>
0.53682

$$$$
P98492


 23 24  0  0  0  0  0  0  0  0999 V2000
    8.3156   14.5826   24.2378 C   0  0  0  0  0  0  0  0  0  0  0  0
    9.5136   14.7130   23.3974 N   0  0  0  0  0  0  0  0  0  0  0  0
   10.6315   15.3579   24.0667 C   0  0  0  0  0  0  0  0  0  0  0  0
   11.8751   14.9895   23.2752 C   0  0  0  0  0  0  0  0  0  0  0  0
   11.7614   15.3056   21.7848 C   0  0  0  0  0  0  0  0  0  0  0  0
   10.4569   16.0017   21.4242 C   0  0  0  0  0  0  0  0  0  0  0  0
    9.2542   15.2906   22.0679 C   0  0  0  0  0  0  0  0  0  0  0  0
   10.2185   16.2234   19.9172 C   0  0  0  0  0  0  0  0  0  0  0  0
   10.8983   15.2788   18.9362 C   0  0  0  0  0  0  0  0  0  0  0  0
   10.9385   15.8918   17.6500 O   0  0  0  0  0  0  0  0  0  0  0  0
   10.0343   16.0791   17.3528 H   0  0  0  0  0  0  0  0  0  0  0  0
    7.0543   14.1682   23.5346 N   0  0  0  0  0  0  0  0  0  0  0  0
    7.1642   13.0857   22.9537 O   0  0  0  0  0  0  0  0  0  0  0  0
    8.5949   13.7177   25.5114 C   0  0  0  0  0  0  0  0  0  0  0  0
    7.8811   11.2561   25.2846 C   0  0  0  0  0  0  0  0  0  0  0  0
    6.8916   10.2801   25.4337 C   0  0  0  0  0  0  0  0  0  0  0  0
    5.7083   10.5561   26.1119 C   0  0  0  0  0  0  0  0  0  0  0  0
    5.4807   11.8188   26.6434 C   0  0  0  0  0  0  0  0  0  0  0  0
    6.4264   12.8381   26.4902 C   0  0  0  0  0  0  0  0  0  0  0  0
    6.0579   14.2234   26.9602 C   0  0  0  0  0  0  0  0  0  0  0  0
    7.6421   12.5617   25.8073 C   0  0  0  0  0  0  0  0  0  0  0  0
    9.1930    9.2196   23.7566 C   0  0  0  0  0  0  0  0  0  0  0  0
    9.4150   10.8900   24.4242 S   0  0  0  0  0  0  0  0  0  0  0  0
 22 23  1  0  0  0
 23 15  1  0  0  0
 15 16  2  0  0  0
 16 17  1  0  0  0
 17 18  2  0  0  0
 18 19  1  0  0  0
 19 20  1  0  0  0
 19 21  2  0  0  0
 21 14  1  0  0  0
  1 14  1  0  0  0
  1 12  1  0  0  0
 12 13  2  0  0  0
  1  2  1  0  0  0
  2  3  1  0  0  0
  3  4  1  0  0  0
  4  5  1  0  0  0
  5  6  1  0  0  0
  6  8  1  0  0  0
  8  9  1  0  0  0
  9 10  1  0  0  0
  6  7  1  0  0  0
 21 15  1  0  0  0
  7  2  1  0  0  0
 10 11  1  0  0  0
M  END
> <minimizedAffinity>
-7.08900

> <minimizedRMSD>
0.33090

$$$$
P98499


 23 24  0  0  0  0  0  0  0  0999 V2000
    8.3526   14.4769   24.2709 C   0  0  0  0  0  0  0  0  0  0  0  0
    9.5450   14.5720   23.4090 N   0  0  0  0  0  0  0  0  0  0  0  0
   10.7068   15.1111   24.1260 C   0  0  0  0  0  0  0  0  0  0  0  0
   11.9433   14.9337   23.2576 C   0  0  0  0  0  0  0  0  0  0  0  0
   11.7966   15.6637   21.9295 C   0  0  0  0  0  0  0  0  0  0  0  0
   10.5228   15.1842   21.2358 C   0  0  0  0  0  0  0  0  0  0  0  0
    9.3246   15.3736   22.1819 C   0  0  0  0  0  0  0  0  0  0  0  0
   10.3035   15.8639   19.8829 C   0  0  0  0  0  0  0  0  0  0  0  0
   11.0956   15.2081   18.7641 C   0  0  0  0  0  0  0  0  0  0  0  0
   10.8865   15.8986   17.5407 O   0  0  0  0  0  0  0  0  0  0  0  0
    9.9443   15.8722   17.3115 H   0  0  0  0  0  0  0  0  0  0  0  0
    7.0737   14.0784   23.5827 N   0  0  0  0  0  0  0  0  0  0  0  0
    7.1825   13.0200   22.9541 O   0  0  0  0  0  0  0  0  0  0  0  0
    8.6009   13.6006   25.5531 C   0  0  0  0  0  0  0  0  0  0  0  0
    7.8485   11.1312   25.3263 C   0  0  0  0  0  0  0  0  0  0  0  0
    6.8051   10.2048   25.4493 C   0  0  0  0  0  0  0  0  0  0  0  0
    5.5951   10.5533   26.0596 C   0  0  0  0  0  0  0  0  0  0  0  0
    5.4080   11.8360   26.5553 C   0  0  0  0  0  0  0  0  0  0  0  0
    3.9193   12.2918   27.2842 Cl  0  0  0  0  0  0  0  0  0  0  0  0
    6.4235   12.7745   26.4473 C   0  0  0  0  0  0  0  0  0  0  0  0
    7.6409   12.4462   25.8157 C   0  0  0  0  0  0  0  0  0  0  0  0
    9.1273    9.0893   23.7901 C   0  0  0  0  0  0  0  0  0  0  0  0
    9.4047   10.7113   24.5467 S   0  0  0  0  0  0  0  0  0  0  0  0
 22 23  1  0  0  0
 23 15  1  0  0  0
 15 16  2  0  0  0
 16 17  1  0  0  0
 17 18  2  0  0  0
 18 19  1  0  0  0
 18 20  1  0  0  0
 20 21  2  0  0  0
 21 14  1  0  0  0
  1 14  1  0  0  0
  1 12  1  0  0  0
 12 13  2  0  0  0
  1  2  1  0  0  0
  2  3  1  0  0  0
  3  4  1  0  0  0
  4  5  1  0  0  0
  5  6  1  0  0  0
  6  8  1  0  0  0
  8  9  1  0  0  0
  9 10  1  0  0  0
  6  7  1  0  0  0
 21 15  1  0  0  0
  7  2  1  0  0  0
 10 11  1  0  0  0
M  END
> <minimizedAffinity>
-7.16402

> <minimizedRMSD>
0.23932

$$$$
P98503


 26 27  0  0  0  0  0  0  0  0999 V2000
    9.3735   13.8301   25.0768 C   0  0  0  0  0  0  0  0  0  0  0  0
    6.0540   12.6129   26.3556 C   0  0  0  0  0  0  0  0  0  0  0  0
    7.1679   13.3828   26.0807 C   0  0  0  0  0  0  0  0  0  0  0  0
    8.3276   12.8210   25.5135 C   0  0  0  0  0  0  0  0  0  0  0  0
    8.3889   11.4379   25.2406 C   0  0  0  0  0  0  0  0  0  0  0  0
    7.2387   10.6921   25.4626 C   0  0  0  0  0  0  0  0  0  0  0  0
    6.0747   11.2689   25.9972 C   0  0  0  0  0  0  0  0  0  0  0  0
    5.1411   13.6755   28.2619 C   0  0  0  0  0  0  0  0  0  0  0  0
    5.0104   13.3182   26.8907 O   0  0  0  0  0  0  0  0  0  0  0  0
    9.8932   10.6167   24.7054 S   0  0  0  0  0  0  0  0  0  0  0  0
    9.3313    9.1058   23.8866 C   0  0  0  0  0  0  0  0  0  0  0  0
    4.9139   10.5846   26.1632 O   0  0  0  0  0  0  0  0  0  0  0  0
    4.8801    9.2724   25.6524 C   0  0  0  0  0  0  0  0  0  0  0  0
    8.7944   14.7006   23.9245 C   0  0  0  0  0  0  0  0  0  0  0  0
    9.5486   15.9035   23.5591 N   0  0  0  0  0  0  0  0  0  0  0  0
   10.9165   16.0001   24.0338 C   0  0  0  0  0  0  0  0  0  0  0  0
   11.9519   15.3406   23.1368 C   0  0  0  0  0  0  0  0  0  0  0  0
   11.8390   15.8387   21.7049 C   0  0  0  0  0  0  0  0  0  0  0  0
   10.4262   15.6025   21.1792 C   0  0  0  0  0  0  0  0  0  0  0  0
    9.4140   16.2885   22.1349 C   0  0  0  0  0  0  0  0  0  0  0  0
   10.2591   16.0831   19.7359 C   0  0  0  0  0  0  0  0  0  0  0  0
   11.0245   15.2615   18.7037 C   0  0  0  0  0  0  0  0  0  0  0  0
   10.9762   15.9123   17.4396 O   0  0  0  0  0  0  0  0  0  0  0  0
   10.0527   16.0006   17.1565 H   0  0  0  0  0  0  0  0  0  0  0  0
    8.4266   13.7951   22.8082 N   0  0  0  0  0  0  0  0  0  0  0  0
    9.3576   13.0593   22.4753 O   0  0  0  0  0  0  0  0  0  0  0  0
  8  9  1  0  0  0
  9  2  1  0  0  0
  2  3  2  0  0  0
  3  4  1  0  0  0
  4  1  1  0  0  0
 14  1  1  0  0  0
 14 25  1  0  0  0
 25 26  2  0  0  0
 14 15  1  0  0  0
 15 16  1  0  0  0
 16 17  1  0  0  0
 17 18  1  0  0  0
 18 19  1  0  0  0
 19 21  1  0  0  0
 21 22  1  0  0  0
 22 23  1  0  0  0
 19 20  1  0  0  0
  4  5  2  0  0  0
  5 10  1  0  0  0
 10 11  1  0  0  0
  5  6  1  0  0  0
  6  7  2  0  0  0
  7 12  1  0  0  0
 12 13  1  0  0  0
  7  2  1  0  0  0
 20 15  1  0  0  0
 23 24  1  0  0  0
M  END
> <minimizedAffinity>
-5.58646

> <minimizedRMSD>
0.59494

$$$$
P98519


 26 27  0  0  0  0  0  0  0  0999 V2000
    7.8780   14.4483   24.2141 C   0  0  0  0  0  0  0  0  0  0  0  0
    9.1331   14.7658   23.5401 N   0  0  0  0  0  0  0  0  0  0  0  0
    9.1196   15.0255   22.1003 C   0  0  0  0  0  0  0  0  0  0  0  0
   10.5553   14.9798   21.5737 C   0  0  0  0  0  0  0  0  0  0  0  0
   11.4887   15.8654   22.3817 C   0  0  0  0  0  0  0  0  0  0  0  0
   11.2591   15.7097   23.8892 C   0  0  0  0  0  0  0  0  0  0  0  0
    9.8007   15.8421   24.2333 C   0  0  0  0  0  0  0  0  0  0  0  0
   11.8916   14.4647   24.5327 C   0  0  0  0  0  0  0  0  0  0  0  0
   12.5217   13.5973   23.9206 O   0  0  0  0  0  0  0  0  0  0  0  0
   11.8167   14.3448   26.0550 C   0  0  0  0  0  0  0  0  0  0  0  0
   13.1273   14.3263   26.6135 O   0  0  0  0  0  0  0  0  0  0  0  0
   13.6170   13.5654   26.2640 H   0  0  0  0  0  0  0  0  0  0  0  0
    6.8348   13.7999   23.3948 N   0  0  0  0  0  0  0  0  0  0  0  0
    5.8732   14.5425   23.1760 O   0  0  0  0  0  0  0  0  0  0  0  0
    8.3154   13.5459   25.3934 C   0  0  0  0  0  0  0  0  0  0  0  0
    6.9685   11.4245   25.6208 C   0  0  0  0  0  0  0  0  0  0  0  0
    6.7963   10.0746   25.3155 C   0  0  0  0  0  0  0  0  0  0  0  0
    7.7462    9.3966   24.5491 C   0  0  0  0  0  0  0  0  0  0  0  0
    8.8908   10.0499   24.1030 C   0  0  0  0  0  0  0  0  0  0  0  0
    9.0971   11.3786   24.4340 C   0  0  0  0  0  0  0  0  0  0  0  0
    8.1349   12.0720   25.1845 C   0  0  0  0  0  0  0  0  0  0  0  0
    5.9782   12.1515   26.3467 N   0  0  0  0  0  0  0  0  0  0  0  0
    6.0274   12.3147   27.3164 H   0  0  0  0  0  0  0  0  0  0  0  0
    4.2546   13.7412   26.1919 C   0  0  0  0  0  0  0  0  0  0  0  0
    4.9066   12.6190   25.5226 N   0  0  0  0  0  0  0  0  0  0  0  0
    5.2749   12.9240   24.6216 H   0  0  0  0  0  0  0  0  0  0  0  0
 24 25  1  0  0  0
 25 22  1  0  0  0
 22 16  1  0  0  0
 16 17  2  0  0  0
 17 18  1  0  0  0
 18 19  2  0  0  0
 19 20  1  0  0  0
 20 21  2  0  0  0
 21 15  1  0  0  0
  1 15  1  0  0  0
  1 13  1  0  0  0
 13 14  2  0  0  0
  1  2  1  0  0  0
  2  3  1  0  0  0
  3  4  1  0  0  0
  4  5  1  0  0  0
  5  6  1  0  0  0
  6  8  1  0  0  0
  8  9  2  0  0  0
  8 10  1  0  0  0
 10 11  1  0  0  0
  6  7  1  0  0  0
 21 16  1  0  0  0
  7  2  1  0  0  0
 25 26  1  0  0  0
 22 23  1  0  0  0
 11 12  1  0  0  0
M  END
> <minimizedAffinity>
-6.09766

> <minimizedRMSD>
1.14117

$$$$
P98521


 11 10  0  0  0  0  0  0  0  0999 V2000
    9.3518   15.0435   25.1294 C   0  0  0  0  0  0  0  0  0  0  0  0
    9.3771   14.1366   23.8955 C   0  0  0  0  0  0  0  0  0  0  0  0
    9.6607   14.9896   22.6621 C   0  0  0  0  0  0  0  0  0  0  0  0
    8.9010   14.9711   21.6933 O   0  0  0  0  0  0  0  0  0  0  0  0
   10.9391   15.8276   22.6562 C   0  0  0  0  0  0  0  0  0  0  0  0
   12.0976   15.0295   22.8468 O   0  0  0  0  0  0  0  0  0  0  0  0
   12.0473   14.5871   23.7086 H   0  0  0  0  0  0  0  0  0  0  0  0
    8.0499   13.3456   23.8375 C   0  0  0  0  0  0  0  0  0  0  0  0
    8.0542   11.8258   23.9999 C   0  0  0  0  0  0  0  0  0  0  0  0
    9.1156   11.2501   24.8929 C   0  0  0  0  0  0  0  0  0  0  0  0
    9.6505   10.1656   24.6865 O   0  0  0  0  0  0  0  0  0  0  0  0
  2  1  1  0  0  0
  2  8  1  0  0  0
  8  9  1  0  0  0
  9 10  1  0  0  0
 10 11  2  0  0  0
  2  3  1  0  0  0
  3  4  2  0  0  0
  3  5  1  0  0  0
  5  6  1  0  0  0
  6  7  1  0  0  0
M  END
> <minimizedAffinity>
-3.32796

> <minimizedRMSD>
1.58722

$$$$
P98524


 23 24  0  0  0  0  0  0  0  0999 V2000
    8.5862   14.3503   23.8021 C   0  0  0  0  0  0  0  0  0  0  0  0
    9.1641   15.6956   23.5743 N   0  0  0  0  0  0  0  0  0  0  0  0
   10.4920   15.8306   24.1781 C   0  0  0  0  0  0  0  0  0  0  0  0
   11.6256   15.1768   23.3713 C   0  0  0  0  0  0  0  0  0  0  0  0
   11.5546   13.6628   23.3762 C   0  0  0  0  0  0  0  0  0  0  0  0
   11.6647   15.7142   21.9411 C   0  0  0  0  0  0  0  0  0  0  0  0
   10.3134   15.5220   21.2586 C   0  0  0  0  0  0  0  0  0  0  0  0
    9.2130   16.1681   22.1545 C   0  0  0  0  0  0  0  0  0  0  0  0
   10.3246   16.0787   19.8234 C   0  0  0  0  0  0  0  0  0  0  0  0
   11.0645   15.2218   18.7965 C   0  0  0  0  0  0  0  0  0  0  0  0
   10.9998   15.8181   17.5022 O   0  0  0  0  0  0  0  0  0  0  0  0
   10.0727   15.8935   17.2269 H   0  0  0  0  0  0  0  0  0  0  0  0
    7.2864   14.1247   23.1536 N   0  0  0  0  0  0  0  0  0  0  0  0
    6.4006   14.9073   23.4872 O   0  0  0  0  0  0  0  0  0  0  0  0
    8.6476   13.8292   25.2550 C   0  0  0  0  0  0  0  0  0  0  0  0
    7.8701   11.2890   25.2193 C   0  0  0  0  0  0  0  0  0  0  0  0
    6.7945   10.4219   25.4638 C   0  0  0  0  0  0  0  0  0  0  0  0
    5.6858   10.8241   26.2056 C   0  0  0  0  0  0  0  0  0  0  0  0
    5.6284   12.1022   26.7338 C   0  0  0  0  0  0  0  0  0  0  0  0
    6.6462   13.0035   26.4553 C   0  0  0  0  0  0  0  0  0  0  0  0
    7.7554   12.6407   25.6585 C   0  0  0  0  0  0  0  0  0  0  0  0
    8.8962    8.9620   23.8907 C   0  0  0  0  0  0  0  0  0  0  0  0
    9.3416   10.6508   24.3979 S   0  0  0  0  0  0  0  0  0  0  0  0
 22 23  1  0  0  0
 23 16  1  0  0  0
 16 17  2  0  0  0
 17 18  1  0  0  0
 18 19  2  0  0  0
 19 20  1  0  0  0
 20 21  2  0  0  0
 21 15  1  0  0  0
  1 15  1  0  0  0
  1 13  1  0  0  0
 13 14  2  0  0  0
  1  2  1  0  0  0
  2  3  1  0  0  0
  3  4  1  0  0  0
  4  5  1  0  0  0
  4  6  1  0  0  0
  6  7  1  0  0  0
  7  9  1  0  0  0
  9 10  1  0  0  0
 10 11  1  0  0  0
  7  8  1  0  0  0
 21 16  1  0  0  0
  8  2  1  0  0  0
 11 12  1  0  0  0
M  END
> <minimizedAffinity>
-7.40116

> <minimizedRMSD>
0.73060

$$$$
P98526


 25 27  0  0  0  0  0  0  0  0999 V2000
    8.3378   14.3005   24.0158 C   0  0  0  0  0  0  0  0  0  0  0  0
    9.5624   14.5183   23.2196 N   0  0  0  0  0  0  0  0  0  0  0  0
   10.6398   15.1205   24.0151 C   0  0  0  0  0  0  0  0  0  0  0  0
   11.9325   15.0449   23.2146 C   0  0  0  0  0  0  0  0  0  0  0  0
   11.8077   15.7887   21.8914 C   0  0  0  0  0  0  0  0  0  0  0  0
   10.6042   15.2437   21.1226 C   0  0  0  0  0  0  0  0  0  0  0  0
    9.3477   15.3389   22.0062 C   0  0  0  0  0  0  0  0  0  0  0  0
   10.4137   15.9305   19.7696 C   0  0  0  0  0  0  0  0  0  0  0  0
   11.1346   15.2095   18.6432 C   0  0  0  0  0  0  0  0  0  0  0  0
   10.9781   15.9178   17.4224 O   0  0  0  0  0  0  0  0  0  0  0  0
   10.0355   15.9758   17.2008 H   0  0  0  0  0  0  0  0  0  0  0  0
    7.1986   13.7054   23.2331 N   0  0  0  0  0  0  0  0  0  0  0  0
    6.2077   14.4449   23.2005 O   0  0  0  0  0  0  0  0  0  0  0  0
    8.6508   13.3956   25.2567 C   0  0  0  0  0  0  0  0  0  0  0  0
    7.8079   10.9550   25.0818 C   0  0  0  0  0  0  0  0  0  0  0  0
    6.7932   10.0216   25.3097 C   0  0  0  0  0  0  0  0  0  0  0  0
    5.6362   10.3475   26.0198 C   0  0  0  0  0  0  0  0  0  0  0  0
    5.5047   11.6518   26.4990 C   0  0  0  0  0  0  0  0  0  0  0  0
    4.1988   12.3620   27.3649 S   0  0  0  0  0  0  0  0  0  0  0  0
    5.0388   13.8440   27.4018 C   0  0  0  0  0  0  0  0  0  0  0  0
    6.2323   13.8512   26.8589 N   0  0  0  0  0  0  0  0  0  0  0  0
    6.4945   12.6093   26.2999 C   0  0  0  0  0  0  0  0  0  0  0  0
    7.6642   12.2822   25.5671 C   0  0  0  0  0  0  0  0  0  0  0  0
    9.0457    8.7832   23.7025 C   0  0  0  0  0  0  0  0  0  0  0  0
    9.2828   10.5142   24.1705 S   0  0  0  0  0  0  0  0  0  0  0  0
 24 25  1  0  0  0
 25 15  1  0  0  0
 15 16  2  0  0  0
 16 17  1  0  0  0
 17 18  2  0  0  0
 18 19  1  0  0  0
 19 20  1  0  0  0
 20 21  2  0  0  0
 21 22  1  0  0  0
 22 23  2  0  0  0
 23 14  1  0  0  0
  1 14  1  0  0  0
  1 12  1  0  0  0
 12 13  2  0  0  0
  1  2  1  0  0  0
  2  3  1  0  0  0
  3  4  1  0  0  0
  4  5  1  0  0  0
  5  6  1  0  0  0
  6  8  1  0  0  0
  8  9  1  0  0  0
  9 10  1  0  0  0
  6  7  1  0  0  0
 23 15  1  0  0  0
  7  2  1  0  0  0
 22 18  1  0  0  0
 10 11  1  0  0  0
M  END
> <minimizedAffinity>
-7.54329

> <minimizedRMSD>
0.27699

$$$$
P98528


 24 25  0  0  0  0  0  0  0  0999 V2000
    8.4390   14.6235   24.1366 C   0  0  0  0  0  0  0  0  0  0  0  0
    9.2787   15.6843   23.5734 N   0  0  0  0  0  0  0  0  0  0  0  0
   10.6262   15.8780   24.0552 C   0  0  0  0  0  0  0  0  0  0  0  0
   11.6955   15.2041   23.1987 C   0  0  0  0  0  0  0  0  0  0  0  0
   11.6878   13.7017   23.3812 C   0  0  0  0  0  0  0  0  0  0  0  0
   11.5400   15.5681   21.7205 C   0  0  0  0  0  0  0  0  0  0  0  0
   10.1345   15.2277   21.2292 C   0  0  0  0  0  0  0  0  0  0  0  0
    9.1173   15.9796   22.1313 C   0  0  0  0  0  0  0  0  0  0  0  0
    9.9570   15.5506   19.7376 C   0  0  0  0  0  0  0  0  0  0  0  0
   11.1444   15.2087   18.8430 C   0  0  0  0  0  0  0  0  0  0  0  0
   11.0099   15.8544   17.5789 O   0  0  0  0  0  0  0  0  0  0  0  0
   10.1953   15.5532   17.1470 H   0  0  0  0  0  0  0  0  0  0  0  0
    7.7524   13.7822   23.1265 N   0  0  0  0  0  0  0  0  0  0  0  0
    6.5485   14.0518   23.0313 O   0  0  0  0  0  0  0  0  0  0  0  0
    9.0393   13.6433   25.2007 C   0  0  0  0  0  0  0  0  0  0  0  0
    7.9237   11.2771   25.2880 C   0  0  0  0  0  0  0  0  0  0  0  0
    6.7663   10.5493   25.6016 C   0  0  0  0  0  0  0  0  0  0  0  0
    5.7127   11.1394   26.3078 C   0  0  0  0  0  0  0  0  0  0  0  0
    5.8167   12.4623   26.7084 C   0  0  0  0  0  0  0  0  0  0  0  0
    4.4591   13.3599   27.6273 Br  0  0  0  0  0  0  0  0  0  0  0  0
    6.9426   13.2031   26.4128 C   0  0  0  0  0  0  0  0  0  0  0  0
    7.9934   12.6384   25.6836 C   0  0  0  0  0  0  0  0  0  0  0  0
    8.7158    8.9089   23.8857 C   0  0  0  0  0  0  0  0  0  0  0  0
    9.2833   10.5549   24.3824 S   0  0  0  0  0  0  0  0  0  0  0  0
 23 24  1  0  0  0
 24 16  1  0  0  0
 16 17  2  0  0  0
 17 18  1  0  0  0
 18 19  2  0  0  0
 19 20  1  0  0  0
 19 21  1  0  0  0
 21 22  2  0  0  0
 22 15  1  0  0  0
  1 15  1  0  0  0
  1 13  1  0  0  0
 13 14  2  0  0  0
  1  2  1  0  0  0
  2  3  1  0  0  0
  3  4  1  0  0  0
  4  5  1  0  0  0
  4  6  1  0  0  0
  6  7  1  0  0  0
  7  9  1  0  0  0
  9 10  1  0  0  0
 10 11  1  0  0  0
  7  8  1  0  0  0
 22 16  1  0  0  0
  8  2  1  0  0  0
 11 12  1  0  0  0
M  END
> <minimizedAffinity>
-7.54421

> <minimizedRMSD>
0.35555

$$$$
P98531


 23 24  0  0  0  0  0  0  0  0999 V2000
    8.6713   14.1342   23.8135 C   0  0  0  0  0  0  0  0  0  0  0  0
    9.3198   15.4451   23.6162 N   0  0  0  0  0  0  0  0  0  0  0  0
   10.6488   15.6161   24.1817 C   0  0  0  0  0  0  0  0  0  0  0  0
   11.7314   14.9208   23.3718 C   0  0  0  0  0  0  0  0  0  0  0  0
   11.7307   15.4121   21.9314 C   0  0  0  0  0  0  0  0  0  0  0  0
   10.3494   15.2873   21.2986 C   0  0  0  0  0  0  0  0  0  0  0  0
    9.2873   15.9261   22.2107 C   0  0  0  0  0  0  0  0  0  0  0  0
   10.3939   15.9513   19.9272 C   0  0  0  0  0  0  0  0  0  0  0  0
    9.9636   17.0877   19.7499 O   0  0  0  0  0  0  0  0  0  0  0  0
   11.0552   15.1757   18.7983 C   0  0  0  0  0  0  0  0  0  0  0  0
   10.9934   15.8303   17.5441 O   0  0  0  0  0  0  0  0  0  0  0  0
   10.0660   15.9362   17.2801 H   0  0  0  0  0  0  0  0  0  0  0  0
    7.1892   14.2593   23.5693 N   0  0  0  0  0  0  0  0  0  0  0  0
    6.7431   13.3404   22.8781 O   0  0  0  0  0  0  0  0  0  0  0  0
    8.8578   13.5368   25.2497 C   0  0  0  0  0  0  0  0  0  0  0  0
    7.9720   11.1021   25.1262 C   0  0  0  0  0  0  0  0  0  0  0  0
    6.9020   10.2292   25.3543 C   0  0  0  0  0  0  0  0  0  0  0  0
    5.7789   10.6330   26.0795 C   0  0  0  0  0  0  0  0  0  0  0  0
    5.7072   11.9122   26.6089 C   0  0  0  0  0  0  0  0  0  0  0  0
    6.7461   12.8038   26.3766 C   0  0  0  0  0  0  0  0  0  0  0  0
    7.8740   12.4254   25.6151 C   0  0  0  0  0  0  0  0  0  0  0  0
    9.1114    8.8681   23.7588 C   0  0  0  0  0  0  0  0  0  0  0  0
    9.4422   10.5854   24.2476 S   0  0  0  0  0  0  0  0  0  0  0  0
 22 23  1  0  0  0
 23 16  1  0  0  0
 16 17  2  0  0  0
 17 18  1  0  0  0
 18 19  2  0  0  0
 19 20  1  0  0  0
 20 21  2  0  0  0
 21 15  1  0  0  0
  1 15  1  0  0  0
  1 13  1  0  0  0
 13 14  2  0  0  0
  1  2  1  0  0  0
  2  3  1  0  0  0
  3  4  1  0  0  0
  4  5  1  0  0  0
  5  6  1  0  0  0
  6  8  1  0  0  0
  8  9  2  0  0  0
  8 10  1  0  0  0
 10 11  1  0  0  0
  6  7  1  0  0  0
 21 16  1  0  0  0
  7  2  1  0  0  0
 11 12  1  0  0  0
M  END
> <minimizedAffinity>
-7.07559

> <minimizedRMSD>
0.19204

$$$$
P98535


 24 25  0  0  0  0  0  0  0  0999 V2000
    8.3585   14.6036   24.2952 C   0  0  0  0  0  0  0  0  0  0  0  0
    9.2774   15.7654   24.1893 N   0  0  0  0  0  0  0  0  0  0  0  0
    9.4363   16.2189   22.7927 C   0  0  0  0  0  0  0  0  0  0  0  0
   10.2782   15.2685   21.9385 C   0  0  0  0  0  0  0  0  0  0  0  0
   11.5695   14.8306   22.6382 C   0  0  0  0  0  0  0  0  0  0  0  0
   11.3358   14.4262   24.1050 C   0  0  0  0  0  0  0  0  0  0  0  0
   10.5916   15.5644   24.7963 C   0  0  0  0  0  0  0  0  0  0  0  0
   12.5906   13.9476   24.8558 C   0  0  0  0  0  0  0  0  0  0  0  0
   12.3844   13.3529   26.2486 C   0  0  0  0  0  0  0  0  0  0  0  0
   12.8536   14.2301   27.2611 O   0  0  0  0  0  0  0  0  0  0  0  0
   13.8043   14.3821   27.1421 H   0  0  0  0  0  0  0  0  0  0  0  0
    6.9451   15.0290   24.0049 N   0  0  0  0  0  0  0  0  0  0  0  0
    6.4450   14.4050   23.0647 O   0  0  0  0  0  0  0  0  0  0  0  0
    8.3894   13.9346   25.7015 C   0  0  0  0  0  0  0  0  0  0  0  0
    5.3699   11.9475   26.6594 C   0  0  0  0  0  0  0  0  0  0  0  0
    5.6091   10.6949   26.1138 C   0  0  0  0  0  0  0  0  0  0  0  0
    6.8220   10.4387   25.4591 C   0  0  0  0  0  0  0  0  0  0  0  0
    7.8030   11.4314   25.3382 C   0  0  0  0  0  0  0  0  0  0  0  0
    7.5178   12.7116   25.8556 C   0  0  0  0  0  0  0  0  0  0  0  0
    6.3125   12.9453   26.5225 C   0  0  0  0  0  0  0  0  0  0  0  0
    3.2584   12.7581   27.9636 C   0  0  0  0  0  0  0  0  0  0  0  0
    4.1928   12.3012   27.3693 C   0  0  0  0  0  0  0  0  0  0  0  0
    9.3866   11.1365   24.5673 S   0  0  0  0  0  0  0  0  0  0  0  0
    9.2534    9.4708   23.8636 C   0  0  0  0  0  0  0  0  0  0  0  0
 21 22  3  0  0  0
 22 15  1  0  0  0
 15 16  2  0  0  0
 16 17  1  0  0  0
 17 18  2  0  0  0
 18 23  1  0  0  0
 23 24  1  0  0  0
 18 19  1  0  0  0
 19 14  1  0  0  0
  1 14  1  0  0  0
  1 12  1  0  0  0
 12 13  2  0  0  0
  1  2  1  0  0  0
  2  3  1  0  0  0
  3  4  1  0  0  0
  4  5  1  0  0  0
  5  6  1  0  0  0
  6  8  1  0  0  0
  8  9  1  0  0  0
  9 10  1  0  0  0
  6  7  1  0  0  0
 19 20  2  0  0  0
 20 15  1  0  0  0
  7  2  1  0  0  0
 10 11  1  0  0  0
M  END
> <minimizedAffinity>
-5.73853

> <minimizedRMSD>
0.50034

$$$$
P98536


 23 24  0  0  0  0  0  0  0  0999 V2000
    8.4299   14.8993   24.0145 C   0  0  0  0  0  0  0  0  0  0  0  0
    9.2662   16.0612   23.6355 N   0  0  0  0  0  0  0  0  0  0  0  0
   10.6351   15.9672   24.1298 C   0  0  0  0  0  0  0  0  0  0  0  0
   11.4772   14.8733   23.4647 C   0  0  0  0  0  0  0  0  0  0  0  0
   11.0718   14.5712   22.0235 C   0  0  0  0  0  0  0  0  0  0  0  0
   10.4976   15.8060   21.3553 C   0  0  0  0  0  0  0  0  0  0  0  0
    9.2876   16.3513   22.1711 C   0  0  0  0  0  0  0  0  0  0  0  0
   10.1228   15.6039   19.8695 C   0  0  0  0  0  0  0  0  0  0  0  0
   11.2605   15.2743   18.9102 C   0  0  0  0  0  0  0  0  0  0  0  0
   11.0161   15.8385   17.6236 O   0  0  0  0  0  0  0  0  0  0  0  0
   10.1948   15.4719   17.2605 H   0  0  0  0  0  0  0  0  0  0  0  0
    6.9706   15.0876   23.7478 N   0  0  0  0  0  0  0  0  0  0  0  0
    6.5824   14.2219   22.9545 O   0  0  0  0  0  0  0  0  0  0  0  0
    8.5250   14.4877   25.5231 C   0  0  0  0  0  0  0  0  0  0  0  0
    7.8741   11.9449   25.4172 C   0  0  0  0  0  0  0  0  0  0  0  0
    6.8953   10.9665   25.6054 C   0  0  0  0  0  0  0  0  0  0  0  0
    5.7785   11.2376   26.3886 C   0  0  0  0  0  0  0  0  0  0  0  0
    5.6271   12.4875   26.9750 C   0  0  0  0  0  0  0  0  0  0  0  0
    6.5718   13.4858   26.7390 C   0  0  0  0  0  0  0  0  0  0  0  0
    7.6993   13.2504   25.9261 C   0  0  0  0  0  0  0  0  0  0  0  0
   10.6919   11.8377   25.2599 C   0  0  0  0  0  0  0  0  0  0  0  0
    9.1948   11.5453   24.3538 S   0  0  0  0  0  0  0  0  0  0  0  0
    9.1641    9.8668   23.8526 C   0  0  0  0  0  0  0  0  0  0  0  0
 21 22  3  0  0  0
 22 23  1  0  0  0
 22 15  1  0  0  0
 15 16  2  0  0  0
 16 17  1  0  0  0
 17 18  2  0  0  0
 18 19  1  0  0  0
 19 20  2  0  0  0
 20 14  1  0  0  0
  1 14  1  0  0  0
  1 12  1  0  0  0
 12 13  2  0  0  0
  1  2  1  0  0  0
  2  3  1  0  0  0
  3  4  1  0  0  0
  4  5  1  0  0  0
  5  6  1  0  0  0
  6  8  1  0  0  0
  8  9  1  0  0  0
  9 10  1  0  0  0
  6  7  1  0  0  0
 20 15  1  0  0  0
  7  2  1  0  0  0
 10 11  1  0  0  0
M  END
> <minimizedAffinity>
-6.71376

> <minimizedRMSD>
0.78092

$$$$
P100415


 25 27  0  0  0  0  0  0  0  0999 V2000
    9.1762   14.2474   22.7371 N   0  0  0  0  0  0  0  0  0  0  0  0
   10.0476   14.8524   23.7627 C   0  0  0  0  0  0  0  0  0  0  0  0
   11.5053   14.7481   23.3774 C   0  0  0  0  0  0  0  0  0  0  0  0
   11.7198   15.4331   22.0374 C   0  0  0  0  0  0  0  0  0  0  0  0
   10.8471   14.7238   20.9866 C   0  0  0  0  0  0  0  0  0  0  0  0
    9.3710   14.8223   21.3867 C   0  0  0  0  0  0  0  0  0  0  0  0
    8.0445   11.7523   24.3722 C   0  0  0  0  0  0  0  0  0  0  0  0
    7.3878   11.0134   25.3617 C   0  0  0  0  0  0  0  0  0  0  0  0
    6.2807   11.5282   26.0574 C   0  0  0  0  0  0  0  0  0  0  0  0
    5.7497   12.7673   25.7161 C   0  0  0  0  0  0  0  0  0  0  0  0
    6.3412   13.4532   24.6780 C   0  0  0  0  0  0  0  0  0  0  0  0
    7.5089   13.0003   24.0931 C   0  0  0  0  0  0  0  0  0  0  0  0
    7.8846   14.0900   23.1819 C   0  0  0  0  0  0  0  0  0  0  0  0
    6.9457   14.9690   22.9689 N   0  0  0  0  0  0  0  0  0  0  0  0
    5.8652   14.6479   23.9302 C   0  0  0  0  0  0  0  0  0  0  0  0
    9.2041    9.3262   23.5271 C   0  0  0  0  0  0  0  0  0  0  0  0
    9.4275   11.1197   23.4735 S   0  0  0  0  0  0  0  0  0  0  0  0
   11.1256   15.2211   19.5652 C   0  0  0  0  0  0  0  0  0  0  0  0
   10.7519   14.3035   18.5719 N   0  0  0  0  0  0  0  0  0  0  0  0
   10.4985   16.4298   19.2642 O   0  0  0  0  0  0  0  0  0  0  0  0
   12.4922   15.3489   19.4066 O   0  0  0  0  0  0  0  0  0  0  0  0
    9.7449   14.1468   18.6153 H   0  0  0  0  0  0  0  0  0  0  0  0
   11.2402   13.4209   18.7232 H   0  0  0  0  0  0  0  0  0  0  0  0
    9.5663   16.5020   19.3254 H   0  0  0  0  0  0  0  0  0  0  0  0
   13.0536   14.6172   19.5727 H   0  0  0  0  0  0  0  0  0  0  0  0
 16 17  1  0  0  0
 17  7  1  0  0  0
  7  8  2  0  0  0
  8  9  1  0  0  0
  9 10  2  0  0  0
 10 11  1  0  0  0
 11 12  2  0  0  0
 12 13  1  0  0  0
 13  1  1  0  0  0
  1  2  1  0  0  0
  2  3  1  0  0  0
  3  4  1  0  0  0
  4  5  1  0  0  0
  5 18  1  0  0  0
 18 19  1  0  0  0
 18 20  1  0  0  0
 18 21  1  0  0  0
  5  6  1  0  0  0
 13 14  2  0  0  0
 14 15  1  0  0  0
 12  7  1  0  0  0
  6  1  1  0  0  0
 15 11  1  0  0  0
 19 22  1  0  0  0
 19 23  1  0  0  0
 20 24  1  0  0  0
 21 25  1  0  0  0
M  END
> <minimizedAffinity>
-7.69958

> <minimizedRMSD>
0.65070

$$$$
P100567


 31 34  0  0  0  0  0  0  0  0999 V2000
    7.4583   13.9967   23.5218 C   0  0  0  0  0  0  0  0  0  0  0  0
    6.3230   14.3734   22.8838 C   0  0  0  0  0  0  0  0  0  0  0  0
    4.9998   14.1152   23.1664 N   0  0  0  0  0  0  0  0  0  0  0  0
    4.7613   13.5703   23.9510 H   0  0  0  0  0  0  0  0  0  0  0  0
    4.2926   14.4755   22.5840 H   0  0  0  0  0  0  0  0  0  0  0  0
    8.7367   14.4208   23.1159 N   0  0  0  0  0  0  0  0  0  0  0  0
    8.8487   14.9399   21.7627 C   0  0  0  0  0  0  0  0  0  0  0  0
   10.2111   15.3604   21.2264 C   0  0  0  0  0  0  0  0  0  0  0  0
   10.9943   16.0398   22.3403 C   0  0  0  0  0  0  0  0  0  0  0  0
   11.1057   15.0592   23.4957 C   0  0  0  0  0  0  0  0  0  0  0  0
    9.7479   14.6945   24.0412 C   0  0  0  0  0  0  0  0  0  0  0  0
    9.6170   14.6335   25.2617 O   0  0  0  0  0  0  0  0  0  0  0  0
   11.0982   14.3123   20.7361 N   0  0  0  0  0  0  0  0  0  0  0  0
   11.6713   14.8475   19.5135 C   0  0  0  0  0  0  0  0  0  0  0  0
   11.0759   16.0845   19.1820 O   0  0  0  0  0  0  0  0  0  0  0  0
    9.9133   16.1656   19.9609 C   0  0  0  0  0  0  0  0  0  0  0  0
    9.5401   17.5312   20.2005 N   0  0  0  0  0  0  0  0  0  0  0  0
   10.5732   13.4594   20.5428 H   0  0  0  0  0  0  0  0  0  0  0  0
   10.3038   18.0145   20.6733 H   0  0  0  0  0  0  0  0  0  0  0  0
    8.7060   17.5578   20.7870 H   0  0  0  0  0  0  0  0  0  0  0  0
    5.8192    9.9709   27.2902 C   0  0  0  0  0  0  0  0  0  0  0  0
    6.4426   11.0153   26.4121 C   0  0  0  0  0  0  0  0  0  0  0  0
    6.1102   12.3614   26.6339 C   0  0  0  0  0  0  0  0  0  0  0  0
    6.5172   13.3606   25.7618 C   0  0  0  0  0  0  0  0  0  0  0  0
    7.2990   13.0520   24.6405 C   0  0  0  0  0  0  0  0  0  0  0  0
    7.8112   11.7462   24.4868 C   0  0  0  0  0  0  0  0  0  0  0  0
    8.7203   11.1266   23.5751 C   0  0  0  0  0  0  0  0  0  0  0  0
    8.7329    9.7832   23.8467 C   0  0  0  0  0  0  0  0  0  0  0  0
    7.8771    9.5734   24.8931 N   0  0  0  0  0  0  0  0  0  0  0  0
    7.3406   10.7544   25.3523 C   0  0  0  0  0  0  0  0  0  0  0  0
    7.6707    8.6879   25.2706 H   0  0  0  0  0  0  0  0  0  0  0  0
 21 22  1  0  0  0
 22 23  2  0  0  0
 23 24  1  0  0  0
 24 25  2  0  0  0
 25  1  1  0  0  0
  1  2  2  0  0  0
  2  3  1  0  0  0
  1  6  1  0  0  0
  6  7  1  0  0  0
  8  7  1  0  0  0
  8  9  1  0  0  0
  9 10  1  0  0  0
 10 11  1  0  0  0
 11 12  2  0  0  0
  8 13  1  0  0  0
 13 14  1  0  0  0
 14 15  1  0  0  0
 15 16  1  0  0  0
 16 17  1  0  0  0
 25 26  1  0  0  0
 26 27  1  0  0  0
 27 28  2  0  0  0
 28 29  1  0  0  0
 29 30  1  0  0  0
 30 22  1  0  0  0
 11  6  1  0  0  0
 30 26  2  0  0  0
 16  8  1  0  0  0
  3  4  1  0  0  0
  3  5  1  0  0  0
 13 18  1  0  0  0
 17 19  1  0  0  0
 17 20  1  0  0  0
 29 31  1  0  0  0
M  END
> <minimizedAffinity>
-8.62438

> <minimizedRMSD>
0.36830

$$$$
P100630


 28 31  0  0  0  0  0  0  0  0999 V2000
   10.1487    9.3277   22.8214 C   0  0  0  0  0  0  0  0  0  0  0  0
    9.3476   10.3537   23.5587 C   0  0  0  0  0  0  0  0  0  0  0  0
    9.5731   11.7065   23.2535 C   0  0  0  0  0  0  0  0  0  0  0  0
    8.7988   12.6549   23.8732 C   0  0  0  0  0  0  0  0  0  0  0  0
    7.9426   12.2333   24.8518 C   0  0  0  0  0  0  0  0  0  0  0  0
    7.2064   13.1674   25.5471 C   0  0  0  0  0  0  0  0  0  0  0  0
    6.3538   12.4311   26.3285 C   0  0  0  0  0  0  0  0  0  0  0  0
    6.6088   11.0691   26.0583 N   0  0  0  0  0  0  0  0  0  0  0  0
    7.6425   10.9511   25.1526 C   0  0  0  0  0  0  0  0  0  0  0  0
    8.3517    9.9520   24.4959 C   0  0  0  0  0  0  0  0  0  0  0  0
    7.6982   14.5235   25.0610 C   0  0  0  0  0  0  0  0  0  0  0  0
    8.4932   14.1065   23.6667 C   0  0  0  0  0  0  0  0  0  0  0  0
    7.4879   14.0602   22.6264 O   0  0  0  0  0  0  0  0  0  0  0  0
    6.1201   10.3137   26.4580 H   0  0  0  0  0  0  0  0  0  0  0  0
    7.2088   14.9627   22.4061 H   0  0  0  0  0  0  0  0  0  0  0  0
    9.6322   14.8526   23.1668 N   0  0  0  0  0  0  0  0  0  0  0  0
    9.7302   14.9590   21.7168 C   0  0  0  0  0  0  0  0  0  0  0  0
   10.6965   16.0283   21.2687 C   0  0  0  0  0  0  0  0  0  0  0  0
   12.0602   15.9425   21.9461 C   0  0  0  0  0  0  0  0  0  0  0  0
   12.0942   14.9468   23.0937 C   0  0  0  0  0  0  0  0  0  0  0  0
   10.8104   14.8590   23.9097 C   0  0  0  0  0  0  0  0  0  0  0  0
   10.8610   14.6868   25.1263 O   0  0  0  0  0  0  0  0  0  0  0  0
   10.6807   16.0103   19.7484 C   0  0  0  0  0  0  0  0  0  0  0  0
   10.1927   16.8831   19.1597 O   0  0  0  0  0  0  0  0  0  0  0  0
   11.3533   14.7365   19.2507 N   0  0  0  0  0  0  0  0  0  0  0  0
   11.4834   14.2349   17.9808 O   0  0  0  0  0  0  0  0  0  0  0  0
   11.7610   14.1835   19.9558 H   0  0  0  0  0  0  0  0  0  0  0  0
   11.0572   14.8364   17.3503 H   0  0  0  0  0  0  0  0  0  0  0  0
  1  2  1  0  0  0
  2  3  2  0  0  0
  3  4  1  0  0  0
  4  5  2  0  0  0
  5  6  1  0  0  0
  6  7  2  0  0  0
  7  8  1  0  0  0
  8  9  1  0  0  0
  9 10  2  0  0  0
  6 11  1  0  0  0
 11 12  1  0  0  0
 12 13  1  0  0  0
 12 16  1  0  0  0
 16 17  1  0  0  0
 17 18  1  0  0  0
 18 23  1  0  0  0
 23 24  2  0  0  0
 23 25  1  0  0  0
 25 26  1  0  0  0
 18 19  1  0  0  0
 19 20  1  0  0  0
 20 21  1  0  0  0
 21 22  2  0  0  0
 10  2  1  0  0  0
 21 16  1  0  0  0
 12  4  1  0  0  0
  9  5  1  0  0  0
  8 14  1  0  0  0
 13 15  1  0  0  0
 25 27  1  0  0  0
 26 28  1  0  0  0
M  END
> <minimizedAffinity>
-8.50532

> <minimizedRMSD>
0.15655

$$$$
P100669


 30 33  0  0  0  0  0  0  0  0999 V2000
   10.0248    9.3927   23.0269 C   0  0  0  0  0  0  0  0  0  0  0  0
    9.2671   10.5192   23.6561 C   0  0  0  0  0  0  0  0  0  0  0  0
    9.5455   11.8337   23.2276 C   0  0  0  0  0  0  0  0  0  0  0  0
    8.7699   12.8588   23.7121 C   0  0  0  0  0  0  0  0  0  0  0  0
    7.8663   12.5488   24.6927 C   0  0  0  0  0  0  0  0  0  0  0  0
    7.0737   13.5492   25.2091 C   0  0  0  0  0  0  0  0  0  0  0  0
    6.1981   12.9125   26.0514 C   0  0  0  0  0  0  0  0  0  0  0  0
    6.4769   11.5336   25.9759 N   0  0  0  0  0  0  0  0  0  0  0  0
    7.5410   11.3085   25.1279 C   0  0  0  0  0  0  0  0  0  0  0  0
    8.2442   10.2294   24.6072 C   0  0  0  0  0  0  0  0  0  0  0  0
    7.5436   14.8347   24.5474 C   0  0  0  0  0  0  0  0  0  0  0  0
    8.4729   14.2752   23.2998 C   0  0  0  0  0  0  0  0  0  0  0  0
    7.5871   14.0753   22.1838 O   0  0  0  0  0  0  0  0  0  0  0  0
    5.9832   10.8319   26.4588 H   0  0  0  0  0  0  0  0  0  0  0  0
    7.3206   14.9360   21.8244 H   0  0  0  0  0  0  0  0  0  0  0  0
    9.6382   15.0136   22.8461 N   0  0  0  0  0  0  0  0  0  0  0  0
    9.6607   15.6204   21.5047 C   0  0  0  0  0  0  0  0  0  0  0  0
   10.8404   15.0665   20.7243 C   0  0  0  0  0  0  0  0  0  0  0  0
   12.0844   15.6058   21.4397 C   0  0  0  0  0  0  0  0  0  0  0  0
   12.1097   15.2130   22.9134 C   0  0  0  0  0  0  0  0  0  0  0  0
   10.7747   15.0686   23.6391 C   0  0  0  0  0  0  0  0  0  0  0  0
   10.7704   14.8818   24.8574 O   0  0  0  0  0  0  0  0  0  0  0  0
   10.7606   15.3944   19.2251 C   0  0  0  0  0  0  0  0  0  0  0  0
   11.7928   14.7651   18.4785 N   0  0  0  0  0  0  0  0  0  0  0  0
    9.5479   15.0457   18.6723 O   0  0  0  0  0  0  0  0  0  0  0  0
   10.8068   16.7450   18.9803 O   0  0  0  0  0  0  0  0  0  0  0  0
   11.7718   13.7598   18.6498 H   0  0  0  0  0  0  0  0  0  0  0  0
   12.6969   15.1400   18.7654 H   0  0  0  0  0  0  0  0  0  0  0  0
    9.2587   14.1549   18.7010 H   0  0  0  0  0  0  0  0  0  0  0  0
   11.5469   17.2468   19.2602 H   0  0  0  0  0  0  0  0  0  0  0  0
  1  2  1  0  0  0
  2  3  2  0  0  0
  3  4  1  0  0  0
  4  5  2  0  0  0
  5  6  1  0  0  0
  6  7  2  0  0  0
  7  8  1  0  0  0
  8  9  1  0  0  0
  9 10  2  0  0  0
  6 11  1  0  0  0
 11 12  1  0  0  0
 12 13  1  0  0  0
 12 16  1  0  0  0
 16 17  1  0  0  0
 17 18  1  0  0  0
 18 23  1  0  0  0
 23 24  1  0  0  0
 23 25  1  0  0  0
 23 26  1  0  0  0
 18 19  1  0  0  0
 19 20  1  0  0  0
 20 21  1  0  0  0
 21 22  2  0  0  0
 10  2  1  0  0  0
 21 16  1  0  0  0
 12  4  1  0  0  0
  9  5  1  0  0  0
  8 14  1  0  0  0
 13 15  1  0  0  0
 24 27  1  0  0  0
 24 28  1  0  0  0
 25 29  1  0  0  0
 26 30  1  0  0  0
M  END
> <minimizedAffinity>
-8.28020

> <minimizedRMSD>
0.16233

$$$$
P101303


 33 35  0  0  0  0  0  0  0  0999 V2000
    8.9810   13.7531   23.0039 C   0  0  0  0  0  0  0  0  0  0  0  0
    7.7177   13.5844   22.4275 O   0  0  0  0  0  0  0  0  0  0  0  0
    9.8852   13.0147   22.2711 O   0  0  0  0  0  0  0  0  0  0  0  0
    6.9728   14.0167   22.7966 H   0  0  0  0  0  0  0  0  0  0  0  0
   10.7903   13.0078   22.5137 H   0  0  0  0  0  0  0  0  0  0  0  0
    9.3688   15.1396   22.9522 N   0  0  0  0  0  0  0  0  0  0  0  0
   10.6975   15.3710   23.5566 C   0  0  0  0  0  0  0  0  0  0  0  0
   11.9027   15.0617   22.6636 C   0  0  0  0  0  0  0  0  0  0  0  0
   11.8531   15.9316   21.4144 C   0  0  0  0  0  0  0  0  0  0  0  0
   12.0030   17.2594   21.8761 O   0  0  0  0  0  0  0  0  0  0  0  0
   10.5197   15.7478   20.6649 C   0  0  0  0  0  0  0  0  0  0  0  0
   10.6454   14.4855   19.8399 C   0  0  0  0  0  0  0  0  0  0  0  0
   11.0156   14.9463   18.5063 N   0  0  0  0  0  0  0  0  0  0  0  0
   10.3060   16.1558   18.3681 N   0  0  0  0  0  0  0  0  0  0  0  0
   10.3424   16.7959   19.6378 N   0  0  0  0  0  0  0  0  0  0  0  0
    9.2981   15.7860   21.6284 C   0  0  0  0  0  0  0  0  0  0  0  0
   11.2934   17.4652   22.5047 H   0  0  0  0  0  0  0  0  0  0  0  0
   10.7303   14.2728   17.7955 H   0  0  0  0  0  0  0  0  0  0  0  0
    9.3410   15.9684   18.0960 H   0  0  0  0  0  0  0  0  0  0  0  0
    9.4685   17.2965   19.7996 H   0  0  0  0  0  0  0  0  0  0  0  0
    8.9367   13.2389   24.3442 N   0  0  0  0  0  0  0  0  0  0  0  0
    9.6174   13.5515   24.9831 H   0  0  0  0  0  0  0  0  0  0  0  0
    5.9143   11.9038   26.0934 C   0  0  0  0  0  0  0  0  0  0  0  0
    6.2056   10.5461   26.0823 C   0  0  0  0  0  0  0  0  0  0  0  0
    7.3328   10.0715   25.4144 C   0  0  0  0  0  0  0  0  0  0  0  0
    8.1889   10.9221   24.7178 C   0  0  0  0  0  0  0  0  0  0  0  0
    7.9746   12.3119   24.7991 C   0  0  0  0  0  0  0  0  0  0  0  0
    6.8121   12.7836   25.4667 C   0  0  0  0  0  0  0  0  0  0  0  0
    6.5532   14.5058   25.5573 Cl  0  0  0  0  0  0  0  0  0  0  0  0
    3.7646   11.5301   27.0635 C   0  0  0  0  0  0  0  0  0  0  0  0
    4.8095   12.4309   26.7061 O   0  0  0  0  0  0  0  0  0  0  0  0
    9.5868   10.2876   23.8144 S   0  0  0  0  0  0  0  0  0  0  0  0
    9.2550    8.5474   23.5312 C   0  0  0  0  0  0  0  0  0  0  0  0
 30 31  1  0  0  0
 31 23  1  0  0  0
 23 24  2  0  0  0
 24 25  1  0  0  0
 25 26  2  0  0  0
 26 32  1  0  0  0
 32 33  1  0  0  0
 26 27  1  0  0  0
 27 21  1  0  0  0
 21  1  1  0  0  0
  1  2  1  0  0  0
  1  3  1  0  0  0
  1  6  1  0  0  0
  6  7  1  0  0  0
  7  8  1  0  0  0
  8  9  1  0  0  0
  9 10  1  0  0  0
  9 11  1  0  0  0
 11 12  1  0  0  0
 12 13  1  0  0  0
 13 14  1  0  0  0
 14 15  1  0  0  0
 11 16  1  0  0  0
 27 28  2  0  0  0
 28 29  1  0  0  0
 28 23  1  0  0  0
 16  6  1  0  0  0
 15 11  1  0  0  0
 21 22  1  0  0  0
  2  4  1  0  0  0
  3  5  1  0  0  0
 10 17  1  0  0  0
 13 18  1  0  0  0
 14 19  1  0  0  0
 15 20  1  0  0  0
M  END
> <minimizedAffinity>
-7.52506

> <minimizedRMSD>
0.43746

$$$$
P101421


 33 37  0  0  0  0  0  0  0  0999 V2000
    8.3663   13.6116   24.3924 N   0  0  0  0  0  0  0  0  0  0  0  0
    8.8311   14.4997   25.3913 N   0  0  0  0  0  0  0  0  0  0  0  0
    9.2220   15.8248   25.0196 N   0  0  0  0  0  0  0  0  0  0  0  0
    8.0856   16.5060   24.3808 C   0  0  0  0  0  0  0  0  0  0  0  0
    8.2688   16.5130   22.9754 O   0  0  0  0  0  0  0  0  0  0  0  0
    9.6753   16.3550   22.7167 C   0  0  0  0  0  0  0  0  0  0  0  0
   10.3187   15.8242   24.0270 C   0  0  0  0  0  0  0  0  0  0  0  0
   10.8428   14.4293   23.6579 C   0  0  0  0  0  0  0  0  0  0  0  0
    9.9313   14.0736   22.6011 N   0  0  0  0  0  0  0  0  0  0  0  0
    8.6450   13.6659   23.0107 C   0  0  0  0  0  0  0  0  0  0  0  0
    7.8155   13.2578   22.1884 O   0  0  0  0  0  0  0  0  0  0  0  0
    9.9592   15.2274   21.7042 C   0  0  0  0  0  0  0  0  0  0  0  0
    9.0145   15.1483   20.5948 N   0  0  0  0  0  0  0  0  0  0  0  0
    9.7930   15.2221   19.3526 C   0  0  0  0  0  0  0  0  0  0  0  0
   10.9229   16.0620   19.6774 N   0  0  0  0  0  0  0  0  0  0  0  0
   10.3294   17.3756   19.9639 O   0  0  0  0  0  0  0  0  0  0  0  0
   11.3365   15.4499   20.9455 C   0  0  0  0  0  0  0  0  0  0  0  0
   12.3866   16.2766   21.4864 N   0  0  0  0  0  0  0  0  0  0  0  0
    9.6424   14.0606   25.8265 H   0  0  0  0  0  0  0  0  0  0  0  0
    8.3560   15.9259   20.6408 H   0  0  0  0  0  0  0  0  0  0  0  0
   10.0509   17.7926   19.1335 H   0  0  0  0  0  0  0  0  0  0  0  0
   12.0672   17.2441   21.5339 H   0  0  0  0  0  0  0  0  0  0  0  0
   13.2085   16.2190   20.8850 H   0  0  0  0  0  0  0  0  0  0  0  0
    6.2540   11.0586   26.1525 C   0  0  0  0  0  0  0  0  0  0  0  0
    6.9097    9.9101   25.6828 C   0  0  0  0  0  0  0  0  0  0  0  0
    8.0015    9.9979   24.8099 C   0  0  0  0  0  0  0  0  0  0  0  0
    8.6867    8.8391   24.1560 C   0  0  0  0  0  0  0  0  0  0  0  0
    8.4270   11.2449   24.4139 C   0  0  0  0  0  0  0  0  0  0  0  0
    7.7996   12.4072   24.8679 C   0  0  0  0  0  0  0  0  0  0  0  0
    6.7179   12.3225   25.7534 C   0  0  0  0  0  0  0  0  0  0  0  0
    5.8758   13.7417   26.2886 Cl  0  0  0  0  0  0  0  0  0  0  0  0
    4.4248    9.8307   27.0953 C   0  0  0  0  0  0  0  0  0  0  0  0
    5.1591   11.0412   26.9795 O   0  0  0  0  0  0  0  0  0  0  0  0
 32 33  1  0  0  0
 33 24  1  0  0  0
 24 25  2  0  0  0
 25 26  1  0  0  0
 26 27  1  0  0  0
 26 28  2  0  0  0
 28 29  1  0  0  0
 29  1  1  0  0  0
  1  2  1  0  0  0
  2  3  1  0  0  0
  3  4  1  0  0  0
  4  5  1  0  0  0
  6  5  1  0  0  0
  6  7  1  0  0  0
  7  8  1  0  0  0
  8  9  1  0  0  0
  9 10  1  0  0  0
 10 11  2  0  0  0
  9 12  1  0  0  0
 12 13  1  0  0  0
 13 14  1  0  0  0
 14 15  1  0  0  0
 15 16  1  0  0  0
 15 17  1  0  0  0
 17 18  1  0  0  0
 29 30  2  0  0  0
 30 31  1  0  0  0
 30 24  1  0  0  0
 10  1  1  0  0  0
 17 12  1  0  0  0
  7  3  1  0  0  0
 12  6  1  0  0  0
  2 19  1  0  0  0
 13 20  1  0  0  0
 16 21  1  0  0  0
 18 22  1  0  0  0
 18 23  1  0  0  0
M  END
> <minimizedAffinity>
-6.88499

> <minimizedRMSD>
0.18088

$$$$
P102852


 16 15  0  0  0  0  0  0  0  0999 V2000
    9.2989   14.5570   23.4267 C   0  0  0  0  0  0  0  0  0  0  0  0
    8.9205   13.0744   23.4860 C   0  0  0  0  0  0  0  0  0  0  0  0
    7.5046   12.9979   23.1488 N   0  0  0  0  0  0  0  0  0  0  0  0
    6.9619   13.5152   23.8404 H   0  0  0  0  0  0  0  0  0  0  0  0
    7.2083   12.0219   23.1449 H   0  0  0  0  0  0  0  0  0  0  0  0
    9.2150   12.3640   24.8096 C   0  0  0  0  0  0  0  0  0  0  0  0
    9.3802    9.9389   24.0772 C   0  0  0  0  0  0  0  0  0  0  0  0
   10.1307   11.1465   24.6118 C   0  0  0  0  0  0  0  0  0  0  0  0
   10.7846   14.9074   23.4647 C   0  0  0  0  0  0  0  0  0  0  0  0
   11.4646   14.9451   22.0895 C   0  0  0  0  0  0  0  0  0  0  0  0
   11.2892   16.2028   21.2322 C   0  0  0  0  0  0  0  0  0  0  0  0
   10.1427   16.0928   20.3232 N   0  0  0  0  0  0  0  0  0  0  0  0
    9.4797   16.8326   20.5544 H   0  0  0  0  0  0  0  0  0  0  0  0
   10.4777   16.2082   18.9353 N   0  0  0  0  0  0  0  0  0  0  0  0
   11.4971   15.2468   18.5588 C   0  0  0  0  0  0  0  0  0  0  0  0
   10.8256   17.1498   18.7543 H   0  0  0  0  0  0  0  0  0  0  0  0
  7  8  1  0  0  0
  8  6  1  0  0  0
  6  2  1  0  0  0
  2  3  1  0  0  0
  2  1  1  0  0  0
  1  9  1  0  0  0
  9 10  1  0  0  0
 10 11  1  0  0  0
 11 12  1  0  0  0
 12 14  1  0  0  0
 14 15  1  0  0  0
  3  4  1  0  0  0
  3  5  1  0  0  0
 12 13  1  0  0  0
 14 16  1  0  0  0
M  END
> <minimizedAffinity>
-3.85676

> <minimizedRMSD>
1.52353

$$$$
P103294


 34 36  0  0  0  0  0  0  0  0999 V2000
    9.2899   14.8407   22.7615 N   0  0  0  0  0  0  0  0  0  0  0  0
    9.6230   14.8878   21.3013 C   0  0  0  0  0  0  0  0  0  0  0  0
   10.9392   15.5760   20.8881 C   0  0  0  0  0  0  0  0  0  0  0  0
   10.8324   16.9932   21.1630 O   0  0  0  0  0  0  0  0  0  0  0  0
   12.0573   15.0894   21.7879 C   0  0  0  0  0  0  0  0  0  0  0  0
   11.7458   15.2475   23.2763 C   0  0  0  0  0  0  0  0  0  0  0  0
   10.2700   15.4406   23.6395 C   0  0  0  0  0  0  0  0  0  0  0  0
    9.8861   16.8291   23.7037 N   0  0  0  0  0  0  0  0  0  0  0  0
   10.1284   17.3763   20.6167 H   0  0  0  0  0  0  0  0  0  0  0  0
    9.9312   17.2379   22.7702 H   0  0  0  0  0  0  0  0  0  0  0  0
   10.5219   17.3293   24.3250 H   0  0  0  0  0  0  0  0  0  0  0  0
    9.3351    8.9866   23.7296 C   0  0  0  0  0  0  0  0  0  0  0  0
    9.1438   10.4396   23.9696 N   0  0  0  0  0  0  0  0  0  0  0  0
    9.3478   11.1347   22.7705 N   0  0  0  0  0  0  0  0  0  0  0  0
    9.9633   12.4374   22.9511 C   0  0  0  0  0  0  0  0  0  0  0  0
    8.8714   13.4977   23.1886 C   0  0  0  0  0  0  0  0  0  0  0  0
    7.6926   13.1073   22.4679 O   0  0  0  0  0  0  0  0  0  0  0  0
    8.4741   13.4392   24.6743 C   0  0  0  0  0  0  0  0  0  0  0  0
    7.7412   12.1865   25.1513 C   0  0  0  0  0  0  0  0  0  0  0  0
    6.6720   12.4631   26.0483 C   0  0  0  0  0  0  0  0  0  0  0  0
    5.9284   11.4580   26.6498 C   0  0  0  0  0  0  0  0  0  0  0  0
    6.2451   10.1467   26.3760 C   0  0  0  0  0  0  0  0  0  0  0  0
    7.2920    9.8608   25.4941 C   0  0  0  0  0  0  0  0  0  0  0  0
    8.0740   10.8394   24.8377 C   0  0  0  0  0  0  0  0  0  0  0  0
    8.4441   11.2654   22.3158 H   0  0  0  0  0  0  0  0  0  0  0  0
    7.8759   13.1230   21.5155 H   0  0  0  0  0  0  0  0  0  0  0  0
   11.2852   15.4094   19.3553 C   0  0  0  0  0  0  0  0  0  0  0  0
   10.8811   16.5128   18.5558 N   0  0  0  0  0  0  0  0  0  0  0  0
   12.6485   15.3518   19.1833 O   0  0  0  0  0  0  0  0  0  0  0  0
   10.8569   14.2670   18.7155 O   0  0  0  0  0  0  0  0  0  0  0  0
   11.1814   17.3813   18.9983 H   0  0  0  0  0  0  0  0  0  0  0  0
    9.8653   16.5118   18.4634 H   0  0  0  0  0  0  0  0  0  0  0  0
   13.1939   16.0287   19.5330 H   0  0  0  0  0  0  0  0  0  0  0  0
    9.9432   14.0617   18.6850 H   0  0  0  0  0  0  0  0  0  0  0  0
 12 13  1  0  0  0
 13 14  1  0  0  0
 14 15  1  0  0  0
 15 16  1  0  0  0
 16 17  1  0  0  0
 16  1  1  0  0  0
  1  2  1  0  0  0
  2  3  1  0  0  0
  3  4  1  0  0  0
  3 27  1  0  0  0
 27 28  1  0  0  0
 27 29  1  0  0  0
 27 30  1  0  0  0
  3  5  1  0  0  0
  5  6  1  0  0  0
  6  7  1  0  0  0
  7  8  1  0  0  0
 16 18  1  0  0  0
 18 19  1  0  0  0
 19 20  2  0  0  0
 20 21  1  0  0  0
 21 22  2  0  0  0
 22 23  1  0  0  0
 23 24  2  0  0  0
 24 13  1  0  0  0
  7  1  1  0  0  0
 24 19  1  0  0  0
 14 25  1  0  0  0
 17 26  1  0  0  0
  4  9  1  0  0  0
 28 31  1  0  0  0
 28 32  1  0  0  0
 29 33  1  0  0  0
 30 34  1  0  0  0
  8 10  1  0  0  0
  8 11  1  0  0  0
M  END
> <minimizedAffinity>
-8.71370

> <minimizedRMSD>
0.46795

$$$$
P103515


 27 29  0  0  0  0  0  0  0  0999 V2000
    7.9929   15.1426   23.5878 C   0  0  0  0  0  0  0  0  0  0  0  0
    7.5525   14.3786   22.4990 O   0  0  0  0  0  0  0  0  0  0  0  0
    6.8426   15.9207   23.8735 O   0  0  0  0  0  0  0  0  0  0  0  0
    8.1297   13.7592   22.0973 H   0  0  0  0  0  0  0  0  0  0  0  0
    6.8578   16.5382   24.5781 H   0  0  0  0  0  0  0  0  0  0  0  0
    9.0568   16.0592   23.1565 N   0  0  0  0  0  0  0  0  0  0  0  0
   10.4176   15.9720   23.6987 C   0  0  0  0  0  0  0  0  0  0  0  0
   11.4552   15.2367   22.8398 C   0  0  0  0  0  0  0  0  0  0  0  0
   11.4049   15.7990   21.4395 C   0  0  0  0  0  0  0  0  0  0  0  0
   12.2084   15.1125   20.3614 C   0  0  0  0  0  0  0  0  0  0  0  0
   11.5094   15.4500   19.1608 N   0  0  0  0  0  0  0  0  0  0  0  0
   10.2698   15.9834   19.4456 C   0  0  0  0  0  0  0  0  0  0  0  0
    9.5875   16.5490   18.6215 O   0  0  0  0  0  0  0  0  0  0  0  0
    9.9868   15.6683   20.8957 C   0  0  0  0  0  0  0  0  0  0  0  0
    9.0404   16.5068   21.7384 C   0  0  0  0  0  0  0  0  0  0  0  0
   11.8653   15.3192   18.2523 H   0  0  0  0  0  0  0  0  0  0  0  0
    8.3317   14.2578   24.8548 C   0  0  0  0  0  0  0  0  0  0  0  0
    8.1476   15.1041   26.1404 C   0  0  0  0  0  0  0  0  0  0  0  0
    8.2189   11.6811   24.5119 C   0  0  0  0  0  0  0  0  0  0  0  0
    7.6562   10.4534   24.8964 C   0  0  0  0  0  0  0  0  0  0  0  0
    6.5589   10.4300   25.7287 C   0  0  0  0  0  0  0  0  0  0  0  0
    6.0566   11.6368   26.1498 C   0  0  0  0  0  0  0  0  0  0  0  0
    4.9686   11.6182   26.9302 F   0  0  0  0  0  0  0  0  0  0  0  0
    6.5920   12.8367   25.8462 N   0  0  0  0  0  0  0  0  0  0  0  0
    7.6733   12.8765   25.0238 C   0  0  0  0  0  0  0  0  0  0  0  0
   10.6229   12.1625   23.7433 C   0  0  0  0  0  0  0  0  0  0  0  0
    9.2725   11.6068   23.4577 C   0  0  0  0  0  0  0  0  0  0  0  0
 26 27  1  0  0  0
 27 19  1  0  0  0
 19 20  2  0  0  0
 20 21  1  0  0  0
 21 22  2  0  0  0
 22 23  1  0  0  0
 22 24  1  0  0  0
 24 25  2  0  0  0
 25 17  1  0  0  0
 17 18  1  0  0  0
 17  1  1  0  0  0
  1  2  1  0  0  0
  1  3  1  0  0  0
  1  6  1  0  0  0
  6  7  1  0  0  0
  7  8  1  0  0  0
  9  8  1  0  0  0
  9 10  1  0  0  0
 10 11  1  0  0  0
 11 12  1  0  0  0
 12 13  2  0  0  0
 12 14  1  0  0  0
 14 15  1  0  0  0
 25 19  1  0  0  0
 15  6  1  0  0  0
 14  9  1  0  0  0
  2  4  1  0  0  0
  3  5  1  0  0  0
 11 16  1  0  0  0
M  END
> <minimizedAffinity>
-6.93189

> <minimizedRMSD>
0.56686

$$$$
P103688


 28 29  0  0  0  0  0  0  0  0999 V2000
    6.2945   13.2797   26.0996 C   0  0  0  0  0  0  0  0  0  0  0  0
    7.4028   12.8516   25.1880 C   0  0  0  0  0  0  0  0  0  0  0  0
    7.7505   11.5851   24.9303 C   0  0  0  0  0  0  0  0  0  0  0  0
    8.7359   11.1026   24.1496 C   0  0  0  0  0  0  0  0  0  0  0  0
    9.7870   11.5625   23.4341 N   0  0  0  0  0  0  0  0  0  0  0  0
   10.7020   12.4803   23.8209 C   0  0  0  0  0  0  0  0  0  0  0  0
   10.9928   13.5024   24.6480 C   0  0  0  0  0  0  0  0  0  0  0  0
   10.3024   14.3225   25.4500 C   0  0  0  0  0  0  0  0  0  0  0  0
    8.9862   14.5270   25.5022 C   0  0  0  0  0  0  0  0  0  0  0  0
    8.2192   13.8160   24.5641 N   0  0  0  0  0  0  0  0  0  0  0  0
    7.5576   14.6636   23.2602 S   0  0  0  0  0  0  0  0  0  0  0  0
    6.8670   13.7557   22.3594 O   0  0  0  0  0  0  0  0  0  0  0  0
    6.8662   15.8308   23.7781 O   0  0  0  0  0  0  0  0  0  0  0  0
    8.9525   15.2086   22.4706 N   0  0  0  0  0  0  0  0  0  0  0  0
    9.6039   16.3992   23.0009 C   0  0  0  0  0  0  0  0  0  0  0  0
   11.0911   16.2969   22.6890 C   0  0  0  0  0  0  0  0  0  0  0  0
   11.2598   16.4270   21.1985 C   0  0  0  0  0  0  0  0  0  0  0  0
   10.5060   15.2719   20.5456 C   0  0  0  0  0  0  0  0  0  0  0  0
    9.0395   15.1598   21.0007 C   0  0  0  0  0  0  0  0  0  0  0  0
   10.6039   15.4322   19.0260 C   0  0  0  0  0  0  0  0  0  0  0  0
   11.3517   14.3360   18.4818 N   0  0  0  0  0  0  0  0  0  0  0  0
   10.1507   16.4067   18.4975 O   0  0  0  0  0  0  0  0  0  0  0  0
   11.6517   13.6050   19.0690 H   0  0  0  0  0  0  0  0  0  0  0  0
   11.5650   14.3146   17.5209 H   0  0  0  0  0  0  0  0  0  0  0  0
    8.6174    9.6958   24.0324 O   0  0  0  0  0  0  0  0  0  0  0  0
    9.5078    9.0300   23.1450 C   0  0  0  0  0  0  0  0  0  0  0  0
   10.6299    8.6709   23.8257 F   0  0  0  0  0  0  0  0  0  0  0  0
    8.9127    7.8476   22.8180 F   0  0  0  0  0  0  0  0  0  0  0  0
  1  2  1  0  0  0
  2  3  2  0  0  0
  3  4  1  0  0  0
  4 25  1  0  0  0
 25 26  1  0  0  0
 26 27  1  0  0  0
 26 28  1  0  0  0
  4  5  2  0  0  0
  5  6  1  0  0  0
  6  7  2  0  0  0
  7  8  1  0  0  0
  8  9  2  0  0  0
  9 10  1  0  0  0
 10 11  1  0  0  0
 11 12  2  0  0  0
 11 13  2  0  0  0
 11 14  1  0  0  0
 14 15  1  0  0  0
 15 16  1  0  0  0
 16 17  1  0  0  0
 17 18  1  0  0  0
 18 20  1  0  0  0
 20 21  1  0  0  0
 20 22  2  0  0  0
 18 19  1  0  0  0
 10  2  1  0  0  0
 19 14  1  0  0  0
 21 23  1  0  0  0
 21 24  1  0  0  0
M  END
> <minimizedAffinity>
-7.57114

> <minimizedRMSD>
0.43589

$$$$
P103718


 28 31  0  0  0  0  0  0  0  0999 V2000
    7.6093   14.8630   23.8024 S   0  0  0  0  0  0  0  0  0  0  0  0
    6.8143   14.1569   22.8211 O   0  0  0  0  0  0  0  0  0  0  0  0
    7.3324   16.2327   24.1647 O   0  0  0  0  0  0  0  0  0  0  0  0
    9.4303    9.5631   23.3129 C   0  0  0  0  0  0  0  0  0  0  0  0
    8.5947   10.4189   24.2146 C   0  0  0  0  0  0  0  0  0  0  0  0
    8.7211   11.8168   24.2273 C   0  0  0  0  0  0  0  0  0  0  0  0
    7.8643   12.5394   25.0419 C   0  0  0  0  0  0  0  0  0  0  0  0
    6.9878   11.8951   25.8713 C   0  0  0  0  0  0  0  0  0  0  0  0
    6.2413   12.7928   26.5864 C   0  0  0  0  0  0  0  0  0  0  0  0
    5.2953   12.3277   27.4566 C   0  0  0  0  0  0  0  0  0  0  0  0
    5.0701   11.0120   27.6147 N   0  0  0  0  0  0  0  0  0  0  0  0
    5.8021   10.1660   26.8295 C   0  0  0  0  0  0  0  0  0  0  0  0
    6.8237   10.5365   25.9328 C   0  0  0  0  0  0  0  0  0  0  0  0
    7.6642    9.7910   25.0722 C   0  0  0  0  0  0  0  0  0  0  0  0
    6.5839   14.1742   26.1667 C   0  0  0  0  0  0  0  0  0  0  0  0
    7.7221   13.9609   25.2087 N   0  0  0  0  0  0  0  0  0  0  0  0
    9.2425   14.7737   23.3657 N   0  0  0  0  0  0  0  0  0  0  0  0
   10.1570   15.3138   24.4045 C   0  0  0  0  0  0  0  0  0  0  0  0
   11.6007   15.0237   24.0331 C   0  0  0  0  0  0  0  0  0  0  0  0
   11.9279   15.6338   22.6746 C   0  0  0  0  0  0  0  0  0  0  0  0
   10.9854   14.9981   21.6612 C   0  0  0  0  0  0  0  0  0  0  0  0
    9.5302   15.3054   22.0150 C   0  0  0  0  0  0  0  0  0  0  0  0
   11.3106   15.3378   20.2163 C   0  0  0  0  0  0  0  0  0  0  0  0
   12.3616   15.1208   19.7747 O   0  0  0  0  0  0  0  0  0  0  0  0
   10.0605   15.9069   19.5577 N   0  0  0  0  0  0  0  0  0  0  0  0
    9.8124   16.2302   18.2529 O   0  0  0  0  0  0  0  0  0  0  0  0
    9.3083   16.0683   20.1721 H   0  0  0  0  0  0  0  0  0  0  0  0
   10.5994   16.0421   17.7179 H   0  0  0  0  0  0  0  0  0  0  0  0
  4  5  1  0  0  0
  5  6  2  0  0  0
  6  7  1  0  0  0
  7  8  2  0  0  0
  8  9  1  0  0  0
  9 10  2  0  0  0
 10 11  1  0  0  0
 11 12  2  0  0  0
 12 13  1  0  0  0
 13 14  2  0  0  0
  9 15  1  0  0  0
 15 16  1  0  0  0
 16  1  1  0  0  0
  1  2  2  0  0  0
  1  3  2  0  0  0
  1 17  1  0  0  0
 17 18  1  0  0  0
 18 19  1  0  0  0
 19 20  1  0  0  0
 20 21  1  0  0  0
 21 23  1  0  0  0
 23 24  2  0  0  0
 23 25  1  0  0  0
 25 26  1  0  0  0
 21 22  1  0  0  0
 14  5  1  0  0  0
 22 17  1  0  0  0
 16  7  1  0  0  0
 13  8  1  0  0  0
 25 27  1  0  0  0
 26 28  1  0  0  0
M  END
> <minimizedAffinity>
-8.32035

> <minimizedRMSD>
0.73617

$$$$
P103816


 23 24  0  0  0  0  0  0  0  0999 V2000
   11.9072   13.6612   24.0942 C   0  0  0  0  0  0  0  0  0  0  0  0
   11.0797   14.9313   24.2803 C   0  0  0  0  0  0  0  0  0  0  0  0
    9.6054   14.6067   24.4738 C   0  0  0  0  0  0  0  0  0  0  0  0
    8.9672   14.1727   23.2009 N   0  0  0  0  0  0  0  0  0  0  0  0
    9.1083   15.2025   22.1051 C   0  0  0  0  0  0  0  0  0  0  0  0
   10.5763   15.6233   21.8596 C   0  0  0  0  0  0  0  0  0  0  0  0
   11.2375   15.9972   23.1851 C   0  0  0  0  0  0  0  0  0  0  0  0
   11.3765   14.5565   21.2233 N   0  0  0  0  0  0  0  0  0  0  0  0
   11.7142   15.1140   19.9181 C   0  0  0  0  0  0  0  0  0  0  0  0
   10.7621   16.0925   19.5816 O   0  0  0  0  0  0  0  0  0  0  0  0
   10.6871   16.7684   20.8200 C   0  0  0  0  0  0  0  0  0  0  0  0
    9.7326   17.8095   20.7061 N   0  0  0  0  0  0  0  0  0  0  0  0
   10.8298   13.7012   21.1237 H   0  0  0  0  0  0  0  0  0  0  0  0
    8.8470   17.4245   20.3778 H   0  0  0  0  0  0  0  0  0  0  0  0
   10.0676   18.5067   20.0412 H   0  0  0  0  0  0  0  0  0  0  0  0
    7.3400   13.7175   23.4547 S   0  0  0  0  0  0  0  0  0  0  0  0
    6.6914   13.5448   22.1743 O   0  0  0  0  0  0  0  0  0  0  0  0
    6.7762   14.5322   24.5005 O   0  0  0  0  0  0  0  0  0  0  0  0
    7.6024   12.1333   24.0836 N   0  0  0  0  0  0  0  0  0  0  0  0
    8.7687   11.5477   23.4980 N   0  0  0  0  0  0  0  0  0  0  0  0
    6.7924   11.5502   23.8728 H   0  0  0  0  0  0  0  0  0  0  0  0
    9.5815   12.1277   23.7063 H   0  0  0  0  0  0  0  0  0  0  0  0
    8.6464   11.4841   22.4874 H   0  0  0  0  0  0  0  0  0  0  0  0
  2  1  1  0  0  0
  2  3  1  0  0  0
  3  4  1  0  0  0
  4 16  1  0  0  0
 16 17  2  0  0  0
 16 18  2  0  0  0
 16 19  1  0  0  0
 19 20  1  0  0  0
  4  5  1  0  0  0
  6  5  1  0  0  0
  6  7  1  0  0  0
  6  8  1  0  0  0
  8  9  1  0  0  0
  9 10  1  0  0  0
 10 11  1  0  0  0
 11 12  1  0  0  0
  7  2  1  0  0  0
 11  6  1  0  0  0
 19 21  1  0  0  0
 20 22  1  0  0  0
 20 23  1  0  0  0
  8 13  1  0  0  0
 12 14  1  0  0  0
 12 15  1  0  0  0
M  END
> <minimizedAffinity>
-6.94732

> <minimizedRMSD>
0.94856

$$$$
P105016


 27 28  0  0  0  0  0  0  0  0999 V2000
    9.4722   14.3494   23.1152 N   0  0  0  0  0  0  0  0  0  0  0  0
    9.4266   14.8809   21.7500 C   0  0  0  0  0  0  0  0  0  0  0  0
   10.7268   14.7363   20.9873 C   0  0  0  0  0  0  0  0  0  0  0  0
   11.8151   15.2867   21.8653 C   0  0  0  0  0  0  0  0  0  0  0  0
   11.5443   16.5579   22.1743 F   0  0  0  0  0  0  0  0  0  0  0  0
   11.9318   14.4603   23.1199 C   0  0  0  0  0  0  0  0  0  0  0  0
   10.6346   14.4268   23.8712 C   0  0  0  0  0  0  0  0  0  0  0  0
   10.6490   14.3831   25.1031 O   0  0  0  0  0  0  0  0  0  0  0  0
   10.7416   15.3552   19.5759 C   0  0  0  0  0  0  0  0  0  0  0  0
   10.9838   14.3781   18.5185 N   0  0  0  0  0  0  0  0  0  0  0  0
   10.2187   13.7039   18.4967 H   0  0  0  0  0  0  0  0  0  0  0  0
   11.8613   13.8909   18.7004 H   0  0  0  0  0  0  0  0  0  0  0  0
    9.6065   16.2682   19.3930 N   0  0  0  0  0  0  0  0  0  0  0  0
    8.9525   15.9855   18.3876 O   0  0  0  0  0  0  0  0  0  0  0  0
   13.0488   15.3686   21.1648 N   0  0  0  0  0  0  0  0  0  0  0  0
   13.0367   14.6013   20.0261 F   0  0  0  0  0  0  0  0  0  0  0  0
   13.7981   15.0427   21.7753 H   0  0  0  0  0  0  0  0  0  0  0  0
    8.2028   14.2468   23.8561 C   0  0  0  0  0  0  0  0  0  0  0  0
    5.7046   11.4054   27.1244 C   0  0  0  0  0  0  0  0  0  0  0  0
    6.7222   11.5154   26.0340 C   0  0  0  0  0  0  0  0  0  0  0  0
    7.3107   10.3831   25.4749 C   0  0  0  0  0  0  0  0  0  0  0  0
    8.2773   10.4830   24.4777 C   0  0  0  0  0  0  0  0  0  0  0  0
    8.6301   11.7323   23.9893 C   0  0  0  0  0  0  0  0  0  0  0  0
    8.0190   12.8854   24.5023 C   0  0  0  0  0  0  0  0  0  0  0  0
    7.0912   12.7671   25.5498 C   0  0  0  0  0  0  0  0  0  0  0  0
    6.9376   14.5166   23.0274 C   0  0  0  0  0  0  0  0  0  0  0  0
    6.5382   13.8110   22.1016 O   0  0  0  0  0  0  0  0  0  0  0  0
 19 20  1  0  0  0
 20 21  2  0  0  0
 21 22  1  0  0  0
 22 23  2  0  0  0
 23 24  1  0  0  0
 24 18  1  0  0  0
 18 26  1  0  0  0
 26 27  2  0  0  0
 18  1  1  0  0  0
  1  2  1  0  0  0
  3  2  1  0  0  0
  3  9  1  0  0  0
  9 10  1  0  0  0
  9 13  1  0  0  0
 13 14  2  0  0  0
  3  4  1  0  0  0
  4  5  1  0  0  0
  4 15  1  0  0  0
 15 16  1  0  0  0
  4  6  1  0  0  0
  6  7  1  0  0  0
  7  8  2  0  0  0
 24 25  2  0  0  0
 25 20  1  0  0  0
  7  1  1  0  0  0
 10 11  1  0  0  0
 10 12  1  0  0  0
 15 17  1  0  0  0
M  END
> <minimizedAffinity>
-5.67354

> <minimizedRMSD>
0.27160

$$$$
P105055


 24 25  0  0  0  0  0  0  0  0999 V2000
    9.4284   14.2512   23.4541 N   0  0  0  0  0  0  0  0  0  0  0  0
    9.5814   14.8169   22.1196 C   0  0  0  0  0  0  0  0  0  0  0  0
   10.9762   14.5575   21.5743 C   0  0  0  0  0  0  0  0  0  0  0  0
   11.9313   15.3312   22.4390 C   0  0  0  0  0  0  0  0  0  0  0  0
   11.8254   14.8068   23.8555 C   0  0  0  0  0  0  0  0  0  0  0  0
   10.4658   14.3641   24.3625 C   0  0  0  0  0  0  0  0  0  0  0  0
   10.3586   14.1081   25.5628 O   0  0  0  0  0  0  0  0  0  0  0  0
   11.1998   14.8615   20.0988 C   0  0  0  0  0  0  0  0  0  0  0  0
   12.2204   14.6312   19.5978 O   0  0  0  0  0  0  0  0  0  0  0  0
    9.9246   15.4521   19.5151 N   0  0  0  0  0  0  0  0  0  0  0  0
    9.6678   15.9500   18.2767 O   0  0  0  0  0  0  0  0  0  0  0  0
    9.1609   15.4778   20.1358 H   0  0  0  0  0  0  0  0  0  0  0  0
   10.4674   15.8879   17.7311 H   0  0  0  0  0  0  0  0  0  0  0  0
    8.0836   13.9316   23.9406 C   0  0  0  0  0  0  0  0  0  0  0  0
    7.4266   15.0539   24.7453 C   0  0  0  0  0  0  0  0  0  0  0  0
    7.2490   13.8035   22.7860 O   0  0  0  0  0  0  0  0  0  0  0  0
    6.3441   13.5909   23.0632 H   0  0  0  0  0  0  0  0  0  0  0  0
    5.8674   10.6367   27.0374 C   0  0  0  0  0  0  0  0  0  0  0  0
    6.8444   10.9255   25.9428 C   0  0  0  0  0  0  0  0  0  0  0  0
    7.4806    9.9020   25.2485 C   0  0  0  0  0  0  0  0  0  0  0  0
    8.4397   10.1641   24.2774 C   0  0  0  0  0  0  0  0  0  0  0  0
    8.7220   11.4775   23.9438 C   0  0  0  0  0  0  0  0  0  0  0  0
    8.0136   12.5365   24.5491 C   0  0  0  0  0  0  0  0  0  0  0  0
    7.1242   12.2418   25.5924 C   0  0  0  0  0  0  0  0  0  0  0  0
 18 19  1  0  0  0
 19 20  2  0  0  0
 20 21  1  0  0  0
 21 22  2  0  0  0
 22 23  1  0  0  0
 23 14  1  0  0  0
 14 15  1  0  0  0
 14 16  1  0  0  0
 14  1  1  0  0  0
  1  2  1  0  0  0
  2  3  1  0  0  0
  3  8  1  0  0  0
  8  9  2  0  0  0
  8 10  1  0  0  0
 10 11  1  0  0  0
  3  4  1  0  0  0
  4  5  1  0  0  0
  5  6  1  0  0  0
  6  7  2  0  0  0
 23 24  2  0  0  0
 24 19  1  0  0  0
  6  1  1  0  0  0
 16 17  1  0  0  0
 10 12  1  0  0  0
 11 13  1  0  0  0
M  END
> <minimizedAffinity>
-6.69235

> <minimizedRMSD>
0.51859

$$$$
P106664


 26 29  0  0  0  0  0  0  0  0999 V2000
   10.2681   14.8326   23.5362 N   0  0  0  0  0  0  0  0  0  0  0  0
    9.7576   15.0716   22.1976 C   0  0  0  0  0  0  0  0  0  0  0  0
   10.7909   15.9348   21.4956 C   0  0  0  0  0  0  0  0  0  0  0  0
   10.2049   16.4974   20.2254 C   0  0  0  0  0  0  0  0  0  0  0  0
   10.1916   15.5131   19.2200 O   0  0  0  0  0  0  0  0  0  0  0  0
   11.5126   15.2322   18.8095 C   0  0  0  0  0  0  0  0  0  0  0  0
   12.2962   14.5537   19.9204 C   0  0  0  0  0  0  0  0  0  0  0  0
   12.0997   15.1310   21.3323 C   0  0  0  0  0  0  0  0  0  0  0  0
   13.2090   16.0631   21.5410 N   0  0  0  0  0  0  0  0  0  0  0  0
   12.2489   14.0296   22.4091 C   0  0  0  0  0  0  0  0  0  0  0  0
   11.5547   14.3666   23.7076 C   0  0  0  0  0  0  0  0  0  0  0  0
   12.0806   14.1851   24.8034 O   0  0  0  0  0  0  0  0  0  0  0  0
   14.0941   15.5662   21.4406 H   0  0  0  0  0  0  0  0  0  0  0  0
   13.1470   16.4612   22.4781 H   0  0  0  0  0  0  0  0  0  0  0  0
    9.3796   15.0020   24.6544 C   0  0  0  0  0  0  0  0  0  0  0  0
    5.5054    9.9460   26.9519 C   0  0  0  0  0  0  0  0  0  0  0  0
    6.5512   10.3000   25.9703 C   0  0  0  0  0  0  0  0  0  0  0  0
    7.1745    9.3822   25.2227 N   0  0  0  0  0  0  0  0  0  0  0  0
    8.0773   10.0965   24.5083 N   0  0  0  0  0  0  0  0  0  0  0  0
    8.9416    9.4282   23.5574 C   0  0  0  0  0  0  0  0  0  0  0  0
    8.0536   11.4389   24.8053 C   0  0  0  0  0  0  0  0  0  0  0  0
    8.8290   12.5183   24.3825 C   0  0  0  0  0  0  0  0  0  0  0  0
    8.5309   13.7885   24.9225 C   0  0  0  0  0  0  0  0  0  0  0  0
    7.4629   13.9570   25.8103 C   0  0  0  0  0  0  0  0  0  0  0  0
    6.7069   12.8700   26.2248 C   0  0  0  0  0  0  0  0  0  0  0  0
    7.0300   11.5990   25.7288 C   0  0  0  0  0  0  0  0  0  0  0  0
 16 17  1  0  0  0
 17 18  2  0  0  0
 18 19  1  0  0  0
 19 20  1  0  0  0
 19 21  1  0  0  0
 21 22  2  0  0  0
 22 23  1  0  0  0
 23 15  1  0  0  0
 15  1  1  0  0  0
  1  2  1  0  0  0
  3  2  1  0  0  0
  3  4  1  0  0  0
  4  5  1  0  0  0
  5  6  1  0  0  0
  6  7  1  0  0  0
  7  8  1  0  0  0
  8  9  1  0  0  0
  8 10  1  0  0  0
 10 11  1  0  0  0
 11 12  2  0  0  0
 23 24  2  0  0  0
 24 25  1  0  0  0
 25 26  2  0  0  0
 26 17  1  0  0  0
 26 21  1  0  0  0
 11  1  1  0  0  0
  8  3  1  0  0  0
  9 13  1  0  0  0
  9 14  1  0  0  0
M  END
> <minimizedAffinity>
-8.82766

> <minimizedRMSD>
0.31697

$$$$
P106815


 14 15  0  0  0  0  0  0  0  0999 V2000
    5.6460   11.7103   28.8637 C   0  0  0  0  0  0  0  0  0  0  0  0
    5.2204   10.8170   27.6702 C   0  0  0  0  0  0  0  0  0  0  0  0
    3.8219   11.2286   27.1460 C   0  0  0  0  0  0  0  0  0  0  0  0
    2.6896   10.8883   28.1013 C   0  0  0  0  0  0  0  0  0  0  0  0
    2.7538    9.4181   28.4902 C   0  0  0  0  0  0  0  0  0  0  0  0
    4.1255    9.0585   29.0474 C   0  0  0  0  0  0  0  0  0  0  0  0
    5.2006    9.4104   28.1229 N   0  0  0  0  0  0  0  0  0  0  0  0
    5.1118    8.8168   27.2982 H   0  0  0  0  0  0  0  0  0  0  0  0
    6.2415   11.0330   26.5280 C   0  0  0  0  0  0  0  0  0  0  0  0
    6.7111   12.3336   26.2410 C   0  0  0  0  0  0  0  0  0  0  0  0
    7.6758   12.5676   25.2588 C   0  0  0  0  0  0  0  0  0  0  0  0
    8.1987   11.5036   24.5395 C   0  0  0  0  0  0  0  0  0  0  0  0
    7.7369   10.2152   24.7862 C   0  0  0  0  0  0  0  0  0  0  0  0
    6.7547    9.9794   25.7532 C   0  0  0  0  0  0  0  0  0  0  0  0
  2  1  1  0  0  0
  2  9  1  0  0  0
  9 10  2  0  0  0
 10 11  1  0  0  0
 11 12  2  0  0  0
 12 13  1  0  0  0
 13 14  2  0  0  0
  2  3  1  0  0  0
  3  4  1  0  0  0
  4  5  1  0  0  0
  5  6  1  0  0  0
  6  7  1  0  0  0
  7  2  1  0  0  0
 14  9  1  0  0  0
  7  8  1  0  0  0
M  END
> <minimizedAffinity>
-4.30723

> <minimizedRMSD>
1.83230

$$$$
P106864


 34 39  0  0  0  0  0  0  0  0999 V2000
    8.7322   13.1901   24.4318 N   0  0  0  0  0  0  0  0  0  0  0  0
    9.8450   12.6146   24.9901 O   0  0  0  0  0  0  0  0  0  0  0  0
    8.7003   14.5057   25.2236 N   0  0  0  0  0  0  0  0  0  0  0  0
    9.0421   15.8077   24.5778 N   0  0  0  0  0  0  0  0  0  0  0  0
    7.9429   16.2846   23.7295 C   0  0  0  0  0  0  0  0  0  0  0  0
    8.3462   16.3568   22.3795 O   0  0  0  0  0  0  0  0  0  0  0  0
    9.7715   16.2360   22.3129 C   0  0  0  0  0  0  0  0  0  0  0  0
   10.2693   15.8457   23.7363 C   0  0  0  0  0  0  0  0  0  0  0  0
   11.0104   14.5311   23.5129 C   0  0  0  0  0  0  0  0  0  0  0  0
   10.2035   13.9488   22.4546 N   0  0  0  0  0  0  0  0  0  0  0  0
    8.9271   13.4465   22.9173 C   0  0  0  0  0  0  0  0  0  0  0  0
    7.9234   13.2879   22.2203 O   0  0  0  0  0  0  0  0  0  0  0  0
   10.1943   15.0158   21.4557 C   0  0  0  0  0  0  0  0  0  0  0  0
    9.4338   14.6932   20.2749 N   0  0  0  0  0  0  0  0  0  0  0  0
    9.9651   15.6389   19.2930 C   0  0  0  0  0  0  0  0  0  0  0  0
   11.3610   15.7589   19.4848 O   0  0  0  0  0  0  0  0  0  0  0  0
   11.6075   15.2398   20.7781 C   0  0  0  0  0  0  0  0  0  0  0  0
   12.5524   16.1318   21.4255 N   0  0  0  0  0  0  0  0  0  0  0  0
    9.3496   14.3902   26.0018 H   0  0  0  0  0  0  0  0  0  0  0  0
    8.4359   14.8403   20.4267 H   0  0  0  0  0  0  0  0  0  0  0  0
   12.1776   17.0804   21.4278 H   0  0  0  0  0  0  0  0  0  0  0  0
   13.4369   16.1168   20.9176 H   0  0  0  0  0  0  0  0  0  0  0  0
    7.9779   10.7884   24.6589 C   0  0  0  0  0  0  0  0  0  0  0  0
    7.1806    9.8480   25.3009 C   0  0  0  0  0  0  0  0  0  0  0  0
    6.0072   10.2205   25.9454 C   0  0  0  0  0  0  0  0  0  0  0  0
    5.5728   11.5258   25.9663 C   0  0  0  0  0  0  0  0  0  0  0  0
    4.4061   11.7345   26.5968 N   0  0  0  0  0  0  0  0  0  0  0  0
    3.9189   12.9854   26.6526 C   0  0  0  0  0  0  0  0  0  0  0  0
    4.5565   14.0588   26.0855 C   0  0  0  0  0  0  0  0  0  0  0  0
    5.7692   13.8269   25.4401 C   0  0  0  0  0  0  0  0  0  0  0  0
    6.3571   12.5383   25.3627 C   0  0  0  0  0  0  0  0  0  0  0  0
    7.6236   12.1764   24.7567 C   0  0  0  0  0  0  0  0  0  0  0  0
    9.2620    8.4921   23.4505 C   0  0  0  0  0  0  0  0  0  0  0  0
    9.4551   10.2516   23.7534 S   0  0  0  0  0  0  0  0  0  0  0  0
 33 34  1  0  0  0
 34 23  1  0  0  0
 23 24  2  0  0  0
 24 25  1  0  0  0
 25 26  2  0  0  0
 26 27  1  0  0  0
 27 28  2  0  0  0
 28 29  1  0  0  0
 29 30  2  0  0  0
 30 31  1  0  0  0
 31 32  2  0  0  0
 32  1  1  0  0  0
  1  2  1  0  0  0
  1  3  1  0  0  0
  3  4  1  0  0  0
  4  5  1  0  0  0
  5  6  1  0  0  0
  7  6  1  0  0  0
  7  8  1  0  0  0
  8  9  1  0  0  0
  9 10  1  0  0  0
 10 11  1  0  0  0
 11 12  2  0  0  0
 10 13  1  0  0  0
 13 14  1  0  0  0
 14 15  1  0  0  0
 15 16  1  0  0  0
 16 17  1  0  0  0
 17 18  1  0  0  0
 32 23  1  0  0  0
 11  1  1  0  0  0
 17 13  1  0  0  0
 31 26  1  0  0  0
  8  4  1  0  0  0
 13  7  1  0  0  0
  3 19  1  0  0  0
 14 20  1  0  0  0
 18 21  1  0  0  0
 18 22  1  0  0  0
M  CHG 1   1   1
M  CHG 1   2  -1
M  END
> <minimizedAffinity>
-8.75086

> <minimizedRMSD>
0.26781

$$$$
P108430


 30 34  0  0  0  0  0  0  0  0999 V2000
   10.5487   14.0778   24.1826 C   0  0  0  0  0  0  0  0  0  0  0  0
   11.5382   14.7882   24.8837 O   0  0  0  0  0  0  0  0  0  0  0  0
   11.3320   13.0325   23.5598 N   0  0  0  0  0  0  0  0  0  0  0  0
   11.4248   13.4275   22.1250 C   0  0  0  0  0  0  0  0  0  0  0  0
   10.9605   14.8693   22.0333 C   0  0  0  0  0  0  0  0  0  0  0  0
    9.9970   14.8774   23.1389 N   0  0  0  0  0  0  0  0  0  0  0  0
    8.7279   14.3953   22.6072 C   0  0  0  0  0  0  0  0  0  0  0  0
    8.6269   15.1057   21.3024 C   0  0  0  0  0  0  0  0  0  0  0  0
   10.1013   15.3378   20.8600 C   0  0  0  0  0  0  0  0  0  0  0  0
   10.1762   16.7588   20.5154 N   0  0  0  0  0  0  0  0  0  0  0  0
    9.6410   16.8134   19.1659 C   0  0  0  0  0  0  0  0  0  0  0  0
    9.5404   15.4774   18.6624 O   0  0  0  0  0  0  0  0  0  0  0  0
   10.3362   14.6705   19.5177 C   0  0  0  0  0  0  0  0  0  0  0  0
   11.5983   14.4631   18.8594 N   0  0  0  0  0  0  0  0  0  0  0  0
   11.9004   14.2282   25.5881 H   0  0  0  0  0  0  0  0  0  0  0  0
   10.8662   12.1300   23.6544 H   0  0  0  0  0  0  0  0  0  0  0  0
   11.1412   17.0884   20.5378 H   0  0  0  0  0  0  0  0  0  0  0  0
   11.9789   15.3618   18.5629 H   0  0  0  0  0  0  0  0  0  0  0  0
   11.4623   13.8657   18.0439 H   0  0  0  0  0  0  0  0  0  0  0  0
    9.4956   13.8162   25.2580 C   0  0  0  0  0  0  0  0  0  0  0  0
    8.6940    9.3082   24.0386 C   0  0  0  0  0  0  0  0  0  0  0  0
    8.3151   10.5901   24.5729 N   0  0  0  0  0  0  0  0  0  0  0  0
    9.0932   11.6261   24.2668 N   0  0  0  0  0  0  0  0  0  0  0  0
    8.7094   12.5823   25.1140 C   0  0  0  0  0  0  0  0  0  0  0  0
    7.5870   12.2140   25.8743 C   0  0  0  0  0  0  0  0  0  0  0  0
    6.7994   12.8218   26.8695 C   0  0  0  0  0  0  0  0  0  0  0  0
    5.8162   12.0655   27.5077 C   0  0  0  0  0  0  0  0  0  0  0  0
    5.6062   10.7444   27.1388 C   0  0  0  0  0  0  0  0  0  0  0  0
    6.3461   10.1613   26.1082 C   0  0  0  0  0  0  0  0  0  0  0  0
    7.3604   10.8960   25.5102 C   0  0  0  0  0  0  0  0  0  0  0  0
 21 22  1  0  0  0
 22 23  1  0  0  0
 23 24  2  0  0  0
 24 20  1  0  0  0
 20  1  1  0  0  0
  1  2  1  0  0  0
  1  3  1  0  0  0
  3  4  1  0  0  0
  5  4  1  0  0  0
  5  6  1  0  0  0
  6  7  1  0  0  0
  7  8  1  0  0  0
  9  8  1  0  0  0
  9 10  1  0  0  0
 10 11  1  0  0  0
 11 12  1  0  0  0
 12 13  1  0  0  0
 13 14  1  0  0  0
 24 25  1  0  0  0
 25 26  2  0  0  0
 26 27  1  0  0  0
 27 28  2  0  0  0
 28 29  1  0  0  0
 29 30  2  0  0  0
 30 22  1  0  0  0
  6  1  1  0  0  0
 13  9  1  0  0  0
 30 25  1  0  0  0
  9  5  1  0  0  0
  2 15  1  0  0  0
  3 16  1  0  0  0
 10 17  1  0  0  0
 14 18  1  0  0  0
 14 19  1  0  0  0
M  END
> <minimizedAffinity>
-7.43820

> <minimizedRMSD>
0.30028

$$$$
P108435


 30 34  0  0  0  0  0  0  0  0999 V2000
   10.9597   14.2789   23.7199 C   0  0  0  0  0  0  0  0  0  0  0  0
   12.2190   14.0972   23.4116 N   0  0  0  0  0  0  0  0  0  0  0  0
   12.3031   14.6067   22.0066 C   0  0  0  0  0  0  0  0  0  0  0  0
   12.4806   13.5144   21.1181 N   0  0  0  0  0  0  0  0  0  0  0  0
   11.0552   15.4544   21.7666 C   0  0  0  0  0  0  0  0  0  0  0  0
   10.2010   14.9836   22.8533 N   0  0  0  0  0  0  0  0  0  0  0  0
    8.8944   14.5291   22.3973 C   0  0  0  0  0  0  0  0  0  0  0  0
    9.0850   14.4246   20.9187 C   0  0  0  0  0  0  0  0  0  0  0  0
   10.0802   15.5204   20.6112 C   0  0  0  0  0  0  0  0  0  0  0  0
    9.2494   16.7525   20.7321 N   0  0  0  0  0  0  0  0  0  0  0  0
    9.0314   17.1513   19.3791 C   0  0  0  0  0  0  0  0  0  0  0  0
    9.4439   16.0900   18.5089 O   0  0  0  0  0  0  0  0  0  0  0  0
   10.5697   15.5340   19.1834 C   0  0  0  0  0  0  0  0  0  0  0  0
   11.0829   14.3785   18.5197 N   0  0  0  0  0  0  0  0  0  0  0  0
   11.7053   12.8602   21.2245 H   0  0  0  0  0  0  0  0  0  0  0  0
   13.3576   13.0401   21.3334 H   0  0  0  0  0  0  0  0  0  0  0  0
    9.7476   17.4773   21.2486 H   0  0  0  0  0  0  0  0  0  0  0  0
   10.3373   13.6916   18.4075 H   0  0  0  0  0  0  0  0  0  0  0  0
   11.8369   13.9742   19.0751 H   0  0  0  0  0  0  0  0  0  0  0  0
   10.3101   13.7992   24.9689 C   0  0  0  0  0  0  0  0  0  0  0  0
    9.4505    9.4120   23.3058 C   0  0  0  0  0  0  0  0  0  0  0  0
    9.1181   10.6350   23.9927 N   0  0  0  0  0  0  0  0  0  0  0  0
    9.9499   11.6649   23.8338 N   0  0  0  0  0  0  0  0  0  0  0  0
    9.5153   12.5823   24.7020 C   0  0  0  0  0  0  0  0  0  0  0  0
    8.2972   12.2079   25.3038 C   0  0  0  0  0  0  0  0  0  0  0  0
    7.4009   12.7948   26.2184 C   0  0  0  0  0  0  0  0  0  0  0  0
    6.3563   12.0254   26.7312 C   0  0  0  0  0  0  0  0  0  0  0  0
    6.2028   10.7063   26.3278 C   0  0  0  0  0  0  0  0  0  0  0  0
    7.0476   10.1414   25.3673 C   0  0  0  0  0  0  0  0  0  0  0  0
    8.0998   10.9024   24.8733 C   0  0  0  0  0  0  0  0  0  0  0  0
 21 22  1  0  0  0
 22 23  1  0  0  0
 23 24  2  0  0  0
 24 20  1  0  0  0
 20  1  1  0  0  0
  1  2  2  0  0  0
  2  3  1  0  0  0
  3  4  1  0  0  0
  3  5  1  0  0  0
  5  6  1  0  0  0
  6  7  1  0  0  0
  7  8  1  0  0  0
  9  8  1  0  0  0
  9 10  1  0  0  0
 10 11  1  0  0  0
 11 12  1  0  0  0
 12 13  1  0  0  0
 13 14  1  0  0  0
 24 25  1  0  0  0
 25 26  2  0  0  0
 26 27  1  0  0  0
 27 28  2  0  0  0
 28 29  1  0  0  0
 29 30  2  0  0  0
 30 22  1  0  0  0
  6  1  1  0  0  0
 13  9  1  0  0  0
 30 25  1  0  0  0
  9  5  1  0  0  0
  4 15  1  0  0  0
  4 16  1  0  0  0
 10 17  1  0  0  0
 14 18  1  0  0  0
 14 19  1  0  0  0
M  END
> <minimizedAffinity>
-6.80307

> <minimizedRMSD>
0.45780

$$$$
P108614


 26 28  0  0  0  0  0  0  0  0999 V2000
    9.2913   13.7904   24.3857 C   0  0  0  0  0  0  0  0  0  0  0  0
    8.8214   14.5025   25.5277 O   0  0  0  0  0  0  0  0  0  0  0  0
   10.2445   12.8776   24.8775 O   0  0  0  0  0  0  0  0  0  0  0  0
    8.1713   15.1699   25.4288 H   0  0  0  0  0  0  0  0  0  0  0  0
   10.6869   12.2991   24.2880 H   0  0  0  0  0  0  0  0  0  0  0  0
    9.9594   14.7463   23.5292 N   0  0  0  0  0  0  0  0  0  0  0  0
   11.3536   14.9344   23.9233 C   0  0  0  0  0  0  0  0  0  0  0  0
   12.2153   14.1535   22.9749 C   0  0  0  0  0  0  0  0  0  0  0  0
   11.3731   13.9420   21.7460 C   0  0  0  0  0  0  0  0  0  0  0  0
   11.7387   14.7986   20.5663 C   0  0  0  0  0  0  0  0  0  0  0  0
   12.4613   14.5019   19.6346 O   0  0  0  0  0  0  0  0  0  0  0  0
   11.0596   15.9557   20.6366 N   0  0  0  0  0  0  0  0  0  0  0  0
    9.8795   15.7256   21.2562 C   0  0  0  0  0  0  0  0  0  0  0  0
    8.8663   16.3847   21.0820 O   0  0  0  0  0  0  0  0  0  0  0  0
    9.9886   14.4516   22.0891 C   0  0  0  0  0  0  0  0  0  0  0  0
   11.3690   16.8254   20.2943 H   0  0  0  0  0  0  0  0  0  0  0  0
    8.0598   13.1084   23.7098 C   0  0  0  0  0  0  0  0  0  0  0  0
    6.6251   12.1566   25.5782 C   0  0  0  0  0  0  0  0  0  0  0  0
    6.1715   10.6828   26.3025 S   0  0  0  0  0  0  0  0  0  0  0  0
    7.1667    9.7883   25.2445 C   0  0  0  0  0  0  0  0  0  0  0  0
    7.8431   10.5844   24.3620 C   0  0  0  0  0  0  0  0  0  0  0  0
    7.5037   11.9694   24.5299 C   0  0  0  0  0  0  0  0  0  0  0  0
    4.8140   13.4877   26.1020 C   0  0  0  0  0  0  0  0  0  0  0  0
    6.2276   13.3290   26.0761 O   0  0  0  0  0  0  0  0  0  0  0  0
    9.0661   10.0780   23.2066 S   0  0  0  0  0  0  0  0  0  0  0  0
    9.4474    8.3780   23.5925 C   0  0  0  0  0  0  0  0  0  0  0  0
 23 24  1  0  0  0
 24 18  1  0  0  0
 18 19  1  0  0  0
 19 20  1  0  0  0
 20 21  2  0  0  0
 21 25  1  0  0  0
 25 26  1  0  0  0
 21 22  1  0  0  0
 22 17  1  0  0  0
 17  1  1  0  0  0
  1  2  1  0  0  0
  1  3  1  0  0  0
  1  6  1  0  0  0
  6  7  1  0  0  0
  7  8  1  0  0  0
  9  8  1  0  0  0
  9 10  1  0  0  0
 10 11  2  0  0  0
 10 12  1  0  0  0
 12 13  1  0  0  0
 13 14  2  0  0  0
 13 15  1  0  0  0
 22 18  2  0  0  0
 15  6  1  0  0  0
 15  9  1  0  0  0
  2  4  1  0  0  0
  3  5  1  0  0  0
 12 16  1  0  0  0
M  END
> <minimizedAffinity>
-5.38672

> <minimizedRMSD>
0.38139

$$$$
P108646


 29 31  0  0  0  0  0  0  0  0999 V2000
    9.5105   13.6017   24.3384 C   0  0  0  0  0  0  0  0  0  0  0  0
    9.2363   14.1571   25.6215 O   0  0  0  0  0  0  0  0  0  0  0  0
   10.5102   12.6301   24.5419 O   0  0  0  0  0  0  0  0  0  0  0  0
    8.5919   14.8312   25.7123 H   0  0  0  0  0  0  0  0  0  0  0  0
   10.8402   12.1383   23.8159 H   0  0  0  0  0  0  0  0  0  0  0  0
   10.0466   14.6619   23.5041 N   0  0  0  0  0  0  0  0  0  0  0  0
   11.4388   14.9413   23.8539 C   0  0  0  0  0  0  0  0  0  0  0  0
   12.3211   14.2274   22.8709 C   0  0  0  0  0  0  0  0  0  0  0  0
   11.4621   13.9844   21.6598 C   0  0  0  0  0  0  0  0  0  0  0  0
   11.7515   14.8845   20.4922 C   0  0  0  0  0  0  0  0  0  0  0  0
   12.4561   14.6420   19.5315 O   0  0  0  0  0  0  0  0  0  0  0  0
   11.0180   16.0036   20.6137 N   0  0  0  0  0  0  0  0  0  0  0  0
    9.8626   15.6876   21.2427 C   0  0  0  0  0  0  0  0  0  0  0  0
    8.8064   16.2797   21.0848 O   0  0  0  0  0  0  0  0  0  0  0  0
   10.0603   14.4070   22.0497 C   0  0  0  0  0  0  0  0  0  0  0  0
   11.2768   16.8999   20.2990 H   0  0  0  0  0  0  0  0  0  0  0  0
    8.1750   13.0220   23.7660 C   0  0  0  0  0  0  0  0  0  0  0  0
    6.6441   12.1003   25.6134 C   0  0  0  0  0  0  0  0  0  0  0  0
    6.0846   10.6126   26.2234 S   0  0  0  0  0  0  0  0  0  0  0  0
    7.1235    9.7289   25.2070 C   0  0  0  0  0  0  0  0  0  0  0  0
    7.8717   10.5250   24.3902 C   0  0  0  0  0  0  0  0  0  0  0  0
    7.5705   11.9154   24.5916 C   0  0  0  0  0  0  0  0  0  0  0  0
    5.9496   13.5697   26.3570 S   0  0  0  0  0  0  0  0  0  0  0  0
    7.0141   14.0422   27.2258 O   0  0  0  0  0  0  0  0  0  0  0  0
    5.4302   14.3539   25.2581 O   0  0  0  0  0  0  0  0  0  0  0  0
    4.9315   13.1702   28.8548 C   0  0  0  0  0  0  0  0  0  0  0  0
    4.5980   13.0232   27.3822 C   0  0  0  0  0  0  0  0  0  0  0  0
    9.1001    9.9966   23.2502 S   0  0  0  0  0  0  0  0  0  0  0  0
    9.4434    8.2919   23.6262 C   0  0  0  0  0  0  0  0  0  0  0  0
 26 27  1  0  0  0
 27 23  1  0  0  0
 23 24  2  0  0  0
 23 25  2  0  0  0
 23 18  1  0  0  0
 18 19  1  0  0  0
 19 20  1  0  0  0
 20 21  2  0  0  0
 21 28  1  0  0  0
 28 29  1  0  0  0
 21 22  1  0  0  0
 22 17  1  0  0  0
 17  1  1  0  0  0
  1  2  1  0  0  0
  1  3  1  0  0  0
  1  6  1  0  0  0
  6  7  1  0  0  0
  7  8  1  0  0  0
  9  8  1  0  0  0
  9 10  1  0  0  0
 10 11  2  0  0  0
 10 12  1  0  0  0
 12 13  1  0  0  0
 13 14  2  0  0  0
 13 15  1  0  0  0
 22 18  2  0  0  0
 15  6  1  0  0  0
 15  9  1  0  0  0
  2  4  1  0  0  0
  3  5  1  0  0  0
 12 16  1  0  0  0
M  END
> <minimizedAffinity>
-5.60633

> <minimizedRMSD>
0.67756

$$$$
P108729


 24 26  0  0  0  0  0  0  0  0999 V2000
    8.8881   14.5026   24.6708 C   0  0  0  0  0  0  0  0  0  0  0  0
    9.3952   13.9730   25.8836 O   0  0  0  0  0  0  0  0  0  0  0  0
    8.4841   15.8128   25.0128 O   0  0  0  0  0  0  0  0  0  0  0  0
    9.7296   13.0981   25.9092 H   0  0  0  0  0  0  0  0  0  0  0  0
    8.1087   16.3723   24.3616 H   0  0  0  0  0  0  0  0  0  0  0  0
    9.9566   14.5317   23.6737 N   0  0  0  0  0  0  0  0  0  0  0  0
   11.2827   14.7871   24.2452 C   0  0  0  0  0  0  0  0  0  0  0  0
   12.1325   14.9949   23.0123 C   0  0  0  0  0  0  0  0  0  0  0  0
   11.2537   15.8273   22.1198 C   0  0  0  0  0  0  0  0  0  0  0  0
   11.2478   15.4033   20.6818 C   0  0  0  0  0  0  0  0  0  0  0  0
   12.1983   15.0848   19.9881 O   0  0  0  0  0  0  0  0  0  0  0  0
    9.9614   15.3774   20.2811 N   0  0  0  0  0  0  0  0  0  0  0  0
    9.1450   15.0918   21.3356 C   0  0  0  0  0  0  0  0  0  0  0  0
    8.0714   14.5124   21.2492 O   0  0  0  0  0  0  0  0  0  0  0  0
    9.8212   15.5592   22.6059 C   0  0  0  0  0  0  0  0  0  0  0  0
    9.6550   15.5411   19.3599 H   0  0  0  0  0  0  0  0  0  0  0  0
    7.6682   13.6490   24.1952 C   0  0  0  0  0  0  0  0  0  0  0  0
    7.8764   11.1606   25.0193 C   0  0  0  0  0  0  0  0  0  0  0  0
    7.2389   10.2624   25.8411 C   0  0  0  0  0  0  0  0  0  0  0  0
    5.9372   10.9682   26.6922 S   0  0  0  0  0  0  0  0  0  0  0  0
    6.2251   12.4904   25.9715 C   0  0  0  0  0  0  0  0  0  0  0  0
    7.2749   12.4709   25.0702 C   0  0  0  0  0  0  0  0  0  0  0  0
    9.2386    9.0327   23.7568 C   0  0  0  0  0  0  0  0  0  0  0  0
    9.2666   10.8175   23.9911 S   0  0  0  0  0  0  0  0  0  0  0  0
 23 24  1  0  0  0
 24 18  1  0  0  0
 18 19  2  0  0  0
 19 20  1  0  0  0
 20 21  1  0  0  0
 21 22  2  0  0  0
 22 17  1  0  0  0
 17  1  1  0  0  0
  1  2  1  0  0  0
  1  3  1  0  0  0
  1  6  1  0  0  0
  6  7  1  0  0  0
  7  8  1  0  0  0
  9  8  1  0  0  0
  9 10  1  0  0  0
 10 11  2  0  0  0
 10 12  1  0  0  0
 12 13  1  0  0  0
 13 14  2  0  0  0
 13 15  1  0  0  0
 22 18  1  0  0  0
 15  6  1  0  0  0
 15  9  1  0  0  0
  2  4  1  0  0  0
  3  5  1  0  0  0
 12 16  1  0  0  0
M  END
> <minimizedAffinity>
-6.53156

> <minimizedRMSD>
0.49932

$$$$
P108730


 25 27  0  0  0  0  0  0  0  0999 V2000
    9.4980   13.5484   24.3536 C   0  0  0  0  0  0  0  0  0  0  0  0
    9.2514   14.1215   25.6253 O   0  0  0  0  0  0  0  0  0  0  0  0
   10.3865   12.4770   24.5695 O   0  0  0  0  0  0  0  0  0  0  0  0
    8.6778   14.8583   25.7038 H   0  0  0  0  0  0  0  0  0  0  0  0
   10.6800   11.9586   23.8463 H   0  0  0  0  0  0  0  0  0  0  0  0
   10.1949   14.5493   23.5678 N   0  0  0  0  0  0  0  0  0  0  0  0
   11.6123   14.5993   23.9618 C   0  0  0  0  0  0  0  0  0  0  0  0
   12.3534   14.9093   22.6983 C   0  0  0  0  0  0  0  0  0  0  0  0
   11.5999   14.1736   21.6305 C   0  0  0  0  0  0  0  0  0  0  0  0
   11.6213   14.9637   20.3692 C   0  0  0  0  0  0  0  0  0  0  0  0
   12.2674   14.7498   19.3651 O   0  0  0  0  0  0  0  0  0  0  0  0
   10.7639   15.9859   20.5420 N   0  0  0  0  0  0  0  0  0  0  0  0
    9.7418   15.5844   21.3470 C   0  0  0  0  0  0  0  0  0  0  0  0
    8.6388   16.1010   21.4116 O   0  0  0  0  0  0  0  0  0  0  0  0
   10.1680   14.3187   22.0982 C   0  0  0  0  0  0  0  0  0  0  0  0
   10.8603   16.8831   20.1483 H   0  0  0  0  0  0  0  0  0  0  0  0
    8.1092   13.1098   23.7955 C   0  0  0  0  0  0  0  0  0  0  0  0
    7.7913   10.5894   24.4270 C   0  0  0  0  0  0  0  0  0  0  0  0
    7.1276    9.8055   25.3331 C   0  0  0  0  0  0  0  0  0  0  0  0
    6.1828   10.7185   26.4214 S   0  0  0  0  0  0  0  0  0  0  0  0
    6.6731   12.1572   25.6920 C   0  0  0  0  0  0  0  0  0  0  0  0
    6.1654   13.6385   26.3799 Cl  0  0  0  0  0  0  0  0  0  0  0  0
    7.5060   11.9896   24.6116 C   0  0  0  0  0  0  0  0  0  0  0  0
    9.3783    8.3649   23.6574 C   0  0  0  0  0  0  0  0  0  0  0  0
    8.9564   10.0424   23.2280 S   0  0  0  0  0  0  0  0  0  0  0  0
 24 25  1  0  0  0
 25 18  1  0  0  0
 18 19  2  0  0  0
 19 20  1  0  0  0
 20 21  1  0  0  0
 21 22  1  0  0  0
 21 23  2  0  0  0
 23 17  1  0  0  0
 17  1  1  0  0  0
  1  2  1  0  0  0
  1  3  1  0  0  0
  1  6  1  0  0  0
  6  7  1  0  0  0
  7  8  1  0  0  0
  9  8  1  0  0  0
  9 10  1  0  0  0
 10 11  2  0  0  0
 10 12  1  0  0  0
 12 13  1  0  0  0
 13 14  2  0  0  0
 13 15  1  0  0  0
 23 18  1  0  0  0
 15  6  1  0  0  0
 15  9  1  0  0  0
  2  4  1  0  0  0
  3  5  1  0  0  0
 12 16  1  0  0  0
M  END
> <minimizedAffinity>
-6.27450

> <minimizedRMSD>
0.35210

$$$$
P108745


 30 33  0  0  0  0  0  0  0  0999 V2000
    8.9941   14.2447   24.8300 C   0  0  0  0  0  0  0  0  0  0  0  0
    9.7137   13.5167   25.7782 O   0  0  0  0  0  0  0  0  0  0  0  0
    8.5064   15.3320   25.6043 O   0  0  0  0  0  0  0  0  0  0  0  0
   10.1519   12.7269   25.5287 H   0  0  0  0  0  0  0  0  0  0  0  0
    7.9765   15.9925   25.2030 H   0  0  0  0  0  0  0  0  0  0  0  0
    9.9078   14.7802   23.8672 N   0  0  0  0  0  0  0  0  0  0  0  0
   11.2744   14.8495   24.4117 C   0  0  0  0  0  0  0  0  0  0  0  0
   12.0633   13.7695   23.7313 C   0  0  0  0  0  0  0  0  0  0  0  0
   11.5013   13.8467   22.3416 C   0  0  0  0  0  0  0  0  0  0  0  0
   11.8940   15.0673   21.5585 C   0  0  0  0  0  0  0  0  0  0  0  0
   12.9062   15.7268   21.6923 O   0  0  0  0  0  0  0  0  0  0  0  0
   10.8500   15.4097   20.7840 N   0  0  0  0  0  0  0  0  0  0  0  0
    9.7000   15.0654   21.4234 C   0  0  0  0  0  0  0  0  0  0  0  0
    8.5917   15.5236   21.1899 O   0  0  0  0  0  0  0  0  0  0  0  0
   10.0212   14.0995   22.5535 C   0  0  0  0  0  0  0  0  0  0  0  0
   10.9082   15.8390   19.9000 H   0  0  0  0  0  0  0  0  0  0  0  0
    7.7413   13.4852   24.3523 C   0  0  0  0  0  0  0  0  0  0  0  0
    7.4093   10.9671   24.5056 C   0  0  0  0  0  0  0  0  0  0  0  0
    7.0314    9.9197   25.5189 C   0  0  0  0  0  0  0  0  0  0  0  0
    5.7860   10.6596   26.5888 S   0  0  0  0  0  0  0  0  0  0  0  0
    6.2154   12.4293   26.2617 C   0  0  0  0  0  0  0  0  0  0  0  0
    6.6599   13.0194   27.6302 C   0  0  0  0  0  0  0  0  0  0  0  0
    5.5722   13.8122   28.3714 C   0  0  0  0  0  0  0  0  0  0  0  0
    4.1671   13.2973   28.0911 C   0  0  0  0  0  0  0  0  0  0  0  0
    3.8368   13.2566   26.6692 N   0  0  0  0  0  0  0  0  0  0  0  0
    5.0166   13.2845   25.7882 C   0  0  0  0  0  0  0  0  0  0  0  0
    7.4241   12.2934   25.2869 C   0  0  0  0  0  0  0  0  0  0  0  0
    3.2523   14.0635   26.4508 H   0  0  0  0  0  0  0  0  0  0  0  0
    8.9367    8.9010   23.2630 C   0  0  0  0  0  0  0  0  0  0  0  0
    9.0779   10.6284   23.7531 S   0  0  0  0  0  0  0  0  0  0  0  0
 29 30  1  0  0  0
 18 30  1  0  0  0
 18 19  1  0  0  0
 19 20  1  0  0  0
 20 21  1  0  0  0
 21 22  1  0  0  0
 22 23  1  0  0  0
 23 24  1  0  0  0
 24 25  1  0  0  0
 25 26  1  0  0  0
 21 27  1  0  0  0
 27 17  1  0  0  0
 17  1  1  0  0  0
  1  2  1  0  0  0
  1  3  1  0  0  0
  1  6  1  0  0  0
  6  7  1  0  0  0
  7  8  1  0  0  0
  9  8  1  0  0  0
  9 10  1  0  0  0
 10 11  2  0  0  0
 10 12  1  0  0  0
 12 13  1  0  0  0
 13 14  2  0  0  0
 13 15  1  0  0  0
 27 18  1  0  0  0
 15  6  1  0  0  0
 26 21  1  0  0  0
 15  9  1  0  0  0
 25 28  1  0  0  0
  2  4  1  0  0  0
  3  5  1  0  0  0
 12 16  1  0  0  0
M  END
> <minimizedAffinity>
-6.77960

> <minimizedRMSD>
0.27400

$$$$
P108764


 28 30  0  0  0  0  0  0  0  0999 V2000
    8.5467   14.1783   24.6032 C   0  0  0  0  0  0  0  0  0  0  0  0
    8.7452   14.0489   25.9969 O   0  0  0  0  0  0  0  0  0  0  0  0
    8.1675   15.5247   24.4817 O   0  0  0  0  0  0  0  0  0  0  0  0
    9.0106   13.2260   26.3579 H   0  0  0  0  0  0  0  0  0  0  0  0
    7.9717   15.8819   23.6379 H   0  0  0  0  0  0  0  0  0  0  0  0
    9.7972   13.9205   23.9316 N   0  0  0  0  0  0  0  0  0  0  0  0
   10.9565   14.6647   24.3690 C   0  0  0  0  0  0  0  0  0  0  0  0
   12.0345   14.2075   23.4153 C   0  0  0  0  0  0  0  0  0  0  0  0
   11.3214   13.8753   22.1222 C   0  0  0  0  0  0  0  0  0  0  0  0
   11.3887   14.9230   21.0541 C   0  0  0  0  0  0  0  0  0  0  0  0
   12.3009   15.0893   20.2694 O   0  0  0  0  0  0  0  0  0  0  0  0
   10.2559   15.6538   21.0709 N   0  0  0  0  0  0  0  0  0  0  0  0
    9.2638   15.0037   21.7198 C   0  0  0  0  0  0  0  0  0  0  0  0
    8.0706   15.2721   21.6789 O   0  0  0  0  0  0  0  0  0  0  0  0
    9.8465   13.8327   22.4716 C   0  0  0  0  0  0  0  0  0  0  0  0
   10.1631   16.5452   20.6634 H   0  0  0  0  0  0  0  0  0  0  0  0
    7.3515   13.3102   24.1209 C   0  0  0  0  0  0  0  0  0  0  0  0
    7.7271   10.7996   24.6875 C   0  0  0  0  0  0  0  0  0  0  0  0
    7.1761    9.8080   25.4447 C   0  0  0  0  0  0  0  0  0  0  0  0
    5.9126   10.3726   26.4056 S   0  0  0  0  0  0  0  0  0  0  0  0
    6.1703   11.9775   25.9474 C   0  0  0  0  0  0  0  0  0  0  0  0
    7.0847   12.0609   24.9034 C   0  0  0  0  0  0  0  0  0  0  0  0
    9.0210    8.7969   23.2400 C   0  0  0  0  0  0  0  0  0  0  0  0
    9.0836   10.5496   23.6238 S   0  0  0  0  0  0  0  0  0  0  0  0
    5.3820   13.3345   26.7337 S   0  0  0  0  0  0  0  0  0  0  0  0
    3.8456   12.6537   27.4380 C   0  0  0  0  0  0  0  0  0  0  0  0
    3.7680   12.8875   28.9445 C   0  0  0  0  0  0  0  0  0  0  0  0
    2.6648   13.3317   26.7407 C   0  0  0  0  0  0  0  0  0  0  0  0
 23 24  1  0  0  0
 24 18  1  0  0  0
 18 19  2  0  0  0
 19 20  1  0  0  0
 20 21  1  0  0  0
 21 25  1  0  0  0
 25 26  1  0  0  0
 26 27  1  0  0  0
 26 28  1  0  0  0
 21 22  2  0  0  0
 22 17  1  0  0  0
 17  1  1  0  0  0
  1  2  1  0  0  0
  1  3  1  0  0  0
  1  6  1  0  0  0
  6  7  1  0  0  0
  7  8  1  0  0  0
  9  8  1  0  0  0
  9 10  1  0  0  0
 10 11  2  0  0  0
 10 12  1  0  0  0
 12 13  1  0  0  0
 13 14  2  0  0  0
 13 15  1  0  0  0
 22 18  1  0  0  0
 15  6  1  0  0  0
 15  9  1  0  0  0
  2  4  1  0  0  0
  3  5  1  0  0  0
 12 16  1  0  0  0
M  END
> <minimizedAffinity>
-6.15505

> <minimizedRMSD>
0.59347

$$$$
P109061


 32 34  0  0  0  0  0  0  0  0999 V2000
   10.4000   16.4728   23.9499 N   0  0  0  0  0  0  0  0  0  0  0  0
   10.6893   15.1387   23.4691 C   0  0  0  0  0  0  0  0  0  0  0  0
   11.9414   15.1141   22.5971 C   0  0  0  0  0  0  0  0  0  0  0  0
   11.8203   15.9240   21.3132 C   0  0  0  0  0  0  0  0  0  0  0  0
   10.4543   15.7505   20.6272 C   0  0  0  0  0  0  0  0  0  0  0  0
    9.5836   14.6835   21.3201 C   0  0  0  0  0  0  0  0  0  0  0  0
    9.4584   14.7458   22.8097 N   0  0  0  0  0  0  0  0  0  0  0  0
   11.2164   16.8434   24.4362 H   0  0  0  0  0  0  0  0  0  0  0  0
    9.6082   16.4386   24.5920 H   0  0  0  0  0  0  0  0  0  0  0  0
    8.8719   13.4781   23.3569 C   0  0  0  0  0  0  0  0  0  0  0  0
    7.6159   13.2859   22.6863 O   0  0  0  0  0  0  0  0  0  0  0  0
    9.8009   12.2301   23.1883 C   0  0  0  0  0  0  0  0  0  0  0  0
    9.1507   10.9212   23.3441 N   0  0  0  0  0  0  0  0  0  0  0  0
    8.9762   10.6210   24.6979 N   0  0  0  0  0  0  0  0  0  0  0  0
    7.8929   11.1902   25.3928 C   0  0  0  0  0  0  0  0  0  0  0  0
    7.1440   10.2762   26.0583 N   0  0  0  0  0  0  0  0  0  0  0  0
    6.1296   10.7228   26.8237 C   0  0  0  0  0  0  0  0  0  0  0  0
    5.8444   12.0580   27.0109 C   0  0  0  0  0  0  0  0  0  0  0  0
    6.6332   12.9885   26.3488 C   0  0  0  0  0  0  0  0  0  0  0  0
    7.6756   12.5680   25.5060 C   0  0  0  0  0  0  0  0  0  0  0  0
    8.5446   13.6318   24.8712 C   0  0  0  0  0  0  0  0  0  0  0  0
    7.7700   13.1846   21.7340 H   0  0  0  0  0  0  0  0  0  0  0  0
    9.7332   10.2033   22.9132 H   0  0  0  0  0  0  0  0  0  0  0  0
    9.6033   10.0187   25.1597 H   0  0  0  0  0  0  0  0  0  0  0  0
   10.5777   15.4929   19.0951 C   0  0  0  0  0  0  0  0  0  0  0  0
   11.5348   14.5247   18.6861 N   0  0  0  0  0  0  0  0  0  0  0  0
    9.3562   15.1585   18.5383 O   0  0  0  0  0  0  0  0  0  0  0  0
   10.9133   16.6409   18.4107 O   0  0  0  0  0  0  0  0  0  0  0  0
   11.3464   13.6401   19.1577 H   0  0  0  0  0  0  0  0  0  0  0  0
   12.4710   14.8476   18.9305 H   0  0  0  0  0  0  0  0  0  0  0  0
    8.8990   14.3963   18.8350 H   0  0  0  0  0  0  0  0  0  0  0  0
   11.7175   17.0822   18.6019 H   0  0  0  0  0  0  0  0  0  0  0  0
  2  1  1  0  0  0
  2  3  1  0  0  0
  3  4  1  0  0  0
  4  5  1  0  0  0
  5 25  1  0  0  0
 25 26  1  0  0  0
 25 27  1  0  0  0
 25 28  1  0  0  0
  5  6  1  0  0  0
  6  7  1  0  0  0
  7 10  1  0  0  0
 10 11  1  0  0  0
 10 12  1  0  0  0
 12 13  1  0  0  0
 13 14  1  0  0  0
 14 15  1  0  0  0
 15 16  2  0  0  0
 16 17  1  0  0  0
 17 18  2  0  0  0
 18 19  1  0  0  0
 19 20  2  0  0  0
 20 21  1  0  0  0
  7  2  1  0  0  0
 21 10  1  0  0  0
 20 15  1  0  0  0
  1  8  1  0  0  0
  1  9  1  0  0  0
 26 29  1  0  0  0
 26 30  1  0  0  0
 27 31  1  0  0  0
 28 32  1  0  0  0
 11 22  1  0  0  0
 13 23  1  0  0  0
 14 24  1  0  0  0
M  END
> <minimizedAffinity>
-8.26017

> <minimizedRMSD>
0.27220

$$$$
P109435


 25 26  0  0  0  0  0  0  0  0999 V2000
    9.8381   15.2178   23.8837 N   0  0  0  0  0  0  0  0  0  0  0  0
    9.8700   15.2038   22.4167 C   0  0  0  0  0  0  0  0  0  0  0  0
   11.0318   16.0305   21.8393 C   0  0  0  0  0  0  0  0  0  0  0  0
   12.3006   15.9327   22.6720 C   0  0  0  0  0  0  0  0  0  0  0  0
   12.2398   14.7860   23.6529 C   0  0  0  0  0  0  0  0  0  0  0  0
   11.0292   14.9043   24.5419 C   0  0  0  0  0  0  0  0  0  0  0  0
   11.1350   14.6942   25.7468 O   0  0  0  0  0  0  0  0  0  0  0  0
   11.2318   15.5603   20.3960 C   0  0  0  0  0  0  0  0  0  0  0  0
   12.0973   14.8793   20.0252 O   0  0  0  0  0  0  0  0  0  0  0  0
   10.0074   16.1054   19.6521 N   0  0  0  0  0  0  0  0  0  0  0  0
    9.6526   16.0110   18.3309 O   0  0  0  0  0  0  0  0  0  0  0  0
    9.3721   16.6046   20.2146 H   0  0  0  0  0  0  0  0  0  0  0  0
   10.3278   15.5072   17.8500 H   0  0  0  0  0  0  0  0  0  0  0  0
    8.5608   14.9955   24.5809 C   0  0  0  0  0  0  0  0  0  0  0  0
    8.5483   15.6086   25.9900 C   0  0  0  0  0  0  0  0  0  0  0  0
    7.5589   15.6905   23.8406 O   0  0  0  0  0  0  0  0  0  0  0  0
    6.6973   15.5687   24.2693 H   0  0  0  0  0  0  0  0  0  0  0  0
    8.4234   11.1671   24.2439 C   0  0  0  0  0  0  0  0  0  0  0  0
    7.3584   10.8507   25.0745 C   0  0  0  0  0  0  0  0  0  0  0  0
    6.6222   11.8723   25.6652 C   0  0  0  0  0  0  0  0  0  0  0  0
    6.9730   13.2032   25.4435 C   0  0  0  0  0  0  0  0  0  0  0  0
    8.1032   13.5431   24.6755 C   0  0  0  0  0  0  0  0  0  0  0  0
    8.8015   12.4958   24.0705 C   0  0  0  0  0  0  0  0  0  0  0  0
    8.8827    8.9253   23.5934 C   0  0  0  0  0  0  0  0  0  0  0  0
    9.2460   10.2894   23.6159 O   0  0  0  0  0  0  0  0  0  0  0  0
 24 25  1  0  0  0
 25 18  1  0  0  0
 18 19  2  0  0  0
 19 20  1  0  0  0
 20 21  2  0  0  0
 21 22  1  0  0  0
 22 14  1  0  0  0
 14 15  1  0  0  0
 14 16  1  0  0  0
 14  1  1  0  0  0
  1  2  1  0  0  0
  2  3  1  0  0  0
  3  8  1  0  0  0
  8  9  2  0  0  0
  8 10  1  0  0  0
 10 11  1  0  0  0
  3  4  1  0  0  0
  4  5  1  0  0  0
  5  6  1  0  0  0
  6  7  2  0  0  0
 22 23  2  0  0  0
 23 18  1  0  0  0
  6  1  1  0  0  0
 16 17  1  0  0  0
 10 12  1  0  0  0
 11 13  1  0  0  0
M  END
> <minimizedAffinity>
-7.83981

> <minimizedRMSD>
0.48609

$$$$
P109659


 30 32  0  0  0  0  0  0  0  0999 V2000
    8.3657   14.2545   23.4546 C   0  0  0  0  0  0  0  0  0  0  0  0
    7.1318   14.3273   22.5289 C   0  0  0  0  0  0  0  0  0  0  0  0
    8.1660   15.2310   24.4697 O   0  0  0  0  0  0  0  0  0  0  0  0
    7.3664   15.0141   24.9742 H   0  0  0  0  0  0  0  0  0  0  0  0
   10.0377    9.4391   23.3523 C   0  0  0  0  0  0  0  0  0  0  0  0
    9.1341   10.4932   23.9151 C   0  0  0  0  0  0  0  0  0  0  0  0
    9.2577   11.8424   23.5637 C   0  0  0  0  0  0  0  0  0  0  0  0
    8.3805   12.8284   24.0735 C   0  0  0  0  0  0  0  0  0  0  0  0
    7.3968   12.4248   25.0500 C   0  0  0  0  0  0  0  0  0  0  0  0
    6.5018   13.2918   25.7311 C   0  0  0  0  0  0  0  0  0  0  0  0
    5.5122   12.8379   26.6075 C   0  0  0  0  0  0  0  0  0  0  0  0
    5.3659   11.4829   26.8282 C   0  0  0  0  0  0  0  0  0  0  0  0
    6.2308   10.5969   26.1968 C   0  0  0  0  0  0  0  0  0  0  0  0
    7.2616   11.0493   25.3570 C   0  0  0  0  0  0  0  0  0  0  0  0
    8.1341   10.1133   24.8035 C   0  0  0  0  0  0  0  0  0  0  0  0
    9.5977   14.6681   22.7457 N   0  0  0  0  0  0  0  0  0  0  0  0
    9.7055   14.5392   21.2873 C   0  0  0  0  0  0  0  0  0  0  0  0
   10.4735   15.6945   20.6385 C   0  0  0  0  0  0  0  0  0  0  0  0
   11.7733   16.0028   21.3973 C   0  0  0  0  0  0  0  0  0  0  0  0
   12.0012   15.0879   22.5920 C   0  0  0  0  0  0  0  0  0  0  0  0
   10.7743   14.8889   23.4496 C   0  0  0  0  0  0  0  0  0  0  0  0
   10.8500   14.8585   24.6785 O   0  0  0  0  0  0  0  0  0  0  0  0
   10.6514   15.4801   19.1203 C   0  0  0  0  0  0  0  0  0  0  0  0
   11.6083   14.5113   18.7136 N   0  0  0  0  0  0  0  0  0  0  0  0
    9.4401   15.1442   18.5473 O   0  0  0  0  0  0  0  0  0  0  0  0
   10.9928   16.6362   18.4697 O   0  0  0  0  0  0  0  0  0  0  0  0
   11.4054   13.6212   19.1685 H   0  0  0  0  0  0  0  0  0  0  0  0
   12.5423   14.8237   18.9789 H   0  0  0  0  0  0  0  0  0  0  0  0
    8.9873   14.3731   18.8270 H   0  0  0  0  0  0  0  0  0  0  0  0
   11.7930   17.0747   18.6825 H   0  0  0  0  0  0  0  0  0  0  0  0
  5  6  1  0  0  0
  6  7  2  0  0  0
  7  8  1  0  0  0
  8  1  1  0  0  0
  1  2  1  0  0  0
  1  3  1  0  0  0
  1 16  1  0  0  0
 16 17  1  0  0  0
 17 18  1  0  0  0
 18 23  1  0  0  0
 23 24  1  0  0  0
 23 25  1  0  0  0
 23 26  1  0  0  0
 18 19  1  0  0  0
 19 20  1  0  0  0
 20 21  1  0  0  0
 21 22  2  0  0  0
  8  9  2  0  0  0
  9 10  1  0  0  0
 10 11  2  0  0  0
 11 12  1  0  0  0
 12 13  2  0  0  0
 13 14  1  0  0  0
 14 15  2  0  0  0
 15  6  1  0  0  0
 21 16  1  0  0  0
 14  9  1  0  0  0
  3  4  1  0  0  0
 24 27  1  0  0  0
 24 28  1  0  0  0
 25 29  1  0  0  0
 26 30  1  0  0  0
M  END
> <minimizedAffinity>
-8.38544

> <minimizedRMSD>
0.32990

$$$$
P110324


 25 26  0  0  0  0  0  0  0  0999 V2000
    9.1823   14.4112   24.9640 C   0  0  0  0  0  0  0  0  0  0  0  0
   10.0523   14.7266   23.8560 N   0  0  0  0  0  0  0  0  0  0  0  0
    9.7212   14.5174   22.4700 C   0  0  0  0  0  0  0  0  0  0  0  0
   10.8080   15.3167   21.7876 C   0  0  0  0  0  0  0  0  0  0  0  0
   12.0316   14.9909   22.6328 C   0  0  0  0  0  0  0  0  0  0  0  0
   11.4221   14.8269   24.0031 C   0  0  0  0  0  0  0  0  0  0  0  0
   12.0180   14.7662   25.0666 O   0  0  0  0  0  0  0  0  0  0  0  0
   10.8676   15.0689   20.2908 C   0  0  0  0  0  0  0  0  0  0  0  0
   12.1241   14.6184   19.7363 N   0  0  0  0  0  0  0  0  0  0  0  0
   12.8254   15.3512   19.8440 H   0  0  0  0  0  0  0  0  0  0  0  0
   12.0024   14.4071   18.7459 H   0  0  0  0  0  0  0  0  0  0  0  0
   10.3604   16.2760   19.6153 N   0  0  0  0  0  0  0  0  0  0  0  0
    9.5560   16.0155   18.7214 O   0  0  0  0  0  0  0  0  0  0  0  0
    7.7892   13.9437   24.5785 C   0  0  0  0  0  0  0  0  0  0  0  0
    7.0657   14.4836   23.7458 O   0  0  0  0  0  0  0  0  0  0  0  0
    7.6874   11.4931   25.1722 C   0  0  0  0  0  0  0  0  0  0  0  0
    7.0181   10.4584   25.8048 C   0  0  0  0  0  0  0  0  0  0  0  0
    5.9600   10.7439   26.6728 C   0  0  0  0  0  0  0  0  0  0  0  0
    5.5525   12.0586   26.8888 C   0  0  0  0  0  0  0  0  0  0  0  0
    6.1815   13.0942   26.2073 C   0  0  0  0  0  0  0  0  0  0  0  0
    7.2450   12.8096   25.3457 C   0  0  0  0  0  0  0  0  0  0  0  0
    9.0789    9.4878   23.5475 C   0  0  0  0  0  0  0  0  0  0  0  0
    8.9185   11.1585   23.9964 S   0  0  0  0  0  0  0  0  0  0  0  0
   10.3303   11.7313   24.4000 F   0  0  0  0  0  0  0  0  0  0  0  0
    8.4844   12.0228   22.7674 F   0  0  0  0  0  0  0  0  0  0  0  0
 22 23  1  0  0  0
 23 24  1  0  0  0
 23 25  1  0  0  0
 23 16  1  0  0  0
 16 17  2  0  0  0
 17 18  1  0  0  0
 18 19  2  0  0  0
 19 20  1  0  0  0
 20 21  2  0  0  0
 21 14  1  0  0  0
 14 15  2  0  0  0
 14  1  1  0  0  0
  1  2  1  0  0  0
  2  3  1  0  0  0
  4  3  1  0  0  0
  4  8  1  0  0  0
  8  9  1  0  0  0
  8 12  1  0  0  0
 12 13  2  0  0  0
  4  5  1  0  0  0
  5  6  1  0  0  0
  6  7  2  0  0  0
 21 16  1  0  0  0
  6  2  1  0  0  0
  9 10  1  0  0  0
  9 11  1  0  0  0
M  END
> <minimizedAffinity>
-6.75371

> <minimizedRMSD>
0.52884

$$$$
P110336


 25 26  0  0  0  0  0  0  0  0999 V2000
   10.1524   14.6136   22.6900 N   0  0  0  0  0  0  0  0  0  0  0  0
    9.6349   14.8620   21.3599 C   0  0  0  0  0  0  0  0  0  0  0  0
   10.7878   15.4924   20.6052 C   0  0  0  0  0  0  0  0  0  0  0  0
   12.0168   14.9050   21.3106 C   0  0  0  0  0  0  0  0  0  0  0  0
   11.5285   14.7019   22.7280 C   0  0  0  0  0  0  0  0  0  0  0  0
   12.2166   14.5997   23.7334 O   0  0  0  0  0  0  0  0  0  0  0  0
   10.6958   15.3196   19.0854 C   0  0  0  0  0  0  0  0  0  0  0  0
   11.3782   14.2277   18.4969 N   0  0  0  0  0  0  0  0  0  0  0  0
   11.1532   16.4033   18.4022 O   0  0  0  0  0  0  0  0  0  0  0  0
    9.3771   15.3356   18.6670 O   0  0  0  0  0  0  0  0  0  0  0  0
   12.3487   14.2242   18.8109 H   0  0  0  0  0  0  0  0  0  0  0  0
   11.3498   14.3166   17.4812 H   0  0  0  0  0  0  0  0  0  0  0  0
   12.0502   16.6627   18.4812 H   0  0  0  0  0  0  0  0  0  0  0  0
    8.7790   14.6847   18.9778 H   0  0  0  0  0  0  0  0  0  0  0  0
    9.3093   14.3641   23.8507 C   0  0  0  0  0  0  0  0  0  0  0  0
    8.1047   13.4909   23.5653 C   0  0  0  0  0  0  0  0  0  0  0  0
    7.4938   13.4500   22.5003 O   0  0  0  0  0  0  0  0  0  0  0  0
    7.9815   11.2712   24.6302 C   0  0  0  0  0  0  0  0  0  0  0  0
    7.2923   10.4117   25.4828 C   0  0  0  0  0  0  0  0  0  0  0  0
    6.3180   10.8966   26.3640 C   0  0  0  0  0  0  0  0  0  0  0  0
    6.0188   12.2567   26.4057 C   0  0  0  0  0  0  0  0  0  0  0  0
    6.6562   13.1279   25.5275 C   0  0  0  0  0  0  0  0  0  0  0  0
    7.6160   12.6241   24.6428 C   0  0  0  0  0  0  0  0  0  0  0  0
    9.1504    8.9696   23.4615 C   0  0  0  0  0  0  0  0  0  0  0  0
    9.3408   10.7532   23.5946 S   0  0  0  0  0  0  0  0  0  0  0  0
 24 25  1  0  0  0
 25 18  1  0  0  0
 18 19  2  0  0  0
 19 20  1  0  0  0
 20 21  2  0  0  0
 21 22  1  0  0  0
 22 23  2  0  0  0
 23 16  1  0  0  0
 16 17  2  0  0  0
 16 15  1  0  0  0
 15  1  1  0  0  0
  1  2  1  0  0  0
  2  3  1  0  0  0
  3  7  1  0  0  0
  7  8  1  0  0  0
  7  9  1  0  0  0
  7 10  1  0  0  0
  3  4  1  0  0  0
  4  5  1  0  0  0
  5  6  2  0  0  0
 23 18  1  0  0  0
  5  1  1  0  0  0
  8 11  1  0  0  0
  8 12  1  0  0  0
  9 13  1  0  0  0
 10 14  1  0  0  0
M  END
> <minimizedAffinity>
-6.98720

> <minimizedRMSD>
0.30314

$$$$
P111322


 15 15  0  0  0  0  0  0  0  0999 V2000
    8.5151   13.5081   23.6525 C   0  0  0  0  0  0  0  0  0  0  0  0
    8.3491   12.9277   25.0131 C   0  0  0  0  0  0  0  0  0  0  0  0
    9.4776   12.4365   24.1005 C   0  0  0  0  0  0  0  0  0  0  0  0
    9.1513   14.8055   23.3215 C   0  0  0  0  0  0  0  0  0  0  0  0
    9.0863   14.9460   21.7962 C   0  0  0  0  0  0  0  0  0  0  0  0
    9.9470   16.0818   21.2755 C   0  0  0  0  0  0  0  0  0  0  0  0
   10.3508   15.8407   19.8281 C   0  0  0  0  0  0  0  0  0  0  0  0
   12.3193   15.9122   21.6844 C   0  0  0  0  0  0  0  0  0  0  0  0
   11.0481   16.3375   22.1565 O   0  0  0  0  0  0  0  0  0  0  0  0
    9.5892   11.2455   23.2055 C   0  0  0  0  0  0  0  0  0  0  0  0
    9.5290    9.9733   23.9070 N   0  0  0  0  0  0  0  0  0  0  0  0
    9.9644    8.8760   23.0329 C   0  0  0  0  0  0  0  0  0  0  0  0
    8.2058    9.6993   24.4098 N   0  0  0  0  0  0  0  0  0  0  0  0
    7.9075   10.4634   25.0161 H   0  0  0  0  0  0  0  0  0  0  0  0
    8.2174    8.8286   24.9409 H   0  0  0  0  0  0  0  0  0  0  0  0
  8  9  1  0  0  0
  9  6  1  0  0  0
  6  7  1  0  0  0
  6  5  1  0  0  0
  5  4  1  0  0  0
  1  4  1  0  0  0
  1  2  1  0  0  0
  2  3  1  0  0  0
  3 10  1  0  0  0
 10 11  1  0  0  0
 11 12  1  0  0  0
 11 13  1  0  0  0
  3  1  1  0  0  0
 13 14  1  0  0  0
 13 15  1  0  0  0
M  END
> <minimizedAffinity>
-4.71018

> <minimizedRMSD>
1.10263

$$$$
P112961


 29 30  0  0  0  0  0  0  0  0999 V2000
    9.5128   14.2919   24.7634 C   0  0  0  0  0  0  0  0  0  0  0  0
    9.1640   14.6020   26.0964 O   0  0  0  0  0  0  0  0  0  0  0  0
   10.6896   13.5200   24.8396 O   0  0  0  0  0  0  0  0  0  0  0  0
    8.4010   15.1161   26.2735 H   0  0  0  0  0  0  0  0  0  0  0  0
   11.0952   13.2054   24.0557 H   0  0  0  0  0  0  0  0  0  0  0  0
    9.8108   15.5659   24.1333 N   0  0  0  0  0  0  0  0  0  0  0  0
   11.2085   15.9737   24.0380 C   0  0  0  0  0  0  0  0  0  0  0  0
   12.1090   15.2696   23.0189 C   0  0  0  0  0  0  0  0  0  0  0  0
   11.4183   14.7903   21.7505 C   0  0  0  0  0  0  0  0  0  0  0  0
   12.3893   14.3628   20.8097 O   0  0  0  0  0  0  0  0  0  0  0  0
   10.5037   15.8205   21.0962 C   0  0  0  0  0  0  0  0  0  0  0  0
    9.0890   15.6549   21.6672 C   0  0  0  0  0  0  0  0  0  0  0  0
    8.9385   16.1362   23.1128 C   0  0  0  0  0  0  0  0  0  0  0  0
   12.9454   15.1155   20.5544 H   0  0  0  0  0  0  0  0  0  0  0  0
   10.4439   15.8848   19.5373 C   0  0  0  0  0  0  0  0  0  0  0  0
   10.6747   14.6247   18.8828 N   0  0  0  0  0  0  0  0  0  0  0  0
   10.1554   16.9586   19.0853 O   0  0  0  0  0  0  0  0  0  0  0  0
   10.9064   13.8291   19.4143 H   0  0  0  0  0  0  0  0  0  0  0  0
   10.6010   14.5580   17.9033 H   0  0  0  0  0  0  0  0  0  0  0  0
    8.3207   13.4940   24.1509 C   0  0  0  0  0  0  0  0  0  0  0  0
    8.1185   10.9964   24.8037 C   0  0  0  0  0  0  0  0  0  0  0  0
    7.4468   10.0164   25.5431 C   0  0  0  0  0  0  0  0  0  0  0  0
    6.4444   10.3559   26.4570 C   0  0  0  0  0  0  0  0  0  0  0  0
    6.1206   11.6874   26.6662 C   0  0  0  0  0  0  0  0  0  0  0  0
    4.7915   12.1442   27.9270 Br  0  0  0  0  0  0  0  0  0  0  0  0
    6.7676   12.6801   25.9427 C   0  0  0  0  0  0  0  0  0  0  0  0
    7.7529   12.3497   24.9879 C   0  0  0  0  0  0  0  0  0  0  0  0
    9.3511    8.7986   23.4394 C   0  0  0  0  0  0  0  0  0  0  0  0
    9.4299   10.5940   23.6512 S   0  0  0  0  0  0  0  0  0  0  0  0
 28 29  1  0  0  0
 29 21  1  0  0  0
 21 22  2  0  0  0
 22 23  1  0  0  0
 23 24  2  0  0  0
 24 25  1  0  0  0
 24 26  1  0  0  0
 26 27  2  0  0  0
 27 20  1  0  0  0
 20  1  1  0  0  0
  1  2  1  0  0  0
  1  3  1  0  0  0
  1  6  1  0  0  0
  6  7  1  0  0  0
  7  8  1  0  0  0
  8  9  1  0  0  0
  9 10  1  0  0  0
  9 11  1  0  0  0
 11 15  1  0  0  0
 15 16  1  0  0  0
 15 17  2  0  0  0
 11 12  1  0  0  0
 12 13  1  0  0  0
 27 21  1  0  0  0
 13  6  1  0  0  0
  2  4  1  0  0  0
  3  5  1  0  0  0
 10 14  1  0  0  0
 16 18  1  0  0  0
 16 19  1  0  0  0
M  END
> <minimizedAffinity>
-7.47538

> <minimizedRMSD>
0.24745

$$$$
P113124


 27 29  0  0  0  0  0  0  0  0999 V2000
    9.2267   10.2123   23.6081 C   0  0  0  0  0  0  0  0  0  0  0  0
    8.4623   11.2614   24.3519 C   0  0  0  0  0  0  0  0  0  0  0  0
    7.2815   10.9453   25.0061 C   0  0  0  0  0  0  0  0  0  0  0  0
    6.4883   11.9539   25.5325 C   0  0  0  0  0  0  0  0  0  0  0  0
    6.8599   13.2935   25.3850 C   0  0  0  0  0  0  0  0  0  0  0  0
    8.1329   13.6283   24.8865 C   0  0  0  0  0  0  0  0  0  0  0  0
    8.9264   12.5800   24.3920 C   0  0  0  0  0  0  0  0  0  0  0  0
    8.5314   15.1215   24.7839 C   0  0  0  0  0  0  0  0  0  0  0  0
    8.6568   15.8187   26.1753 C   0  0  0  0  0  0  0  0  0  0  0  0
    7.2895   15.7982   24.0758 C   0  0  0  0  0  0  0  0  0  0  0  0
    7.4430   17.2110   23.9459 O   0  0  0  0  0  0  0  0  0  0  0  0
    5.9486   15.5802   24.8190 C   0  0  0  0  0  0  0  0  0  0  0  0
    5.8785   14.3683   25.7513 C   0  0  0  0  0  0  0  0  0  0  0  0
    7.4672   17.6160   24.8270 H   0  0  0  0  0  0  0  0  0  0  0  0
    9.8362   15.2968   24.0114 N   0  0  0  0  0  0  0  0  0  0  0  0
    9.8536   15.0029   22.5690 C   0  0  0  0  0  0  0  0  0  0  0  0
   11.0659   15.5296   21.7848 C   0  0  0  0  0  0  0  0  0  0  0  0
   12.1128   16.1778   22.6583 C   0  0  0  0  0  0  0  0  0  0  0  0
   12.3029   15.2918   23.8604 C   0  0  0  0  0  0  0  0  0  0  0  0
   11.0556   15.2611   24.7009 C   0  0  0  0  0  0  0  0  0  0  0  0
   11.1835   15.1610   25.9184 O   0  0  0  0  0  0  0  0  0  0  0  0
   10.4683   16.4767   20.7740 C   0  0  0  0  0  0  0  0  0  0  0  0
   10.0941   17.5441   21.0323 O   0  0  0  0  0  0  0  0  0  0  0  0
   10.3935   15.6885   19.4645 N   0  0  0  0  0  0  0  0  0  0  0  0
    9.7862   15.9945   18.2749 O   0  0  0  0  0  0  0  0  0  0  0  0
   10.8572   14.8201   19.4791 H   0  0  0  0  0  0  0  0  0  0  0  0
    9.3554   16.8607   18.3452 H   0  0  0  0  0  0  0  0  0  0  0  0
  1  2  1  0  0  0
  2  3  2  0  0  0
  3  4  1  0  0  0
  4  5  2  0  0  0
  5  6  1  0  0  0
  6  7  2  0  0  0
  6  8  1  0  0  0
  8  9  1  0  0  0
  8 15  1  0  0  0
 15 16  1  0  0  0
 16 17  1  0  0  0
 17 22  1  0  0  0
 22 23  2  0  0  0
 22 24  1  0  0  0
 24 25  1  0  0  0
 17 18  1  0  0  0
 18 19  1  0  0  0
 19 20  1  0  0  0
 20 21  2  0  0  0
  8 10  1  0  0  0
 10 11  1  0  0  0
 10 12  1  0  0  0
 12 13  1  0  0  0
  7  2  1  0  0  0
 20 15  1  0  0  0
 13  5  1  0  0  0
 24 26  1  0  0  0
 25 27  1  0  0  0
 11 14  1  0  0  0
M  END
> <minimizedAffinity>
-8.91351

> <minimizedRMSD>
0.66564

$$$$
P114219


 25 27  0  0  0  0  0  0  0  0999 V2000
    8.0563   13.5716   23.5667 C   0  0  0  0  0  0  0  0  0  0  0  0
    6.8828   12.9597   23.1220 O   0  0  0  0  0  0  0  0  0  0  0  0
    9.0942   12.8007   23.0480 O   0  0  0  0  0  0  0  0  0  0  0  0
    6.7248   12.8611   22.2037 H   0  0  0  0  0  0  0  0  0  0  0  0
    9.1603   12.6654   22.1232 H   0  0  0  0  0  0  0  0  0  0  0  0
    8.1386   14.9319   23.0802 N   0  0  0  0  0  0  0  0  0  0  0  0
    8.9208   15.7857   24.0071 C   0  0  0  0  0  0  0  0  0  0  0  0
   10.4518   15.7038   23.8774 C   0  0  0  0  0  0  0  0  0  0  0  0
   10.7928   15.9927   22.4370 C   0  0  0  0  0  0  0  0  0  0  0  0
   12.2093   15.8098   21.9554 C   0  0  0  0  0  0  0  0  0  0  0  0
   12.0566   15.7109   20.5324 N   0  0  0  0  0  0  0  0  0  0  0  0
   10.7290   15.4772   20.2183 C   0  0  0  0  0  0  0  0  0  0  0  0
   10.2473   15.6330   19.1188 O   0  0  0  0  0  0  0  0  0  0  0  0
   10.0690   15.0379   21.5014 C   0  0  0  0  0  0  0  0  0  0  0  0
    8.5742   15.1312   21.6766 C   0  0  0  0  0  0  0  0  0  0  0  0
   12.7867   15.7963   19.8775 H   0  0  0  0  0  0  0  0  0  0  0  0
    8.1467   13.6446   24.9711 O   0  0  0  0  0  0  0  0  0  0  0  0
    7.3754   11.4124   25.7849 C   0  0  0  0  0  0  0  0  0  0  0  0
    6.5002   10.7950   26.8903 C   0  0  0  0  0  0  0  0  0  0  0  0
    5.6348   11.7644   27.6887 C   0  0  0  0  0  0  0  0  0  0  0  0
    4.9369   12.7709   26.7964 C   0  0  0  0  0  0  0  0  0  0  0  0
    5.8930   13.5028   25.8601 C   0  0  0  0  0  0  0  0  0  0  0  0
    7.3206   12.9403   25.8662 C   0  0  0  0  0  0  0  0  0  0  0  0
    9.0951    9.8125   24.7857 C   0  0  0  0  0  0  0  0  0  0  0  0
    8.8163   10.8416   25.8759 C   0  0  0  0  0  0  0  0  0  0  0  0
 24 25  1  0  0  0
 18 25  1  0  0  0
 18 19  1  0  0  0
 19 20  1  0  0  0
 20 21  1  0  0  0
 21 22  1  0  0  0
 22 23  1  0  0  0
 23 17  1  0  0  0
 17  1  1  0  0  0
  1  2  1  0  0  0
  1  3  1  0  0  0
  1  6  1  0  0  0
  6  7  1  0  0  0
  7  8  1  0  0  0
  9  8  1  0  0  0
  9 10  1  0  0  0
 10 11  1  0  0  0
 11 12  1  0  0  0
 12 13  2  0  0  0
 12 14  1  0  0  0
 14 15  1  0  0  0
 23 18  1  0  0  0
 15  6  1  0  0  0
 14  9  1  0  0  0
  2  4  1  0  0  0
  3  5  1  0  0  0
 11 16  1  0  0  0
M  END
> <minimizedAffinity>
-6.73705

> <minimizedRMSD>
0.93710

$$$$
P114445


 33 36  0  0  0  0  0  0  0  0999 V2000
    9.5972    9.1061   23.0408 C   0  0  0  0  0  0  0  0  0  0  0  0
    8.7845    9.9784   23.9261 C   0  0  0  0  0  0  0  0  0  0  0  0
    7.8601    9.4951   24.8193 N   0  0  0  0  0  0  0  0  0  0  0  0
    7.2453   10.5171   25.5046 C   0  0  0  0  0  0  0  0  0  0  0  0
    6.2550   10.5410   26.4796 C   0  0  0  0  0  0  0  0  0  0  0  0
    5.8842   11.8144   26.9603 C   0  0  0  0  0  0  0  0  0  0  0  0
    6.4874   13.0031   26.4870 C   0  0  0  0  0  0  0  0  0  0  0  0
    7.4916   12.9537   25.5106 C   0  0  0  0  0  0  0  0  0  0  0  0
    7.8217   11.6787   25.0443 C   0  0  0  0  0  0  0  0  0  0  0  0
    8.7664   11.3414   24.0758 C   0  0  0  0  0  0  0  0  0  0  0  0
    9.5564   12.3947   23.4296 C   0  0  0  0  0  0  0  0  0  0  0  0
    9.5958   13.7300   24.2324 C   0  0  0  0  0  0  0  0  0  0  0  0
   10.4906   13.4185   25.3006 O   0  0  0  0  0  0  0  0  0  0  0  0
    8.2080   14.1386   24.8723 C   0  0  0  0  0  0  0  0  0  0  0  0
    7.6627    8.5398   24.9520 H   0  0  0  0  0  0  0  0  0  0  0  0
   11.3527   13.1637   24.9363 H   0  0  0  0  0  0  0  0  0  0  0  0
   10.2691   14.8035   23.4600 N   0  0  0  0  0  0  0  0  0  0  0  0
    9.7627   15.1363   22.1385 C   0  0  0  0  0  0  0  0  0  0  0  0
   10.5069   14.4557   20.9786 C   0  0  0  0  0  0  0  0  0  0  0  0
   11.5049   13.3646   21.4054 C   0  0  0  0  0  0  0  0  0  0  0  0
   11.1432   15.4243   19.9743 C   0  0  0  0  0  0  0  0  0  0  0  0
   11.4383   14.8240   18.6884 N   0  0  0  0  0  0  0  0  0  0  0  0
   10.2475   16.4652   19.6910 O   0  0  0  0  0  0  0  0  0  0  0  0
   12.4527   15.9185   20.5436 C   0  0  0  0  0  0  0  0  0  0  0  0
   12.3464   16.6663   21.8430 C   0  0  0  0  0  0  0  0  0  0  0  0
   12.5275   15.8742   23.1172 C   0  0  0  0  0  0  0  0  0  0  0  0
   11.3602   15.4545   23.9943 C   0  0  0  0  0  0  0  0  0  0  0  0
   11.5054   15.5291   25.2232 O   0  0  0  0  0  0  0  0  0  0  0  0
   10.5758   14.4764   18.2695 H   0  0  0  0  0  0  0  0  0  0  0  0
   12.0903   14.0501   18.8161 H   0  0  0  0  0  0  0  0  0  0  0  0
    9.4266   16.0959   19.3296 H   0  0  0  0  0  0  0  0  0  0  0  0
    4.8511   11.8695   27.9526 C   0  0  0  0  0  0  0  0  0  0  0  0
    4.0026   11.8611   28.7449 N   0  0  0  0  0  0  0  0  0  0  0  0
  1  2  1  0  0  0
  2  3  1  0  0  0
  3  4  1  0  0  0
  4  5  2  0  0  0
  5  6  1  0  0  0
  6 32  1  0  0  0
 32 33  3  0  0  0
  6  7  2  0  0  0
  7  8  1  0  0  0
  8  9  2  0  0  0
  9 10  1  0  0  0
 10 11  1  0  0  0
 11 12  1  0  0  0
 12 13  1  0  0  0
 12 17  1  0  0  0
 17 18  1  0  0  0
 18 19  1  0  0  0
 19 20  1  0  0  0
 19 21  1  0  0  0
 21 22  1  0  0  0
 21 23  1  0  0  0
 21 24  1  0  0  0
 24 25  1  0  0  0
 25 26  1  0  0  0
 26 27  1  0  0  0
 27 28  2  0  0  0
 12 14  1  0  0  0
 10  2  2  0  0  0
 27 17  1  0  0  0
  9  4  1  0  0  0
 14  8  1  0  0  0
  3 15  1  0  0  0
 13 16  1  0  0  0
 22 29  1  0  0  0
 22 30  1  0  0  0
 23 31  1  0  0  0
M  END
> <minimizedAffinity>
-7.87956

> <minimizedRMSD>
0.55958

$$$$
P114471


 33 36  0  0  0  0  0  0  0  0999 V2000
    9.6308    8.8775   22.9166 C   0  0  0  0  0  0  0  0  0  0  0  0
    8.8533    9.7588   23.8210 C   0  0  0  0  0  0  0  0  0  0  0  0
    7.9040    9.2634   24.6818 N   0  0  0  0  0  0  0  0  0  0  0  0
    7.3047   10.2708   25.4003 C   0  0  0  0  0  0  0  0  0  0  0  0
    6.3020   10.2827   26.3696 C   0  0  0  0  0  0  0  0  0  0  0  0
    5.9462   11.5417   26.8976 C   0  0  0  0  0  0  0  0  0  0  0  0
    6.5580   12.7323   26.4491 C   0  0  0  0  0  0  0  0  0  0  0  0
    7.5461   12.6972   25.4524 C   0  0  0  0  0  0  0  0  0  0  0  0
    7.9077   11.4344   24.9756 C   0  0  0  0  0  0  0  0  0  0  0  0
    8.8796   11.1157   24.0134 C   0  0  0  0  0  0  0  0  0  0  0  0
    9.7088   12.1775   23.4146 C   0  0  0  0  0  0  0  0  0  0  0  0
    8.9826   13.5643   23.4657 C   0  0  0  0  0  0  0  0  0  0  0  0
    7.9088   13.5221   22.4897 O   0  0  0  0  0  0  0  0  0  0  0  0
    8.2771   13.8979   24.8693 C   0  0  0  0  0  0  0  0  0  0  0  0
    7.6813    8.3087   24.7725 H   0  0  0  0  0  0  0  0  0  0  0  0
    8.2755   13.3229   21.6140 H   0  0  0  0  0  0  0  0  0  0  0  0
    9.9724   14.5639   22.9998 N   0  0  0  0  0  0  0  0  0  0  0  0
    9.9843   14.9145   21.5537 C   0  0  0  0  0  0  0  0  0  0  0  0
   11.3964   14.9861   20.9903 C   0  0  0  0  0  0  0  0  0  0  0  0
   12.1276   16.0311   21.8365 C   0  0  0  0  0  0  0  0  0  0  0  0
   12.2826   15.5051   23.2345 C   0  0  0  0  0  0  0  0  0  0  0  0
   11.0823   14.7970   23.8076 C   0  0  0  0  0  0  0  0  0  0  0  0
   11.1822   14.3868   24.9678 O   0  0  0  0  0  0  0  0  0  0  0  0
   11.5150   15.3485   19.5124 C   0  0  0  0  0  0  0  0  0  0  0  0
   11.2937   14.3858   18.5137 N   0  0  0  0  0  0  0  0  0  0  0  0
   10.7583   16.4608   19.1765 O   0  0  0  0  0  0  0  0  0  0  0  0
   12.8559   15.5984   19.3226 O   0  0  0  0  0  0  0  0  0  0  0  0
   10.3159   14.0959   18.5317 H   0  0  0  0  0  0  0  0  0  0  0  0
   11.8914   13.5768   18.6829 H   0  0  0  0  0  0  0  0  0  0  0  0
    9.8251   16.4342   19.2565 H   0  0  0  0  0  0  0  0  0  0  0  0
   13.4877   14.9324   19.5102 H   0  0  0  0  0  0  0  0  0  0  0  0
    4.9287   11.5842   27.9105 C   0  0  0  0  0  0  0  0  0  0  0  0
    4.0985   11.5750   28.7227 N   0  0  0  0  0  0  0  0  0  0  0  0
  1  2  1  0  0  0
  2  3  1  0  0  0
  3  4  1  0  0  0
  4  5  2  0  0  0
  5  6  1  0  0  0
  6 32  1  0  0  0
 32 33  3  0  0  0
  6  7  2  0  0  0
  7  8  1  0  0  0
  8  9  2  0  0  0
  9 10  1  0  0  0
 10 11  1  0  0  0
 11 12  1  0  0  0
 12 13  1  0  0  0
 12 17  1  0  0  0
 17 18  1  0  0  0
 18 19  1  0  0  0
 19 24  1  0  0  0
 24 25  1  0  0  0
 24 26  1  0  0  0
 24 27  1  0  0  0
 19 20  1  0  0  0
 20 21  1  0  0  0
 21 22  1  0  0  0
 22 23  2  0  0  0
 12 14  1  0  0  0
 10  2  2  0  0  0
 22 17  1  0  0  0
  9  4  1  0  0  0
 14  8  1  0  0  0
  3 15  1  0  0  0
 13 16  1  0  0  0
 25 28  1  0  0  0
 25 29  1  0  0  0
 26 30  1  0  0  0
 27 31  1  0  0  0
M  END
> <minimizedAffinity>
-10.57577

> <minimizedRMSD>
0.31130

$$$$
P115222


 29 31  0  0  0  0  0  0  0  0999 V2000
    8.0992   14.0553   23.2643 C   0  0  0  0  0  0  0  0  0  0  0  0
    6.7645   14.5687   22.6798 C   0  0  0  0  0  0  0  0  0  0  0  0
    8.2736   12.8374   22.5648 O   0  0  0  0  0  0  0  0  0  0  0  0
    7.5707   12.2175   22.8148 H   0  0  0  0  0  0  0  0  0  0  0  0
    7.9047   11.2738   24.9747 C   0  0  0  0  0  0  0  0  0  0  0  0
    7.2774   10.1173   25.4736 C   0  0  0  0  0  0  0  0  0  0  0  0
    6.2013   10.1936   26.3452 C   0  0  0  0  0  0  0  0  0  0  0  0
    5.7461   11.4353   26.7659 C   0  0  0  0  0  0  0  0  0  0  0  0
    4.6672   11.5162   27.8121 C   0  0  0  0  0  0  0  0  0  0  0  0
    6.3146   12.6089   26.2186 C   0  0  0  0  0  0  0  0  0  0  0  0
    7.3762   12.5801   25.2565 C   0  0  0  0  0  0  0  0  0  0  0  0
    7.9339   13.7646   24.7208 N   0  0  0  0  0  0  0  0  0  0  0  0
    8.0363   14.9023   25.6469 C   0  0  0  0  0  0  0  0  0  0  0  0
    6.7543   15.7012   25.8116 C   0  0  0  0  0  0  0  0  0  0  0  0
    5.5356   14.8139   25.9078 C   0  0  0  0  0  0  0  0  0  0  0  0
    5.7994   13.7486   26.8059 O   0  0  0  0  0  0  0  0  0  0  0  0
    9.5480    9.3208   23.6426 C   0  0  0  0  0  0  0  0  0  0  0  0
    9.5660   11.0328   24.2549 S   0  0  0  0  0  0  0  0  0  0  0  0
    9.1828   14.9834   22.8662 N   0  0  0  0  0  0  0  0  0  0  0  0
   10.4324   14.8267   23.5984 C   0  0  0  0  0  0  0  0  0  0  0  0
   11.4868   14.0609   22.8324 C   0  0  0  0  0  0  0  0  0  0  0  0
   11.8734   14.7742   21.5556 C   0  0  0  0  0  0  0  0  0  0  0  0
   10.7503   15.5810   20.8940 C   0  0  0  0  0  0  0  0  0  0  0  0
    9.3571   15.1201   21.4045 C   0  0  0  0  0  0  0  0  0  0  0  0
   10.7096   15.5581   19.3230 C   0  0  0  0  0  0  0  0  0  0  0  0
   11.5454   14.5304   18.7397 N   0  0  0  0  0  0  0  0  0  0  0  0
   10.0301   16.4002   18.8028 O   0  0  0  0  0  0  0  0  0  0  0  0
   12.0435   13.9119   19.3216 H   0  0  0  0  0  0  0  0  0  0  0  0
   11.6159   14.4500   17.7610 H   0  0  0  0  0  0  0  0  0  0  0  0
 17 18  1  0  0  0
 18  5  1  0  0  0
  5  6  2  0  0  0
  6  7  1  0  0  0
  7  8  2  0  0  0
  8  9  1  0  0  0
  8 10  1  0  0  0
 10 11  2  0  0  0
 11 12  1  0  0  0
 12  1  1  0  0  0
  1  2  1  0  0  0
  1  3  1  0  0  0
  1 19  1  0  0  0
 19 20  1  0  0  0
 20 21  1  0  0  0
 21 22  1  0  0  0
 22 23  1  0  0  0
 23 25  1  0  0  0
 25 26  1  0  0  0
 25 27  2  0  0  0
 23 24  1  0  0  0
 12 13  1  0  0  0
 13 14  1  0  0  0
 14 15  1  0  0  0
 15 16  1  0  0  0
 11  5  1  0  0  0
 24 19  1  0  0  0
 16 10  1  0  0  0
  3  4  1  0  0  0
 26 28  1  0  0  0
 26 29  1  0  0  0
M  END
> <minimizedAffinity>
-8.83870

> <minimizedRMSD>
0.42708

$$$$
P116684


 38 42  0  0  0  0  0  0  0  0999 V2000
    6.9612   12.5747   26.2305 C   0  0  0  0  0  0  0  0  0  0  0  0
    6.0718   11.6628   26.8134 C   0  0  0  0  0  0  0  0  0  0  0  0
    6.1735   10.2964   26.5898 C   0  0  0  0  0  0  0  0  0  0  0  0
    7.1488    9.8148   25.7331 C   0  0  0  0  0  0  0  0  0  0  0  0
    8.0272   10.6756   25.0583 C   0  0  0  0  0  0  0  0  0  0  0  0
    7.9624   12.0866   25.3318 C   0  0  0  0  0  0  0  0  0  0  0  0
    9.0407   13.0299   24.6679 C   0  0  0  0  0  0  0  0  0  0  0  0
    9.6642   12.2681   23.4557 C   0  0  0  0  0  0  0  0  0  0  0  0
   10.0765   10.9238   23.8451 N   0  0  0  0  0  0  0  0  0  0  0  0
    8.9483   10.1602   24.1249 N   0  0  0  0  0  0  0  0  0  0  0  0
    9.0441    8.7286   23.8060 C   0  0  0  0  0  0  0  0  0  0  0  0
   10.1278   13.2918   25.6622 N   0  0  0  0  0  0  0  0  0  0  0  0
   11.0503   14.4285   25.4680 C   0  0  0  0  0  0  0  0  0  0  0  0
   12.4932   13.9997   25.8722 C   0  0  0  0  0  0  0  0  0  0  0  0
   13.1829   14.6661   27.0638 C   0  0  0  0  0  0  0  0  0  0  0  0
   14.2171   13.7552   27.7456 C   0  0  0  0  0  0  0  0  0  0  0  0
   15.4780   13.6434   27.0461 N   0  0  0  0  0  0  0  0  0  0  0  0
   14.4501   14.5042   28.9736 N   0  0  0  0  0  0  0  0  0  0  0  0
   14.9468   13.5627   29.9674 O   0  0  0  0  0  0  0  0  0  0  0  0
   13.0866   14.8995   29.3798 C   0  0  0  0  0  0  0  0  0  0  0  0
   12.2594   14.9977   28.1578 N   0  0  0  0  0  0  0  0  0  0  0  0
   11.9351   16.4107   28.0066 O   0  0  0  0  0  0  0  0  0  0  0  0
   11.2395   16.6973   26.7887 C   0  0  0  0  0  0  0  0  0  0  0  0
   10.3537   15.5852   26.2067 C   0  0  0  0  0  0  0  0  0  0  0  0
    9.3402   16.2577   25.2739 C   0  0  0  0  0  0  0  0  0  0  0  0
    8.8097   15.5461   24.1287 N   0  0  0  0  0  0  0  0  0  0  0  0
    8.4076   14.2559   23.9801 C   0  0  0  0  0  0  0  0  0  0  0  0
    7.5312   14.0826   23.1250 O   0  0  0  0  0  0  0  0  0  0  0  0
   10.6674   10.9756   24.6749 H   0  0  0  0  0  0  0  0  0  0  0  0
   10.7023   12.4498   25.6986 H   0  0  0  0  0  0  0  0  0  0  0  0
   15.8835   14.5716   26.9256 H   0  0  0  0  0  0  0  0  0  0  0  0
   15.3231   13.2188   26.1317 H   0  0  0  0  0  0  0  0  0  0  0  0
   15.8441   13.2831   29.7279 H   0  0  0  0  0  0  0  0  0  0  0  0
    8.7257   16.0933   23.3147 H   0  0  0  0  0  0  0  0  0  0  0  0
    6.9494   14.3022   26.7002 S   0  0  0  0  0  0  0  0  0  0  0  0
    4.3905   14.9772   27.6102 C   0  0  0  0  0  0  0  0  0  0  0  0
    5.3259   15.0809   26.4130 C   0  0  0  0  0  0  0  0  0  0  0  0
    4.7077   14.7472   25.0691 C   0  0  0  0  0  0  0  0  0  0  0  0
 36 37  1  0  0  0
 37 38  1  0  0  0
 37 35  1  0  0  0
 35  1  1  0  0  0
  1  2  2  0  0  0
  2  3  1  0  0  0
  3  4  2  0  0  0
  4  5  1  0  0  0
  5  6  2  0  0  0
  6  7  1  0  0  0
  7  8  1  0  0  0
  8  9  1  0  0  0
  9 10  1  0  0  0
 10 11  1  0  0  0
  7 12  1  0  0  0
 12 13  1  0  0  0
 13 14  1  0  0  0
 15 14  1  0  0  0
 15 16  1  0  0  0
 16 17  1  0  0  0
 16 18  1  0  0  0
 18 19  1  0  0  0
 18 20  1  0  0  0
 20 21  1  0  0  0
 21 22  1  0  0  0
 22 23  1  0  0  0
 24 23  1  0  0  0
 24 25  1  0  0  0
 25 26  1  0  0  0
 26 27  1  0  0  0
 27 28  2  0  0  0
  6  1  1  0  0  0
 27  7  1  0  0  0
 10  5  1  0  0  0
 24 13  1  0  0  0
 21 15  1  0  0  0
  9 29  1  0  0  0
 12 30  1  0  0  0
 17 31  1  0  0  0
 17 32  1  0  0  0
 19 33  1  0  0  0
 26 34  1  0  0  0
M  END
> <minimizedAffinity>
-7.64904

> <minimizedRMSD>
0.92902

$$$$
P117144


 27 28  0  0  0  0  0  0  0  0999 V2000
    9.0527   15.1129   23.2575 C   0  0  0  0  0  0  0  0  0  0  0  0
    8.5171   16.3715   23.9757 C   0  0  0  0  0  0  0  0  0  0  0  0
    9.0888   15.3878   21.7336 C   0  0  0  0  0  0  0  0  0  0  0  0
   10.1063   16.4541   21.2947 C   0  0  0  0  0  0  0  0  0  0  0  0
   11.4671   16.4479   22.0024 C   0  0  0  0  0  0  0  0  0  0  0  0
   11.4401   15.9729   23.4379 C   0  0  0  0  0  0  0  0  0  0  0  0
   10.5223   14.7598   23.6552 C   0  0  0  0  0  0  0  0  0  0  0  0
   10.7798   14.2819   25.0766 C   0  0  0  0  0  0  0  0  0  0  0  0
   10.3432   16.3634   19.7896 C   0  0  0  0  0  0  0  0  0  0  0  0
   10.1428   17.2622   19.0730 O   0  0  0  0  0  0  0  0  0  0  0  0
   10.9187   14.9488   19.4947 N   0  0  0  0  0  0  0  0  0  0  0  0
   11.4190   14.4239   18.3490 N   0  0  0  0  0  0  0  0  0  0  0  0
   10.9200   14.3351   20.2645 H   0  0  0  0  0  0  0  0  0  0  0  0
   11.3793   15.1242   17.6084 H   0  0  0  0  0  0  0  0  0  0  0  0
   10.8662   13.6107   18.0778 H   0  0  0  0  0  0  0  0  0  0  0  0
    8.0032   13.9795   23.4980 C   0  0  0  0  0  0  0  0  0  0  0  0
    7.3174   13.5173   22.5793 O   0  0  0  0  0  0  0  0  0  0  0  0
    7.7522   13.5743   24.9413 C   0  0  0  0  0  0  0  0  0  0  0  0
    7.5874   10.9907   24.9369 C   0  0  0  0  0  0  0  0  0  0  0  0
    6.8925    9.8686   25.4039 C   0  0  0  0  0  0  0  0  0  0  0  0
    5.6666    9.9784   26.0692 C   0  0  0  0  0  0  0  0  0  0  0  0
    5.1257   11.2285   26.3051 C   0  0  0  0  0  0  0  0  0  0  0  0
    3.4898   11.3999   27.2301 Br  0  0  0  0  0  0  0  0  0  0  0  0
    5.8062   12.3632   25.8872 C   0  0  0  0  0  0  0  0  0  0  0  0
    7.0420   12.2653   25.2079 C   0  0  0  0  0  0  0  0  0  0  0  0
    9.2034    9.0834   23.5221 C   0  0  0  0  0  0  0  0  0  0  0  0
    9.1305   10.8217   24.0375 S   0  0  0  0  0  0  0  0  0  0  0  0
 26 27  1  0  0  0
 27 19  1  0  0  0
 19 20  2  0  0  0
 20 21  1  0  0  0
 21 22  2  0  0  0
 22 23  1  0  0  0
 22 24  1  0  0  0
 24 25  2  0  0  0
 25 18  1  0  0  0
 18 16  1  0  0  0
 16 17  2  0  0  0
 16  1  1  0  0  0
  1  2  1  0  0  0
  1  3  1  0  0  0
  3  4  1  0  0  0
  4  9  1  0  0  0
  9 10  2  0  0  0
  9 11  1  0  0  0
 11 12  1  0  0  0
  4  5  1  0  0  0
  5  6  1  0  0  0
  6  7  1  0  0  0
  7  8  1  0  0  0
 25 19  1  0  0  0
  7  1  1  0  0  0
 11 13  1  0  0  0
 12 14  1  0  0  0
 12 15  1  0  0  0
M  END
> <minimizedAffinity>
-8.38372

> <minimizedRMSD>
0.35076

$$$$
P117462


 28 30  0  0  0  0  0  0  0  0999 V2000
    9.0765   13.2532   24.7254 C   0  0  0  0  0  0  0  0  0  0  0  0
    8.0736   10.9265   25.0456 C   0  0  0  0  0  0  0  0  0  0  0  0
    7.1353   10.1260   25.7218 C   0  0  0  0  0  0  0  0  0  0  0  0
    6.2278   10.6492   26.6763 C   0  0  0  0  0  0  0  0  0  0  0  0
    6.2116   12.0277   26.9172 C   0  0  0  0  0  0  0  0  0  0  0  0
    7.1237   12.8325   26.2149 C   0  0  0  0  0  0  0  0  0  0  0  0
    8.0713   12.3028   25.3175 C   0  0  0  0  0  0  0  0  0  0  0  0
    5.2682   12.7522   27.8541 C   0  0  0  0  0  0  0  0  0  0  0  0
    4.5274   11.9848   28.9538 C   0  0  0  0  0  0  0  0  0  0  0  0
    5.3931   10.9465   29.6540 C   0  0  0  0  0  0  0  0  0  0  0  0
    5.4854    9.6224   28.8944 C   0  0  0  0  0  0  0  0  0  0  0  0
    5.2835    9.7107   27.3819 C   0  0  0  0  0  0  0  0  0  0  0  0
    9.1120    9.0897   23.6613 C   0  0  0  0  0  0  0  0  0  0  0  0
    8.9946   10.3665   24.0355 C   0  0  0  0  0  0  0  0  0  0  0  0
    8.3047   14.3067   23.4960 S   0  0  0  0  0  0  0  0  0  0  0  0
    7.7023   15.4481   24.1488 O   0  0  0  0  0  0  0  0  0  0  0  0
    7.5844   13.4931   22.5360 O   0  0  0  0  0  0  0  0  0  0  0  0
    9.7277   14.8549   22.7175 N   0  0  0  0  0  0  0  0  0  0  0  0
   10.5074   15.8745   23.4652 C   0  0  0  0  0  0  0  0  0  0  0  0
   11.9110   15.9422   22.8768 C   0  0  0  0  0  0  0  0  0  0  0  0
   11.8619   16.2791   21.3885 C   0  0  0  0  0  0  0  0  0  0  0  0
   10.9571   15.2837   20.6526 C   0  0  0  0  0  0  0  0  0  0  0  0
    9.5665   15.2581   21.2906 C   0  0  0  0  0  0  0  0  0  0  0  0
   10.8092   15.6352   19.1687 C   0  0  0  0  0  0  0  0  0  0  0  0
   11.2580   14.5429   18.3428 N   0  0  0  0  0  0  0  0  0  0  0  0
   10.3784   16.7106   18.8712 O   0  0  0  0  0  0  0  0  0  0  0  0
   11.5881   13.7142   18.7593 H   0  0  0  0  0  0  0  0  0  0  0  0
   11.2345   14.6255   17.3621 H   0  0  0  0  0  0  0  0  0  0  0  0
 13 14  2  0  0  0
 14  2  1  0  0  0
  2  3  2  0  0  0
  3  4  1  0  0  0
  4  5  2  0  0  0
  5  6  1  0  0  0
  6  7  2  0  0  0
  7  1  1  0  0  0
  1 15  1  0  0  0
 15 16  2  0  0  0
 15 17  2  0  0  0
 15 18  1  0  0  0
 18 19  1  0  0  0
 19 20  1  0  0  0
 20 21  1  0  0  0
 21 22  1  0  0  0
 22 24  1  0  0  0
 24 25  1  0  0  0
 24 26  2  0  0  0
 22 23  1  0  0  0
  5  8  1  0  0  0
  8  9  1  0  0  0
  9 10  1  0  0  0
 10 11  1  0  0  0
 11 12  1  0  0  0
  7  2  1  0  0  0
 23 18  1  0  0  0
 12  4  1  0  0  0
 25 27  1  0  0  0
 25 28  1  0  0  0
M  END
> <minimizedAffinity>
-9.02392

> <minimizedRMSD>
0.61538

$$$$
P119597


 11 10  0  0  0  0  0  0  0  0999 V2000
    9.6181   14.6202   22.4654 C   0  0  0  0  0  0  0  0  0  0  0  0
    9.4415   15.1189   21.0456 C   0  0  0  0  0  0  0  0  0  0  0  0
   11.2564   14.9683   23.1066 S   0  0  0  0  0  0  0  0  0  0  0  0
   12.0498   15.9387   21.8424 C   0  0  0  0  0  0  0  0  0  0  0  0
   11.0281   15.7684   24.2978 O   0  0  0  0  0  0  0  0  0  0  0  0
   12.0061   13.7363   23.2348 O   0  0  0  0  0  0  0  0  0  0  0  0
    9.3613   13.1210   22.6703 C   0  0  0  0  0  0  0  0  0  0  0  0
    8.3349   12.7946   23.7445 C   0  0  0  0  0  0  0  0  0  0  0  0
    8.4825   11.3636   24.2506 C   0  0  0  0  0  0  0  0  0  0  0  0
    6.5294   12.4104   25.9527 C   0  0  0  0  0  0  0  0  0  0  0  0
    7.1999   10.8204   25.4206 S   0  0  0  0  0  0  0  0  0  0  0  0
 10 11  1  0  0  0
 11  9  1  0  0  0
  9  8  1  0  0  0
  8  7  1  0  0  0
  7  1  1  0  0  0
  1  2  1  0  0  0
  1  3  1  0  0  0
  3  4  1  0  0  0
  3  5  2  0  0  0
  3  6  2  0  0  0
M  END
> <minimizedAffinity>
-4.01613

> <minimizedRMSD>
1.27787

$$$$
P119965


 14 13  0  0  0  0  0  0  0  0999 V2000
    8.9988   15.4304   21.3994 C   0  0  0  0  0  0  0  0  0  0  0  0
    9.9361   15.1462   20.2281 C   0  0  0  0  0  0  0  0  0  0  0  0
   11.4221   15.3794   20.4717 C   0  0  0  0  0  0  0  0  0  0  0  0
   11.7127   16.4270   21.5511 C   0  0  0  0  0  0  0  0  0  0  0  0
   12.6305   15.8997   22.6458 C   0  0  0  0  0  0  0  0  0  0  0  0
   12.3816   14.3078   24.5555 C   0  0  0  0  0  0  0  0  0  0  0  0
   11.8962   15.6002   23.9392 C   0  0  0  0  0  0  0  0  0  0  0  0
    8.3419   14.1900   22.0270 C   0  0  0  0  0  0  0  0  0  0  0  0
    9.3325   13.2382   22.6902 C   0  0  0  0  0  0  0  0  0  0  0  0
    9.0116   12.8490   24.1405 C   0  0  0  0  0  0  0  0  0  0  0  0
    8.5221   11.4252   24.3696 C   0  0  0  0  0  0  0  0  0  0  0  0
    9.2849   10.3210   23.6608 C   0  0  0  0  0  0  0  0  0  0  0  0
    8.0573   13.8369   24.8565 C   0  0  0  0  0  0  0  0  0  0  0  0
    8.7293   14.9087   25.7061 C   0  0  0  0  0  0  0  0  0  0  0  0
  6  7  1  0  0  0
  7  5  1  0  0  0
  5  4  1  0  0  0
  4  3  1  0  0  0
  3  2  1  0  0  0
  2  1  1  0  0  0
  1  8  1  0  0  0
  8  9  1  0  0  0
  9 10  1  0  0  0
 10 11  1  0  0  0
 11 12  1  0  0  0
 10 13  1  0  0  0
 13 14  1  0  0  0
M  END
> <minimizedAffinity>
-4.35621

> <minimizedRMSD>
1.25623

$$$$
P119976


 11 12  0  0  0  0  0  0  0  0999 V2000
    5.7794   12.4697   26.7067 C   0  0  0  0  0  0  0  0  0  0  0  0
    6.9722   12.9726   25.9432 C   0  0  0  0  0  0  0  0  0  0  0  0
    7.2884   14.3393   26.0059 C   0  0  0  0  0  0  0  0  0  0  0  0
    8.3761   14.8508   25.3050 C   0  0  0  0  0  0  0  0  0  0  0  0
    9.1648   14.0030   24.5335 C   0  0  0  0  0  0  0  0  0  0  0  0
    8.8754   12.6343   24.4539 C   0  0  0  0  0  0  0  0  0  0  0  0
    9.6708   11.7919   23.6673 C   0  0  0  0  0  0  0  0  0  0  0  0
    9.3887   10.4313   23.5676 C   0  0  0  0  0  0  0  0  0  0  0  0
    8.3189    9.8937   24.2627 C   0  0  0  0  0  0  0  0  0  0  0  0
    7.5166   10.7167   25.0502 C   0  0  0  0  0  0  0  0  0  0  0  0
    7.7702   12.1000   25.1618 C   0  0  0  0  0  0  0  0  0  0  0  0
  1  2  1  0  0  0
  2  3  2  0  0  0
  3  4  1  0  0  0
  4  5  2  0  0  0
  5  6  1  0  0  0
  6  7  2  0  0  0
  7  8  1  0  0  0
  8  9  2  0  0  0
  9 10  1  0  0  0
 10 11  2  0  0  0
 11  2  1  0  0  0
 11  6  1  0  0  0
M  END
> <minimizedAffinity>
-4.20240

> <minimizedRMSD>
0.36423

$$$$
P119993


 27 30  0  0  0  0  0  0  0  0999 V2000
    9.2659    9.8898   23.3575 C   0  0  0  0  0  0  0  0  0  0  0  0
    8.9359   10.9523   24.4009 C   0  0  0  0  0  0  0  0  0  0  0  0
    7.6482   10.7137   25.1591 C   0  0  0  0  0  0  0  0  0  0  0  0
    6.7191   11.8748   25.4047 C   0  0  0  0  0  0  0  0  0  0  0  0
    5.7716   11.5517   26.5712 C   0  0  0  0  0  0  0  0  0  0  0  0
    5.2468   12.7488   27.3445 C   0  0  0  0  0  0  0  0  0  0  0  0
    5.0884   13.9928   26.4988 C   0  0  0  0  0  0  0  0  0  0  0  0
    6.3348   14.3359   25.6723 C   0  0  0  0  0  0  0  0  0  0  0  0
    7.0140   15.6239   26.1474 C   0  0  0  0  0  0  0  0  0  0  0  0
    8.1641   15.9998   25.2156 C   0  0  0  0  0  0  0  0  0  0  0  0
    9.1270   14.8244   24.9844 C   0  0  0  0  0  0  0  0  0  0  0  0
    8.3955   13.5375   24.5036 C   0  0  0  0  0  0  0  0  0  0  0  0
    9.3612   12.3982   24.1140 C   0  0  0  0  0  0  0  0  0  0  0  0
    7.3861   13.2016   25.6031 C   0  0  0  0  0  0  0  0  0  0  0  0
   10.2486   15.1994   24.1417 N   0  0  0  0  0  0  0  0  0  0  0  0
    9.9683   15.6408   22.7810 C   0  0  0  0  0  0  0  0  0  0  0  0
   11.1602   15.3784   21.8912 C   0  0  0  0  0  0  0  0  0  0  0  0
   12.3352   16.1657   22.4444 C   0  0  0  0  0  0  0  0  0  0  0  0
   12.6525   15.6090   23.8132 C   0  0  0  0  0  0  0  0  0  0  0  0
   11.4743   15.4540   24.7419 C   0  0  0  0  0  0  0  0  0  0  0  0
   11.6631   15.3982   25.9577 O   0  0  0  0  0  0  0  0  0  0  0  0
   10.8220   15.7467   20.4705 C   0  0  0  0  0  0  0  0  0  0  0  0
   10.1976   16.6777   20.1769 O   0  0  0  0  0  0  0  0  0  0  0  0
   11.4262   14.6485   19.6040 N   0  0  0  0  0  0  0  0  0  0  0  0
   11.3191   14.4168   18.2625 O   0  0  0  0  0  0  0  0  0  0  0  0
   11.9849   14.0002   20.0907 H   0  0  0  0  0  0  0  0  0  0  0  0
   10.7554   15.0964   17.8609 H   0  0  0  0  0  0  0  0  0  0  0  0
  2  1  1  0  0  0
  2  3  1  0  0  0
  4  3  1  0  0  0
  4  5  1  0  0  0
  5  6  1  0  0  0
  6  7  1  0  0  0
  8  7  1  0  0  0
  8  9  1  0  0  0
  9 10  1  0  0  0
 10 11  1  0  0  0
 11 15  1  0  0  0
 15 16  1  0  0  0
 16 17  1  0  0  0
 17 22  1  0  0  0
 22 23  2  0  0  0
 22 24  1  0  0  0
 24 25  1  0  0  0
 17 18  1  0  0  0
 18 19  1  0  0  0
 19 20  1  0  0  0
 20 21  2  0  0  0
 11 12  1  0  0  0
 12 13  1  0  0  0
 12 14  1  0  0  0
 13  2  1  0  0  0
 14  4  1  0  0  0
 14  8  1  0  0  0
 20 15  1  0  0  0
 24 26  1  0  0  0
 25 27  1  0  0  0
M  END
> <minimizedAffinity>
-8.69350

> <minimizedRMSD>
0.81240

$$$$
P120019


 14 15  0  0  0  0  0  0  0  0999 V2000
    8.7726   11.4034   24.2263 C   0  0  0  0  0  0  0  0  0  0  0  0
    7.6530   11.0014   24.9881 C   0  0  0  0  0  0  0  0  0  0  0  0
    6.9172   11.8887   25.7727 C   0  0  0  0  0  0  0  0  0  0  0  0
    7.3067   13.2075   25.7897 C   0  0  0  0  0  0  0  0  0  0  0  0
    8.3945   13.6518   25.0249 C   0  0  0  0  0  0  0  0  0  0  0  0
    9.1396   12.7742   24.2248 C   0  0  0  0  0  0  0  0  0  0  0  0
    8.5830   15.1234   25.2349 C   0  0  0  0  0  0  0  0  0  0  0  0
    7.2251   15.5395   25.8151 C   0  0  0  0  0  0  0  0  0  0  0  0
    6.6904   14.3231   26.5719 C   0  0  0  0  0  0  0  0  0  0  0  0
    9.3106    9.0731   23.4039 C   0  0  0  0  0  0  0  0  0  0  0  0
    9.5267   10.3948   23.4477 C   0  0  0  0  0  0  0  0  0  0  0  0
   10.2668   13.3108   23.3681 C   0  0  0  0  0  0  0  0  0  0  0  0
   11.5982   13.4682   24.1055 C   0  0  0  0  0  0  0  0  0  0  0  0
   12.1264   14.8898   24.0838 C   0  0  0  0  0  0  0  0  0  0  0  0
 10 11  2  0  0  0
 11  1  1  0  0  0
  1  2  2  0  0  0
  2  3  1  0  0  0
  3  4  2  0  0  0
  4  5  1  0  0  0
  5  6  2  0  0  0
  6 12  1  0  0  0
 12 13  1  0  0  0
 13 14  1  0  0  0
  5  7  1  0  0  0
  7  8  1  0  0  0
  8  9  1  0  0  0
  6  1  1  0  0  0
  9  4  1  0  0  0
M  END
> <minimizedAffinity>
-4.64769

> <minimizedRMSD>
1.60553

$$$$
P120496


 17 18  0  0  0  0  0  0  0  0999 V2000
    4.2184   14.4516   25.5108 C   0  0  0  0  0  0  0  0  0  0  0  0
    4.3499   13.3188   26.3161 C   0  0  0  0  0  0  0  0  0  0  0  0
    5.5677   12.6583   26.3923 C   0  0  0  0  0  0  0  0  0  0  0  0
    6.6580   13.1352   25.6704 C   0  0  0  0  0  0  0  0  0  0  0  0
    6.5536   14.2462   24.8345 C   0  0  0  0  0  0  0  0  0  0  0  0
    5.3215   14.9109   24.7769 C   0  0  0  0  0  0  0  0  0  0  0  0
    7.7207   14.7080   23.9854 C   0  0  0  0  0  0  0  0  0  0  0  0
    9.0372   13.9606   24.2929 C   0  0  0  0  0  0  0  0  0  0  0  0
    9.8779   14.7654   25.2856 C   0  0  0  0  0  0  0  0  0  0  0  0
    8.6730   12.5317   24.7309 C   0  0  0  0  0  0  0  0  0  0  0  0
    7.8396   12.4953   25.8789 O   0  0  0  0  0  0  0  0  0  0  0  0
    1.9500   14.7231   23.9376 C   0  0  0  0  0  0  0  0  0  0  0  0
    2.6392   15.2756   25.5153 S   0  0  0  0  0  0  0  0  0  0  0  0
    7.4354   14.5064   22.5073 C   0  0  0  0  0  0  0  0  0  0  0  0
    6.7208   13.6047   22.0739 O   0  0  0  0  0  0  0  0  0  0  0  0
   10.1144   11.5098   25.0693 S   0  0  0  0  0  0  0  0  0  0  0  0
    9.5195    9.9939   24.3461 C   0  0  0  0  0  0  0  0  0  0  0  0
 12 13  1  0  0  0
 13  1  1  0  0  0
  1  2  2  0  0  0
  2  3  1  0  0  0
  3  4  2  0  0  0
  4  5  1  0  0  0
  5  6  2  0  0  0
  5  7  1  0  0  0
  7 14  1  0  0  0
 14 15  2  0  0  0
  7  8  1  0  0  0
  8  9  1  0  0  0
  8 10  1  0  0  0
 10 16  1  0  0  0
 16 17  1  0  0  0
 10 11  1  0  0  0
  6  1  1  0  0  0
 11  4  1  0  0  0
M  END
> <minimizedAffinity>
-4.00472

> <minimizedRMSD>
1.61902

$$$$
P121001


 39 42  0  0  0  0  0  0  0  0999 V2000
    8.2295   14.1281   23.5868 C   0  0  0  0  0  0  0  0  0  0  0  0
    7.3869   15.2216   23.8466 O   0  0  0  0  0  0  0  0  0  0  0  0
    7.5491   13.2990   22.6795 O   0  0  0  0  0  0  0  0  0  0  0  0
    7.6629   15.8962   24.4354 H   0  0  0  0  0  0  0  0  0  0  0  0
    7.9489   12.5070   22.3780 H   0  0  0  0  0  0  0  0  0  0  0  0
    9.4724   14.5392   22.9613 N   0  0  0  0  0  0  0  0  0  0  0  0
   10.2698   15.3855   23.8429 C   0  0  0  0  0  0  0  0  0  0  0  0
   11.6282   15.6268   23.2286 C   0  0  0  0  0  0  0  0  0  0  0  0
   11.5337   16.3047   21.8645 C   0  0  0  0  0  0  0  0  0  0  0  0
   12.8590   16.3543   21.3138 O   0  0  0  0  0  0  0  0  0  0  0  0
   10.5737   15.5502   20.9261 C   0  0  0  0  0  0  0  0  0  0  0  0
   10.2589   16.3198   19.6336 C   0  0  0  0  0  0  0  0  0  0  0  0
   10.6808   15.4212   18.5718 N   0  0  0  0  0  0  0  0  0  0  0  0
   11.7413   14.6928   19.1274 N   0  0  0  0  0  0  0  0  0  0  0  0
   11.3076   14.3406   20.4509 N   0  0  0  0  0  0  0  0  0  0  0  0
    9.2553   15.2390   21.6778 C   0  0  0  0  0  0  0  0  0  0  0  0
   13.2046   15.4527   21.2213 H   0  0  0  0  0  0  0  0  0  0  0  0
   10.9939   15.9485   17.7567 H   0  0  0  0  0  0  0  0  0  0  0  0
   12.5848   15.2648   19.1683 H   0  0  0  0  0  0  0  0  0  0  0  0
   12.1066   14.1419   21.0531 H   0  0  0  0  0  0  0  0  0  0  0  0
    8.5189   13.3505   24.9040 C   0  0  0  0  0  0  0  0  0  0  0  0
    7.8430   10.8760   24.8110 C   0  0  0  0  0  0  0  0  0  0  0  0
    6.9163    9.8987   25.1717 C   0  0  0  0  0  0  0  0  0  0  0  0
    5.6935   10.2168   25.7838 C   0  0  0  0  0  0  0  0  0  0  0  0
    5.3943   11.5424   26.0898 C   0  0  0  0  0  0  0  0  0  0  0  0
    6.3491   12.5243   25.8072 C   0  0  0  0  0  0  0  0  0  0  0  0
    7.5674   12.2072   25.1851 C   0  0  0  0  0  0  0  0  0  0  0  0
    4.0818   12.0230   26.6325 C   0  0  0  0  0  0  0  0  0  0  0  0
    3.7459   13.0950   26.3145 O   0  0  0  0  0  0  0  0  0  0  0  0
    3.4003   10.9951   27.5622 N   0  0  0  0  0  0  0  0  0  0  0  0
    3.9273   10.1815   27.7337 H   0  0  0  0  0  0  0  0  0  0  0  0
    2.1645   11.0318   28.1959 C   0  0  0  0  0  0  0  0  0  0  0  0
    1.8507   10.0663   29.1410 C   0  0  0  0  0  0  0  0  0  0  0  0
    0.6104   10.1433   29.7508 C   0  0  0  0  0  0  0  0  0  0  0  0
   -0.3111   11.0946   29.4738 N   0  0  0  0  0  0  0  0  0  0  0  0
    0.0324   12.0222   28.5568 C   0  0  0  0  0  0  0  0  0  0  0  0
    1.2447   12.0312   27.8947 C   0  0  0  0  0  0  0  0  0  0  0  0
    9.2344    8.7502   23.4606 C   0  0  0  0  0  0  0  0  0  0  0  0
    9.3144   10.5127   23.8402 S   0  0  0  0  0  0  0  0  0  0  0  0
 38 39  1  0  0  0
 39 22  1  0  0  0
 22 23  2  0  0  0
 23 24  1  0  0  0
 24 25  2  0  0  0
 25 28  1  0  0  0
 28 29  2  0  0  0
 28 30  1  0  0  0
 30 32  1  0  0  0
 32 33  2  0  0  0
 33 34  1  0  0  0
 34 35  2  0  0  0
 35 36  1  0  0  0
 36 37  2  0  0  0
 25 26  1  0  0  0
 26 27  2  0  0  0
 27 21  1  0  0  0
 21  1  1  0  0  0
  1  2  1  0  0  0
  1  3  1  0  0  0
  1  6  1  0  0  0
  6  7  1  0  0  0
  7  8  1  0  0  0
  8  9  1  0  0  0
  9 10  1  0  0  0
  9 11  1  0  0  0
 11 12  1  0  0  0
 12 13  1  0  0  0
 13 14  1  0  0  0
 14 15  1  0  0  0
 11 16  1  0  0  0
 27 22  1  0  0  0
 16  6  1  0  0  0
 37 32  1  0  0  0
 15 11  1  0  0  0
 30 31  1  0  0  0
  2  4  1  0  0  0
  3  5  1  0  0  0
 10 17  1  0  0  0
 13 18  1  0  0  0
 14 19  1  0  0  0
 15 20  1  0  0  0
M  END
> <minimizedAffinity>
-8.91348

> <minimizedRMSD>
0.37617

$$$$
P121264


 35 38  0  0  0  0  0  0  0  0999 V2000
    7.9924   14.0927   23.4166 C   0  0  0  0  0  0  0  0  0  0  0  0
    7.0328   15.1093   23.5949 O   0  0  0  0  0  0  0  0  0  0  0  0
    7.3590   13.1815   22.5471 O   0  0  0  0  0  0  0  0  0  0  0  0
    7.2247   15.8436   24.1443 H   0  0  0  0  0  0  0  0  0  0  0  0
    7.8069   12.4047   22.2752 H   0  0  0  0  0  0  0  0  0  0  0  0
    9.2313   14.5864   22.8360 N   0  0  0  0  0  0  0  0  0  0  0  0
    9.9971   15.4308   23.7476 C   0  0  0  0  0  0  0  0  0  0  0  0
   11.3901   15.6505   23.1991 C   0  0  0  0  0  0  0  0  0  0  0  0
   11.3405   16.3728   21.8603 C   0  0  0  0  0  0  0  0  0  0  0  0
   12.6834   16.5561   21.4141 O   0  0  0  0  0  0  0  0  0  0  0  0
   10.4780   15.5905   20.8524 C   0  0  0  0  0  0  0  0  0  0  0  0
   10.2136   16.3614   19.5556 C   0  0  0  0  0  0  0  0  0  0  0  0
   11.2355   15.9070   18.6274 N   0  0  0  0  0  0  0  0  0  0  0  0
   11.4317   14.5597   18.9836 N   0  0  0  0  0  0  0  0  0  0  0  0
   11.3095   14.4508   20.4119 N   0  0  0  0  0  0  0  0  0  0  0  0
    9.1168   15.2116   21.5095 C   0  0  0  0  0  0  0  0  0  0  0  0
   13.1141   15.6920   21.3214 H   0  0  0  0  0  0  0  0  0  0  0  0
   12.0958   16.4429   18.7422 H   0  0  0  0  0  0  0  0  0  0  0  0
   12.3614   14.2573   18.6925 H   0  0  0  0  0  0  0  0  0  0  0  0
   12.2301   14.4973   20.8485 H   0  0  0  0  0  0  0  0  0  0  0  0
    8.2561   13.4529   24.8159 C   0  0  0  0  0  0  0  0  0  0  0  0
    7.8708   10.9324   24.8927 C   0  0  0  0  0  0  0  0  0  0  0  0
    7.0213    9.8850   25.2308 C   0  0  0  0  0  0  0  0  0  0  0  0
    5.7498   10.1001   25.7817 C   0  0  0  0  0  0  0  0  0  0  0  0
    5.2889   11.3893   26.0332 C   0  0  0  0  0  0  0  0  0  0  0  0
    6.1377   12.4515   25.7049 C   0  0  0  0  0  0  0  0  0  0  0  0
    7.4183   12.2381   25.1496 C   0  0  0  0  0  0  0  0  0  0  0  0
    3.9685   11.6402   26.6143 C   0  0  0  0  0  0  0  0  0  0  0  0
    3.1810   12.7791   26.6242 C   0  0  0  0  0  0  0  0  0  0  0  0
    2.0120   12.4285   27.3166 C   0  0  0  0  0  0  0  0  0  0  0  0
    2.0284   11.1611   27.7215 N   0  0  0  0  0  0  0  0  0  0  0  0
    3.2178   10.7006   27.2890 N   0  0  0  0  0  0  0  0  0  0  0  0
    3.5235    9.7771   27.4407 H   0  0  0  0  0  0  0  0  0  0  0  0
    9.4366    8.9388   23.5946 C   0  0  0  0  0  0  0  0  0  0  0  0
    9.4939   10.6495   24.1821 S   0  0  0  0  0  0  0  0  0  0  0  0
 34 35  1  0  0  0
 35 22  1  0  0  0
 22 23  2  0  0  0
 23 24  1  0  0  0
 24 25  2  0  0  0
 25 28  1  0  0  0
 28 29  2  0  0  0
 29 30  1  0  0  0
 30 31  2  0  0  0
 31 32  1  0  0  0
 25 26  1  0  0  0
 26 27  2  0  0  0
 27 21  1  0  0  0
 21  1  1  0  0  0
  1  2  1  0  0  0
  1  3  1  0  0  0
  1  6  1  0  0  0
  6  7  1  0  0  0
  7  8  1  0  0  0
  8  9  1  0  0  0
  9 10  1  0  0  0
  9 11  1  0  0  0
 11 12  1  0  0  0
 12 13  1  0  0  0
 13 14  1  0  0  0
 14 15  1  0  0  0
 11 16  1  0  0  0
 27 22  1  0  0  0
 16  6  1  0  0  0
 32 28  1  0  0  0
 15 11  1  0  0  0
 32 33  1  0  0  0
  2  4  1  0  0  0
  3  5  1  0  0  0
 10 17  1  0  0  0
 13 18  1  0  0  0
 14 19  1  0  0  0
 15 20  1  0  0  0
M  END
> <minimizedAffinity>
-8.69725

> <minimizedRMSD>
0.20802

$$$$
P122480


 35 37  0  0  0  0  0  0  0  0999 V2000
    8.3108   11.1448   25.0885 C   0  0  0  0  0  0  0  0  0  0  0  0
    7.6445   10.1234   25.7311 C   0  0  0  0  0  0  0  0  0  0  0  0
    6.5805   10.4307   26.5728 C   0  0  0  0  0  0  0  0  0  0  0  0
    6.1972   11.7606   26.8346 C   0  0  0  0  0  0  0  0  0  0  0  0
    6.9026   12.8166   26.1867 C   0  0  0  0  0  0  0  0  0  0  0  0
    7.8994   12.4913   25.2490 C   0  0  0  0  0  0  0  0  0  0  0  0
    8.5294   13.3656   24.3629 N   0  0  0  0  0  0  0  0  0  0  0  0
    7.9853   14.3414   23.4482 C   0  0  0  0  0  0  0  0  0  0  0  0
    6.8787   14.6999   23.2778 O   0  0  0  0  0  0  0  0  0  0  0  0
    9.2014   14.6733   22.7385 N   0  0  0  0  0  0  0  0  0  0  0  0
    9.8699   15.8769   23.3852 C   0  0  0  0  0  0  0  0  0  0  0  0
   11.3992   15.8243   23.2787 C   0  0  0  0  0  0  0  0  0  0  0  0
   11.8065   16.0121   21.8345 C   0  0  0  0  0  0  0  0  0  0  0  0
   10.8439   15.1813   21.0017 C   0  0  0  0  0  0  0  0  0  0  0  0
    9.4187   15.4964   21.4819 C   0  0  0  0  0  0  0  0  0  0  0  0
    9.5121   13.3073   24.3609 H   0  0  0  0  0  0  0  0  0  0  0  0
   11.1284   15.3911   19.5235 C   0  0  0  0  0  0  0  0  0  0  0  0
   12.1732   14.4755   19.0919 N   0  0  0  0  0  0  0  0  0  0  0  0
   10.5676   16.2678   18.9325 O   0  0  0  0  0  0  0  0  0  0  0  0
   12.5279   13.8032   19.7175 H   0  0  0  0  0  0  0  0  0  0  0  0
   12.5256   14.5281   18.1741 H   0  0  0  0  0  0  0  0  0  0  0  0
    5.1657   12.0371   27.7435 N   0  0  0  0  0  0  0  0  0  0  0  0
    3.8043   11.9932   27.1518 C   0  0  0  0  0  0  0  0  0  0  0  0
    2.8060   12.6460   28.1196 C   0  0  0  0  0  0  0  0  0  0  0  0
    2.8205   11.9782   29.3954 O   0  0  0  0  0  0  0  0  0  0  0  0
    4.1315   12.0639   29.9800 C   0  0  0  0  0  0  0  0  0  0  0  0
    5.1871   11.3999   29.0798 C   0  0  0  0  0  0  0  0  0  0  0  0
    9.7385    9.1344   23.4090 C   0  0  0  0  0  0  0  0  0  0  0  0
    9.5769   10.7861   23.9190 S   0  0  0  0  0  0  0  0  0  0  0  0
    9.2917   11.6886   22.6684 F   0  0  0  0  0  0  0  0  0  0  0  0
   10.9592   11.3678   24.4292 F   0  0  0  0  0  0  0  0  0  0  0  0
    6.6956   14.2474   26.6403 C   0  0  0  0  0  0  0  0  0  0  0  0
    7.7899   15.0491   26.4514 F   0  0  0  0  0  0  0  0  0  0  0  0
    6.4811   14.3505   27.9926 F   0  0  0  0  0  0  0  0  0  0  0  0
    5.6365   14.8772   26.0680 F   0  0  0  0  0  0  0  0  0  0  0  0
 28 29  1  0  0  0
 29 30  1  0  0  0
 29 31  1  0  0  0
 29  1  1  0  0  0
  1  2  2  0  0  0
  2  3  1  0  0  0
  3  4  2  0  0  0
  4 22  1  0  0  0
 22 23  1  0  0  0
 23 24  1  0  0  0
 24 25  1  0  0  0
 25 26  1  0  0  0
 26 27  1  0  0  0
  4  5  1  0  0  0
  5 32  1  0  0  0
 32 33  1  0  0  0
 32 34  1  0  0  0
 32 35  1  0  0  0
  5  6  2  0  0  0
  6  7  1  0  0  0
  7  8  1  0  0  0
  8  9  2  0  0  0
  8 10  1  0  0  0
 10 11  1  0  0  0
 11 12  1  0  0  0
 12 13  1  0  0  0
 13 14  1  0  0  0
 14 17  1  0  0  0
 17 18  1  0  0  0
 17 19  2  0  0  0
 14 15  1  0  0  0
  6  1  1  0  0  0
 15 10  1  0  0  0
 27 22  1  0  0  0
  7 16  1  0  0  0
 18 20  1  0  0  0
 18 21  1  0  0  0
M  END
> <minimizedAffinity>
-7.75922

> <minimizedRMSD>
0.54536

$$$$
P122607


 31 34  0  0  0  0  0  0  0  0999 V2000
    8.5810   14.4495   23.0674 C   0  0  0  0  0  0  0  0  0  0  0  0
    8.9448   13.5908   22.0394 O   0  0  0  0  0  0  0  0  0  0  0  0
    7.1859   14.6539   22.9849 O   0  0  0  0  0  0  0  0  0  0  0  0
    8.7665   13.8234   21.1494 H   0  0  0  0  0  0  0  0  0  0  0  0
    6.8090   15.0022   22.2009 H   0  0  0  0  0  0  0  0  0  0  0  0
    9.2246   15.7324   22.8866 N   0  0  0  0  0  0  0  0  0  0  0  0
   10.5079   15.8836   23.5724 C   0  0  0  0  0  0  0  0  0  0  0  0
   11.7493   15.5033   22.7573 C   0  0  0  0  0  0  0  0  0  0  0  0
   11.8187   14.0949   22.6242 O   0  0  0  0  0  0  0  0  0  0  0  0
   11.8115   16.1922   21.3971 C   0  0  0  0  0  0  0  0  0  0  0  0
   10.5071   16.0054   20.6169 C   0  0  0  0  0  0  0  0  0  0  0  0
   10.4926   14.6741   19.8943 C   0  0  0  0  0  0  0  0  0  0  0  0
   11.1053   14.9205   18.5898 N   0  0  0  0  0  0  0  0  0  0  0  0
   10.8263   16.2743   18.3116 N   0  0  0  0  0  0  0  0  0  0  0  0
   10.4052   16.9268   19.4838 N   0  0  0  0  0  0  0  0  0  0  0  0
    9.2657   16.2685   21.5162 C   0  0  0  0  0  0  0  0  0  0  0  0
   11.0430   13.7777   22.1357 H   0  0  0  0  0  0  0  0  0  0  0  0
   10.6938   14.3153   17.8793 H   0  0  0  0  0  0  0  0  0  0  0  0
   10.0884   16.3303   17.6097 H   0  0  0  0  0  0  0  0  0  0  0  0
    9.4366   17.2281   19.3763 H   0  0  0  0  0  0  0  0  0  0  0  0
    8.9393   13.9130   24.3468 O   0  0  0  0  0  0  0  0  0  0  0  0
    6.9539   14.5975   26.2213 C   0  0  0  0  0  0  0  0  0  0  0  0
    7.2059   13.1815   25.7885 C   0  0  0  0  0  0  0  0  0  0  0  0
    6.4346   12.1366   26.3245 C   0  0  0  0  0  0  0  0  0  0  0  0
    6.6323   10.8167   25.9148 C   0  0  0  0  0  0  0  0  0  0  0  0
    7.6137   10.5468   24.9785 C   0  0  0  0  0  0  0  0  0  0  0  0
    8.3733   11.5740   24.4308 C   0  0  0  0  0  0  0  0  0  0  0  0
    8.1665   12.8913   24.8072 C   0  0  0  0  0  0  0  0  0  0  0  0
    9.3550   11.0140   23.4550 C   0  0  0  0  0  0  0  0  0  0  0  0
    9.3662    9.5292   23.7645 C   0  0  0  0  0  0  0  0  0  0  0  0
    8.0010    9.2410   24.3650 C   0  0  0  0  0  0  0  0  0  0  0  0
 22 23  1  0  0  0
 23 24  2  0  0  0
 24 25  1  0  0  0
 25 26  2  0  0  0
 26 27  1  0  0  0
 27 28  2  0  0  0
 28 21  1  0  0  0
 21  1  1  0  0  0
  1  2  1  0  0  0
  1  3  1  0  0  0
  1  6  1  0  0  0
  6  7  1  0  0  0
  7  8  1  0  0  0
  8  9  1  0  0  0
  8 10  1  0  0  0
 11 10  1  0  0  0
 11 12  1  0  0  0
 12 13  1  0  0  0
 13 14  1  0  0  0
 14 15  1  0  0  0
 11 16  1  0  0  0
 27 29  1  0  0  0
 29 30  1  0  0  0
 30 31  1  0  0  0
 28 23  1  0  0  0
 16  6  1  0  0  0
 31 26  1  0  0  0
 15 11  1  0  0  0
  2  4  1  0  0  0
  3  5  1  0  0  0
  9 17  1  0  0  0
 13 18  1  0  0  0
 14 19  1  0  0  0
 15 20  1  0  0  0
M  END
> <minimizedAffinity>
-9.28690

> <minimizedRMSD>
0.67177

$$$$
P122831


 30 32  0  0  0  0  0  0  0  0999 V2000
    4.9274    9.8794   26.2685 C   0  0  0  0  0  0  0  0  0  0  0  0
    5.9051   10.9925   26.0391 C   0  0  0  0  0  0  0  0  0  0  0  0
    7.0797   10.6644   25.3284 C   0  0  0  0  0  0  0  0  0  0  0  0
    8.0200   11.6322   24.9765 C   0  0  0  0  0  0  0  0  0  0  0  0
    7.8307   12.9696   25.3395 C   0  0  0  0  0  0  0  0  0  0  0  0
    6.6381   13.2951   26.0270 C   0  0  0  0  0  0  0  0  0  0  0  0
    5.6994   12.3245   26.4297 C   0  0  0  0  0  0  0  0  0  0  0  0
    4.5888   12.7653   27.2198 N   0  0  0  0  0  0  0  0  0  0  0  0
    4.4717   12.8563   28.5940 C   0  0  0  0  0  0  0  0  0  0  0  0
    3.1893   13.2574   28.8798 C   0  0  0  0  0  0  0  0  0  0  0  0
    2.6175   13.4913   27.6260 C   0  0  0  0  0  0  0  0  0  0  0  0
    3.4617   13.2464   26.6252 N   0  0  0  0  0  0  0  0  0  0  0  0
    9.4659   11.1356   24.1231 S   0  0  0  0  0  0  0  0  0  0  0  0
    9.4850    9.4131   23.8109 C   0  0  0  0  0  0  0  0  0  0  0  0
    9.4968   11.8674   22.7187 F   0  0  0  0  0  0  0  0  0  0  0  0
    8.8514   14.0759   25.0539 C   0  0  0  0  0  0  0  0  0  0  0  0
    9.0959   14.9417   26.3043 C   0  0  0  0  0  0  0  0  0  0  0  0
    8.4283   14.9580   23.8445 C   0  0  0  0  0  0  0  0  0  0  0  0
    7.3600   15.5101   23.8515 O   0  0  0  0  0  0  0  0  0  0  0  0
    9.4763   14.9667   22.8616 N   0  0  0  0  0  0  0  0  0  0  0  0
   10.4528   16.0811   23.1526 C   0  0  0  0  0  0  0  0  0  0  0  0
   11.8844   15.5988   22.8436 C   0  0  0  0  0  0  0  0  0  0  0  0
   11.9759   15.1249   21.4018 C   0  0  0  0  0  0  0  0  0  0  0  0
   10.8420   15.8295   20.6910 C   0  0  0  0  0  0  0  0  0  0  0  0
    9.5261   15.5846   21.4627 C   0  0  0  0  0  0  0  0  0  0  0  0
   10.7796   15.6566   19.1654 C   0  0  0  0  0  0  0  0  0  0  0  0
   11.4894   14.5079   18.6824 N   0  0  0  0  0  0  0  0  0  0  0  0
   10.2181   16.5336   18.5721 O   0  0  0  0  0  0  0  0  0  0  0  0
   11.8972   13.8776   19.3193 H   0  0  0  0  0  0  0  0  0  0  0  0
   11.5688   14.3497   17.7140 H   0  0  0  0  0  0  0  0  0  0  0  0
  1  2  1  0  0  0
  2  3  2  0  0  0
  3  4  1  0  0  0
  4 13  1  0  0  0
 13 14  1  0  0  0
 13 15  1  0  0  0
  4  5  2  0  0  0
  5 16  1  0  0  0
 16 17  1  0  0  0
 16 18  1  0  0  0
 18 19  2  0  0  0
 18 20  1  0  0  0
 20 21  1  0  0  0
 21 22  1  0  0  0
 22 23  1  0  0  0
 23 24  1  0  0  0
 24 26  1  0  0  0
 26 27  1  0  0  0
 26 28  2  0  0  0
 24 25  1  0  0  0
  5  6  1  0  0  0
  6  7  2  0  0  0
  7  8  1  0  0  0
  8  9  1  0  0  0
  9 10  2  0  0  0
 10 11  1  0  0  0
 11 12  2  0  0  0
  7  2  1  0  0  0
 12  8  1  0  0  0
 25 20  1  0  0  0
 27 29  1  0  0  0
 27 30  1  0  0  0
M  END
> <minimizedAffinity>
-8.10860

> <minimizedRMSD>
0.81008

$$$$
C45982-P611


 23 26  0  0  0  0  0  0  0  0999 V2000
    7.9207   13.7478   22.7102 O   0  0  0  0  0  0  0  0  0  0  0  0
    8.0579   14.2568   24.0592 S   0  0  0  0  0  0  0  0  0  0  0  0
    6.8964   14.8247   24.7208 O   0  0  0  0  0  0  0  0  0  0  0  0
    8.6503   12.9667   25.0137 N   0  0  0  0  0  0  0  0  0  0  0  0
    9.4931   11.9691   24.2535 C   0  0  0  0  0  0  0  0  0  0  0  0
    8.7416   10.6326   24.2387 C   0  0  0  0  0  0  0  0  0  0  0  0
    7.6507   10.8783   25.2185 C   0  0  0  0  0  0  0  0  0  0  0  0
    6.7066    9.9800   25.6684 C   0  0  0  0  0  0  0  0  0  0  0  0
    5.7284   10.4197   26.5629 C   0  0  0  0  0  0  0  0  0  0  0  0
    5.7133   11.7457   27.0059 C   0  0  0  0  0  0  0  0  0  0  0  0
    6.6709   12.6455   26.5453 C   0  0  0  0  0  0  0  0  0  0  0  0
    7.6138   12.1987   25.6345 C   0  0  0  0  0  0  0  0  0  0  0  0
    9.3176   15.5344   24.2117 C   0  0  0  0  0  0  0  0  0  0  0  0
   10.5478   15.2666   25.0910 C   0  0  0  0  0  0  0  0  0  0  0  0
   11.7841   14.7535   24.3517 C   0  0  0  0  0  0  0  0  0  0  0  0
   12.0238   15.5093   23.0558 C   0  0  0  0  0  0  0  0  0  0  0  0
   10.8077   15.4311   22.2868 N   0  0  0  0  0  0  0  0  0  0  0  0
    9.6430   16.1054   22.8522 C   0  0  0  0  0  0  0  0  0  0  0  0
   10.8921   15.5507   20.9545 C   0  0  0  0  0  0  0  0  0  0  0  0
   10.0139   16.1252   20.1837 N   0  0  0  0  0  0  0  0  0  0  0  0
   10.5397   16.0039   18.9487 C   0  0  0  0  0  0  0  0  0  0  0  0
   11.7463   15.3752   19.0171 C   0  0  0  0  0  0  0  0  0  0  0  0
   11.9934   15.0815   20.3134 O   0  0  0  0  0  0  0  0  0  0  0  0
  1  2  2  0  0  0
  2  3  2  0  0  0
 13  2  1  0  0  0
 13 14  1  0  0  0
 14 15  1  0  0  0
 15 16  1  0  0  0
 16 17  1  0  0  0
 17 19  1  0  0  0
 19 20  2  0  0  0
 20 21  1  0  0  0
 21 22  2  0  0  0
 22 23  1  0  0  0
 17 18  1  0  0  0
  2  4  1  0  0  0
  4  5  1  0  0  0
  5  6  1  0  0  0
  6  7  1  0  0  0
  7  8  2  0  0  0
  8  9  1  0  0  0
  9 10  2  0  0  0
 10 11  1  0  0  0
 11 12  2  0  0  0
 18 13  1  0  0  0
 12  4  1  0  0  0
 23 19  1  0  0  0
 12  7  1  0  0  0
M  END
> <minimizedAffinity>
-7.52607

> <minimizedRMSD>
0.55347

$$$$
C33321-P170


 16 17  0  0  0  0  0  0  0  0999 V2000
    6.7554   10.9804   26.0869 O   0  0  0  0  0  0  0  0  0  0  0  0
    7.5471   11.1949   25.1755 C   0  0  0  0  0  0  0  0  0  0  0  0
    8.2735   10.0688   24.5084 C   0  0  0  0  0  0  0  0  0  0  0  0
    9.4496   10.4053   23.6324 C   0  0  0  0  0  0  0  0  0  0  0  0
    9.7438   11.8833   23.4321 C   0  0  0  0  0  0  0  0  0  0  0  0
    8.4946   12.7534   23.5160 C   0  0  0  0  0  0  0  0  0  0  0  0
    7.7853   12.4631   24.7477 N   0  0  0  0  0  0  0  0  0  0  0  0
    7.4634   13.2149   25.2959 H   0  0  0  0  0  0  0  0  0  0  0  0
    8.8485   14.2480   23.4086 C   0  0  0  0  0  0  0  0  0  0  0  0
    9.6074   14.4863   22.2314 O   0  0  0  0  0  0  0  0  0  0  0  0
   10.7982   15.0986   22.3771 C   0  0  0  0  0  0  0  0  0  0  0  0
   11.4386   15.8579   21.3821 C   0  0  0  0  0  0  0  0  0  0  0  0
   12.5956   16.3598   21.8115 N   0  0  0  0  0  0  0  0  0  0  0  0
   12.6637   15.9694   23.0889 N   0  0  0  0  0  0  0  0  0  0  0  0
   11.6178   15.1768   23.4786 C   0  0  0  0  0  0  0  0  0  0  0  0
   13.3973   16.2278   23.6924 H   0  0  0  0  0  0  0  0  0  0  0  0
  1  2  2  0  0  0
  2  3  1  0  0  0
  3  4  1  0  0  0
  4  5  1  0  0  0
  5  6  1  0  0  0
  6  9  1  0  0  0
  9 10  1  0  0  0
 10 11  1  0  0  0
 11 12  1  0  0  0
 12 13  2  0  0  0
 13 14  1  0  0  0
 14 15  1  0  0  0
  6  7  1  0  0  0
  7  2  1  0  0  0
 15 11  2  0  0  0
 14 16  1  0  0  0
  7  8  1  0  0  0
M  END
> <minimizedAffinity>
-5.61009

> <minimizedRMSD>
0.65235

$$$$
C47239-P100


 21 23  0  0  0  0  0  0  0  0999 V2000
   -1.6948    1.7193    3.3853 O   0  0  0  0  0  0  0  0  0  0  0  0
   -1.9658    2.7515    3.9707 C   0  0  0  0  0  0  0  0  0  0  0  0
   -1.0507    3.4974    4.6964 N   0  0  0  0  0  0  0  0  0  0  0  0
   -1.7130    4.5462    5.4306 C   0  0  0  0  0  0  0  0  0  0  0  0
   -3.0426    4.6901    4.6835 C   0  0  0  0  0  0  0  0  0  0  0  0
   -3.1973    3.4006    4.0392 N   0  0  0  0  0  0  0  0  0  0  0  0
   -0.0801    3.3332    4.7089 H   0  0  0  0  0  0  0  0  0  0  0  0
   -0.9313    5.8258    5.5275 C   0  0  0  0  0  0  0  0  0  0  0  0
   -0.5189    6.5450    4.3964 C   0  0  0  0  0  0  0  0  0  0  0  0
    0.2086    7.7283    4.5378 C   0  0  0  0  0  0  0  0  0  0  0  0
    0.5236    8.2139    5.8061 C   0  0  0  0  0  0  0  0  0  0  0  0
    0.1000    7.5238    6.9389 C   0  0  0  0  0  0  0  0  0  0  0  0
   -0.6228    6.3437    6.7903 C   0  0  0  0  0  0  0  0  0  0  0  0
   -1.0008    5.6710    7.8898 F   0  0  0  0  0  0  0  0  0  0  0  0
   -4.3518    3.0923    3.1957 C   0  0  0  0  0  0  0  0  0  0  0  0
   -4.0757    3.3750    1.7060 C   0  0  0  0  0  0  0  0  0  0  0  0
   -4.1028    2.0980    0.8722 C   0  0  0  0  0  0  0  0  0  0  0  0
   -5.4014    1.3100    1.0779 C   0  0  0  0  0  0  0  0  0  0  0  0
   -5.9246    1.3239    2.4485 N   0  0  0  0  0  0  0  0  0  0  0  0
   -4.8849    1.6577    3.4254 C   0  0  0  0  0  0  0  0  0  0  0  0
   -6.2996    0.4011    2.6679 H   0  0  0  0  0  0  0  0  0  0  0  0
  1  2  2  0  0  0
  2  3  1  0  0  0
  3  4  1  0  0  0
  4  8  1  0  0  0
  8  9  2  0  0  0
  9 10  1  0  0  0
 10 11  2  0  0  0
 11 12  1  0  0  0
 12 13  2  0  0  0
 13 14  1  0  0  0
  4  5  1  0  0  0
  5  6  1  0  0  0
 15  6  1  0  0  0
 15 16  1  0  0  0
 16 17  1  0  0  0
 17 18  1  0  0  0
 18 19  1  0  0  0
 19 20  1  0  0  0
  6  2  1  0  0  0
 20 15  1  0  0  0
 13  8  1  0  0  0
  3  7  1  0  0  0
 19 21  1  0  0  0
M  END
> <minimizedAffinity>
-2.85682

> <minimizedRMSD>
2.04475

$$$$
C46327-P296


 21 23  0  0  0  0  0  0  0  0999 V2000
    7.9852   14.4830   25.8070 C   0  0  0  0  0  0  0  0  0  0  0  0
    9.5709   11.5192   23.9813 C   0  0  0  0  0  0  0  0  0  0  0  0
    9.2929   12.8137   24.4203 C   0  0  0  0  0  0  0  0  0  0  0  0
    8.2454   13.0790   25.3225 C   0  0  0  0  0  0  0  0  0  0  0  0
    7.5331   11.9588   25.7702 C   0  0  0  0  0  0  0  0  0  0  0  0
    6.5040   11.8741   26.6742 N   0  0  0  0  0  0  0  0  0  0  0  0
    6.0319   10.6320   26.8547 N   0  0  0  0  0  0  0  0  0  0  0  0
    6.7930    9.9054   26.0323 C   0  0  0  0  0  0  0  0  0  0  0  0
    7.7667   10.6641   25.3415 C   0  0  0  0  0  0  0  0  0  0  0  0
    8.8053   10.4334   24.4244 C   0  0  0  0  0  0  0  0  0  0  0  0
    6.1435   12.6575   27.1490 H   0  0  0  0  0  0  0  0  0  0  0  0
    6.5960   14.9160   25.5630 N   0  0  0  0  0  0  0  0  0  0  0  0
    5.9588   14.1869   25.8838 H   0  0  0  0  0  0  0  0  0  0  0  0
    6.2948   16.1694   26.2818 C   0  0  0  0  0  0  0  0  0  0  0  0
    7.2689   16.5388   27.4183 C   0  0  0  0  0  0  0  0  0  0  0  0
    7.7833   17.9738   27.2479 C   0  0  0  0  0  0  0  0  0  0  0  0
    8.7716   18.3462   28.3590 C   0  0  0  0  0  0  0  0  0  0  0  0
    8.6886   17.4237   29.5763 C   0  0  0  0  0  0  0  0  0  0  0  0
    7.3015   17.1055   29.8866 N   0  0  0  0  0  0  0  0  0  0  0  0
    6.6257   16.3730   28.8094 C   0  0  0  0  0  0  0  0  0  0  0  0
    6.7977   17.9766   30.0529 H   0  0  0  0  0  0  0  0  0  0  0  0
  2  3  2  0  0  0
  3  4  1  0  0  0
  4  1  1  0  0  0
  1 12  1  0  0  0
 12 14  1  0  0  0
 15 14  1  0  0  0
 15 16  1  0  0  0
 16 17  1  0  0  0
 17 18  1  0  0  0
 18 19  1  0  0  0
 19 20  1  0  0  0
  4  5  2  0  0  0
  5  6  1  0  0  0
  6  7  1  0  0  0
  7  8  2  0  0  0
  8  9  1  0  0  0
  9 10  2  0  0  0
 10  2  1  0  0  0
 20 15  1  0  0  0
  9  5  1  0  0  0
 12 13  1  0  0  0
 19 21  1  0  0  0
  6 11  1  0  0  0
M  END
> <minimizedAffinity>
-4.12313

> <minimizedRMSD>
1.39891

$$$$
C97401-P9


 23 25  0  0  0  0  0  0  0  0999 V2000
   24.0399   12.8227    1.6449 N   0  0  0  0  0  0  0  0  0  0  0  0
   23.7175   11.9525    2.0681 H   0  0  0  0  0  0  0  0  0  0  0  0
   25.1954   13.5064    2.6819 S   0  0  0  0  0  0  0  0  0  0  0  0
   25.2982   14.9039    2.3277 O   0  0  0  0  0  0  0  0  0  0  0  0
   24.8197   13.0738    4.0060 O   0  0  0  0  0  0  0  0  0  0  0  0
   26.3485   10.4464    1.2795 C   0  0  0  0  0  0  0  0  0  0  0  0
   27.1084   11.5706    1.8473 C   0  0  0  0  0  0  0  0  0  0  0  0
   28.4782   11.4944    1.9576 N   0  0  0  0  0  0  0  0  0  0  0  0
   28.9246   12.6524    2.5060 C   0  0  0  0  0  0  0  0  0  0  0  0
   27.9372   13.4697    2.7756 N   0  0  0  0  0  0  0  0  0  0  0  0
   26.7755   12.8047    2.3959 C   0  0  0  0  0  0  0  0  0  0  0  0
   29.0376   10.7313    1.6855 H   0  0  0  0  0  0  0  0  0  0  0  0
   22.8400   13.6607    1.3553 C   0  0  0  0  0  0  0  0  0  0  0  0
   22.1577   14.2275    2.5954 C   0  0  0  0  0  0  0  0  0  0  0  0
   20.7198   14.3446    2.4211 N   0  0  0  0  0  0  0  0  0  0  0  0
   19.8891   13.5304    3.1216 N   0  0  0  0  0  0  0  0  0  0  0  0
   18.6740   13.9894    2.8120 C   0  0  0  0  0  0  0  0  0  0  0  0
   18.7094   15.0559    1.8887 C   0  0  0  0  0  0  0  0  0  0  0  0
   17.7574   15.8698    1.2518 C   0  0  0  0  0  0  0  0  0  0  0  0
   18.2005   16.8562    0.3628 C   0  0  0  0  0  0  0  0  0  0  0  0
   19.5607   17.0342    0.1126 C   0  0  0  0  0  0  0  0  0  0  0  0
   20.5219   16.2386    0.7422 C   0  0  0  0  0  0  0  0  0  0  0  0
   20.0624   15.2550    1.6285 C   0  0  0  0  0  0  0  0  0  0  0  0
  6  7  1  0  0  0
  7  8  1  0  0  0
  8  9  1  0  0  0
  9 10  2  0  0  0
 10 11  1  0  0  0
 11  3  1  0  0  0
  3  4  2  0  0  0
  3  5  2  0  0  0
  3  1  1  0  0  0
  1 13  1  0  0  0
 13 14  1  0  0  0
 14 15  1  0  0  0
 15 16  1  0  0  0
 16 17  2  0  0  0
 17 18  1  0  0  0
 18 19  2  0  0  0
 19 20  1  0  0  0
 20 21  2  0  0  0
 21 22  1  0  0  0
 22 23  2  0  0  0
 11  7  2  0  0  0
 23 15  1  0  0  0
 23 18  1  0  0  0
  8 12  1  0  0  0
  1  2  1  0  0  0
M  END
> <minimizedAffinity>
-4.32084

> <minimizedRMSD>
0.71599

$$$$
C97404-P9


 21 23  0  0  0  0  0  0  0  0999 V2000
   22.9892   13.5041    1.6008 C   0  0  0  0  0  0  0  0  0  0  0  0
   24.2189   12.9455    2.1473 N   0  0  0  0  0  0  0  0  0  0  0  0
   24.1029   12.8696    3.1578 H   0  0  0  0  0  0  0  0  0  0  0  0
   25.7772   14.6783    3.0148 C   0  0  0  0  0  0  0  0  0  0  0  0
   25.4399   13.6989    1.8969 C   0  0  0  0  0  0  0  0  0  0  0  0
   26.5651   12.7199    1.6759 C   0  0  0  0  0  0  0  0  0  0  0  0
   27.3452   12.5554    0.5478 C   0  0  0  0  0  0  0  0  0  0  0  0
   28.2765   11.6132    0.8816 N   0  0  0  0  0  0  0  0  0  0  0  0
   28.0296   11.2289    2.1635 C   0  0  0  0  0  0  0  0  0  0  0  0
   26.9925   11.8574    2.6625 N   0  0  0  0  0  0  0  0  0  0  0  0
   28.9953   11.2741    0.3006 H   0  0  0  0  0  0  0  0  0  0  0  0
   22.2290   14.2903    2.6620 C   0  0  0  0  0  0  0  0  0  0  0  0
   20.7979   14.3338    2.4192 N   0  0  0  0  0  0  0  0  0  0  0  0
   19.9627   13.5568    3.1552 N   0  0  0  0  0  0  0  0  0  0  0  0
   18.7483   13.9636    2.7805 C   0  0  0  0  0  0  0  0  0  0  0  0
   18.7884   14.9760    1.7985 C   0  0  0  0  0  0  0  0  0  0  0  0
   17.8388   15.7337    1.0927 C   0  0  0  0  0  0  0  0  0  0  0  0
   18.2861   16.6773    0.1604 C   0  0  0  0  0  0  0  0  0  0  0  0
   19.6484   16.8676   -0.0669 C   0  0  0  0  0  0  0  0  0  0  0  0
   20.6071   16.1271    0.6299 C   0  0  0  0  0  0  0  0  0  0  0  0
   20.1436   15.1863    1.5599 C   0  0  0  0  0  0  0  0  0  0  0  0
  5  4  1  0  0  0
  5  2  1  0  0  0
  2  1  1  0  0  0
  1 12  1  0  0  0
 12 13  1  0  0  0
 13 14  1  0  0  0
 14 15  2  0  0  0
 15 16  1  0  0  0
 16 17  2  0  0  0
 17 18  1  0  0  0
 18 19  2  0  0  0
 19 20  1  0  0  0
 20 21  2  0  0  0
  5  6  1  0  0  0
  6  7  2  0  0  0
  7  8  1  0  0  0
  8  9  1  0  0  0
  9 10  2  0  0  0
 21 13  1  0  0  0
 10  6  1  0  0  0
 21 16  1  0  0  0
  2  3  1  0  0  0
  8 11  1  0  0  0
M  END
> <minimizedAffinity>
-3.60575

> <minimizedRMSD>
0.87806

$$$$
C132369-P220


 22 24  0  0  0  0  0  0  0  0999 V2000
    9.3566   10.2852   23.5138 C   0  0  0  0  0  0  0  0  0  0  0  0
    8.5067   11.0407   24.4636 C   0  0  0  0  0  0  0  0  0  0  0  0
    7.3857   10.4434   24.9786 N   0  0  0  0  0  0  0  0  0  0  0  0
    6.7548   11.2809   25.8576 C   0  0  0  0  0  0  0  0  0  0  0  0
    5.6192   11.0659   26.6403 C   0  0  0  0  0  0  0  0  0  0  0  0
    5.1611   12.1228   27.4261 C   0  0  0  0  0  0  0  0  0  0  0  0
    5.8164   13.3489   27.4242 C   0  0  0  0  0  0  0  0  0  0  0  0
    6.9657   13.5387   26.6531 C   0  0  0  0  0  0  0  0  0  0  0  0
    7.4599   12.4780   25.8656 C   0  0  0  0  0  0  0  0  0  0  0  0
    8.6254   12.2982   25.0527 C   0  0  0  0  0  0  0  0  0  0  0  0
    7.0773    9.5373   24.7481 H   0  0  0  0  0  0  0  0  0  0  0  0
    9.7248   13.2593   24.9491 C   0  0  0  0  0  0  0  0  0  0  0  0
    9.7954   14.2973   25.6028 O   0  0  0  0  0  0  0  0  0  0  0  0
   10.7135   12.9150   24.0782 O   0  0  0  0  0  0  0  0  0  0  0  0
   10.5676   13.7468   22.9395 C   0  0  0  0  0  0  0  0  0  0  0  0
   11.9083   14.3071   22.4441 C   0  0  0  0  0  0  0  0  0  0  0  0
   11.5871   14.9234   21.1304 C   0  0  0  0  0  0  0  0  0  0  0  0
   12.0870   14.5497   19.9149 C   0  0  0  0  0  0  0  0  0  0  0  0
   11.3485   14.8350   18.7778 C   0  0  0  0  0  0  0  0  0  0  0  0
   10.1950   15.5868   18.8767 C   0  0  0  0  0  0  0  0  0  0  0  0
    9.7446   16.0452   20.0362 N   0  0  0  0  0  0  0  0  0  0  0  0
   10.4788   15.7226   21.1100 C   0  0  0  0  0  0  0  0  0  0  0  0
  1  2  1  0  0  0
  2  3  1  0  0  0
  3  4  1  0  0  0
  4  5  2  0  0  0
  5  6  1  0  0  0
  6  7  2  0  0  0
  7  8  1  0  0  0
  8  9  2  0  0  0
  9 10  1  0  0  0
 10 12  1  0  0  0
 12 13  2  0  0  0
 12 14  1  0  0  0
 14 15  1  0  0  0
 15 16  1  0  0  0
 16 17  1  0  0  0
 17 18  2  0  0  0
 18 19  1  0  0  0
 19 20  2  0  0  0
 20 21  1  0  0  0
 21 22  2  0  0  0
 10  2  2  0  0  0
 22 17  1  0  0  0
  9  4  1  0  0  0
  3 11  1  0  0  0
M  END
> <minimizedAffinity>
-6.69189

> <minimizedRMSD>
0.92270

$$$$
C13210-P270


 14 14  0  0  0  0  0  0  0  0999 V2000
    9.2660   12.9764   23.0817 N   0  0  0  0  0  0  0  0  0  0  0  0
    9.8320   13.4126   23.8095 H   0  0  0  0  0  0  0  0  0  0  0  0
    8.3964   12.0343   23.6733 N   0  0  0  0  0  0  0  0  0  0  0  0
    9.0047   10.6978   23.7004 C   0  0  0  0  0  0  0  0  0  0  0  0
    8.0938    9.6318   24.2972 C   0  0  0  0  0  0  0  0  0  0  0  0
    7.0910   10.1012   25.3433 C   0  0  0  0  0  0  0  0  0  0  0  0
    6.9066   11.5852   25.5460 C   0  0  0  0  0  0  0  0  0  0  0  0
    8.0668   12.4070   25.0513 C   0  0  0  0  0  0  0  0  0  0  0  0
    8.3719   14.1967   22.2524 S   0  0  0  0  0  0  0  0  0  0  0  0
    9.1263   14.4892   21.0535 O   0  0  0  0  0  0  0  0  0  0  0  0
    6.9900   13.7670   22.1737 O   0  0  0  0  0  0  0  0  0  0  0  0
    8.5004   15.6027   23.3553 C   0  0  0  0  0  0  0  0  0  0  0  0
    9.7370   15.7567   25.5476 C   0  0  0  0  0  0  0  0  0  0  0  0
    9.8644   15.7121   24.0330 C   0  0  0  0  0  0  0  0  0  0  0  0
 13 14  1  0  0  0
 14 12  1  0  0  0
 12  9  1  0  0  0
  9 10  2  0  0  0
  9 11  2  0  0  0
  9  1  1  0  0  0
  1  3  1  0  0  0
  3  4  1  0  0  0
  4  5  1  0  0  0
  5  6  1  0  0  0
  6  7  1  0  0  0
  7  8  1  0  0  0
  8  3  1  0  0  0
  1  2  1  0  0  0
M  END
> <minimizedAffinity>
-4.34806

> <minimizedRMSD>
1.25388

$$$$
C56215-P205


 13 14  0  0  0  0  0  0  0  0999 V2000
    9.0065   14.4254   25.2531 O   0  0  0  0  0  0  0  0  0  0  0  0
    8.6495   13.5011   24.5160 C   0  0  0  0  0  0  0  0  0  0  0  0
    8.1047   12.2345   25.1377 C   0  0  0  0  0  0  0  0  0  0  0  0
    8.1307   10.9394   24.3787 C   0  0  0  0  0  0  0  0  0  0  0  0
    7.1798   10.0681   25.1752 C   0  0  0  0  0  0  0  0  0  0  0  0
    6.2913   10.9744   25.9111 N   0  0  0  0  0  0  0  0  0  0  0  0
    6.6437   12.3449   25.5152 C   0  0  0  0  0  0  0  0  0  0  0  0
    6.4247   10.8555   26.9153 H   0  0  0  0  0  0  0  0  0  0  0  0
    8.6766   13.5837   23.0038 C   0  0  0  0  0  0  0  0  0  0  0  0
    9.4687   14.7487   22.4331 C   0  0  0  0  0  0  0  0  0  0  0  0
   10.9268   14.4355   22.2796 C   0  0  0  0  0  0  0  0  0  0  0  0
   11.9138   14.8497   23.3293 C   0  0  0  0  0  0  0  0  0  0  0  0
   11.8751   15.5750   22.0122 C   0  0  0  0  0  0  0  0  0  0  0  0
  1  2  2  0  0  0
  2  9  1  0  0  0
  9 10  1  0  0  0
 10 11  1  0  0  0
 11 12  1  0  0  0
 12 13  1  0  0  0
  3  2  1  0  0  0
  3  4  1  0  0  0
  4  5  1  0  0  0
  5  6  1  0  0  0
  6  7  1  0  0  0
 13 11  1  0  0  0
  7  3  1  0  0  0
  6  8  1  0  0  0
M  END
> <minimizedAffinity>
-4.02102

> <minimizedRMSD>
0.46967

$$$$
C118307-P200


 21 23  0  0  0  0  0  0  0  0999 V2000
   10.0004   14.1628   24.2738 N   0  0  0  0  0  0  0  0  0  0  0  0
   10.8516   13.7115   23.2077 C   0  0  0  0  0  0  0  0  0  0  0  0
   11.7374   14.7791   22.5679 C   0  0  0  0  0  0  0  0  0  0  0  0
   10.1398   15.4763   18.7554 C   0  0  0  0  0  0  0  0  0  0  0  0
   11.2367   14.6263   18.9049 C   0  0  0  0  0  0  0  0  0  0  0  0
   11.8666   14.4583   20.1132 C   0  0  0  0  0  0  0  0  0  0  0  0
   11.2700   15.0458   21.1904 C   0  0  0  0  0  0  0  0  0  0  0  0
   10.1666   15.7979   21.0716 N   0  0  0  0  0  0  0  0  0  0  0  0
    9.6154   16.0147   19.8699 C   0  0  0  0  0  0  0  0  0  0  0  0
    9.5869   13.2129   25.2440 C   0  0  0  0  0  0  0  0  0  0  0  0
    9.0672   11.9277   24.7165 C   0  0  0  0  0  0  0  0  0  0  0  0
    9.6536   11.0351   23.8525 C   0  0  0  0  0  0  0  0  0  0  0  0
    9.0070    9.8487   23.9917 O   0  0  0  0  0  0  0  0  0  0  0  0
    7.9918   10.1116   24.8546 C   0  0  0  0  0  0  0  0  0  0  0  0
    7.9953   11.3221   25.3430 N   0  0  0  0  0  0  0  0  0  0  0  0
    8.9411   15.0689   23.9308 C   0  0  0  0  0  0  0  0  0  0  0  0
    7.7220   14.6119   23.2181 C   0  0  0  0  0  0  0  0  0  0  0  0
    7.5659   13.7650   22.1463 C   0  0  0  0  0  0  0  0  0  0  0  0
    6.2621   13.7829   21.7644 O   0  0  0  0  0  0  0  0  0  0  0  0
    5.7003   14.7084   22.5897 C   0  0  0  0  0  0  0  0  0  0  0  0
    6.5150   15.2373   23.4706 N   0  0  0  0  0  0  0  0  0  0  0  0
  4  5  2  0  0  0
  5  6  1  0  0  0
  6  7  2  0  0  0
  7  3  1  0  0  0
  3  2  1  0  0  0
  2  1  1  0  0  0
  1 10  1  0  0  0
 10 11  1  0  0  0
 11 12  2  0  0  0
 12 13  1  0  0  0
 13 14  1  0  0  0
 14 15  2  0  0  0
  1 16  1  0  0  0
 16 17  1  0  0  0
 17 18  2  0  0  0
 18 19  1  0  0  0
 19 20  1  0  0  0
 20 21  2  0  0  0
  7  8  1  0  0  0
  8  9  2  0  0  0
  9  4  1  0  0  0
 15 11  1  0  0  0
 21 17  1  0  0  0
M  END
> <minimizedAffinity>
-3.87902

> <minimizedRMSD>
1.21635

$$$$
C132547-P200


 28 30  0  0  0  0  0  0  0  0999 V2000
    6.8470   15.7383   22.7761 C   0  0  0  0  0  0  0  0  0  0  0  0
    5.1823   14.0082   21.5639 C   0  0  0  0  0  0  0  0  0  0  0  0
    5.8041   13.0569   21.3409 O   0  0  0  0  0  0  0  0  0  0  0  0
    5.5713   15.2958   22.2692 N   0  0  0  0  0  0  0  0  0  0  0  0
    4.8321   15.9322   22.4021 H   0  0  0  0  0  0  0  0  0  0  0  0
    2.4614   13.5180   19.4518 C   0  0  0  0  0  0  0  0  0  0  0  0
    2.0643   14.7020   20.0203 C   0  0  0  0  0  0  0  0  0  0  0  0
    2.9677   15.0866   20.9982 N   0  0  0  0  0  0  0  0  0  0  0  0
    3.8298   14.0758   21.0209 C   0  0  0  0  0  0  0  0  0  0  0  0
    3.5449   13.0860   20.1322 O   0  0  0  0  0  0  0  0  0  0  0  0
    0.7852   13.2164   17.6428 C   0  0  0  0  0  0  0  0  0  0  0  0
    2.0746   12.6818   18.2850 C   0  0  0  0  0  0  0  0  0  0  0  0
    1.8503   11.2361   18.7531 C   0  0  0  0  0  0  0  0  0  0  0  0
    3.2195   12.7323   17.2741 C   0  0  0  0  0  0  0  0  0  0  0  0
    7.8174   15.5761   21.5649 C   0  0  0  0  0  0  0  0  0  0  0  0
    8.3654   16.8104   21.1170 O   0  0  0  0  0  0  0  0  0  0  0  0
    7.6499   17.3906   20.8133 H   0  0  0  0  0  0  0  0  0  0  0  0
    7.3004   15.0362   24.0843 C   0  0  0  0  0  0  0  0  0  0  0  0
    8.5193   14.1659   23.9384 C   0  0  0  0  0  0  0  0  0  0  0  0
    9.6874   14.3846   23.2204 C   0  0  0  0  0  0  0  0  0  0  0  0
   10.2336   13.1648   22.9220 N   0  0  0  0  0  0  0  0  0  0  0  0
    9.5263   12.1940   23.5736 C   0  0  0  0  0  0  0  0  0  0  0  0
    9.6272   10.8190   23.4903 C   0  0  0  0  0  0  0  0  0  0  0  0
    8.8654   10.1117   24.4079 C   0  0  0  0  0  0  0  0  0  0  0  0
    8.0019   10.7120   25.3174 C   0  0  0  0  0  0  0  0  0  0  0  0
    7.8033   12.0764   25.2695 C   0  0  0  0  0  0  0  0  0  0  0  0
    8.5824   12.8261   24.3795 C   0  0  0  0  0  0  0  0  0  0  0  0
   11.0088   13.0122   22.3345 H   0  0  0  0  0  0  0  0  0  0  0  0
 11 12  1  0  0  0
 12 13  1  0  0  0
 12 14  1  0  0  0
 12  6  1  0  0  0
  6  7  2  0  0  0
  7  8  1  0  0  0
  8  9  2  0  0  0
  9  2  1  0  0  0
  2  3  2  0  0  0
  2  4  1  0  0  0
  4  1  1  0  0  0
  1 15  1  0  0  0
 15 16  1  0  0  0
  1 18  1  0  0  0
 18 19  1  0  0  0
 19 20  2  0  0  0
 20 21  1  0  0  0
 21 22  1  0  0  0
 22 23  2  0  0  0
 23 24  1  0  0  0
 24 25  2  0  0  0
 25 26  1  0  0  0
 26 27  2  0  0  0
  9 10  1  0  0  0
 10  6  1  0  0  0
 27 19  1  0  0  0
 27 22  1  0  0  0
  4  5  1  0  0  0
 16 17  1  0  0  0
 21 28  1  0  0  0
M  END
> <minimizedAffinity>
-5.82675

> <minimizedRMSD>
0.52069

$$$$
C68035-P51


 25 28  0  0  0  0  0  0  0  0999 V2000
   19.6365   13.1151    3.6664 O   0  0  0  0  0  0  0  0  0  0  0  0
   19.6588   14.0836    3.0176 C   0  0  0  0  0  0  0  0  0  0  0  0
   20.8491   14.9423    2.5447 N   0  0  0  0  0  0  0  0  0  0  0  0
   20.5990   15.7647    2.0647 H   0  0  0  0  0  0  0  0  0  0  0  0
   18.3788   14.6753    2.5621 C   0  0  0  0  0  0  0  0  0  0  0  0
   17.9623   14.9027    1.2682 C   0  0  0  0  0  0  0  0  0  0  0  0
   16.7253   15.4655    1.2957 O   0  0  0  0  0  0  0  0  0  0  0  0
   16.4063   15.5305    2.6267 C   0  0  0  0  0  0  0  0  0  0  0  0
   17.3598   15.0852    3.4216 N   0  0  0  0  0  0  0  0  0  0  0  0
   15.0935   16.0749    2.9453 C   0  0  0  0  0  0  0  0  0  0  0  0
   14.4144   16.9451    2.0843 C   0  0  0  0  0  0  0  0  0  0  0  0
   13.1625   17.4469    2.4372 C   0  0  0  0  0  0  0  0  0  0  0  0
   12.6194   17.0652    3.6518 C   0  0  0  0  0  0  0  0  0  0  0  0
   13.2325   16.2299    4.5184 N   0  0  0  0  0  0  0  0  0  0  0  0
   14.4504   15.7491    4.1367 C   0  0  0  0  0  0  0  0  0  0  0  0
   22.2634   14.7377    2.6906 C   0  0  0  0  0  0  0  0  0  0  0  0
   22.7654   13.9472    1.5400 C   0  0  0  0  0  0  0  0  0  0  0  0
   22.2390   13.8695    0.3302 N   0  0  0  0  0  0  0  0  0  0  0  0
   23.0156   13.0251   -0.4276 N   0  0  0  0  0  0  0  0  0  0  0  0
   24.0090   12.6111    0.3259 C   0  0  0  0  0  0  0  0  0  0  0  0
   23.8972   13.1777    1.5666 N   0  0  0  0  0  0  0  0  0  0  0  0
   24.8962   13.0712    2.6077 C   0  0  0  0  0  0  0  0  0  0  0  0
   25.9246   11.9684    2.3416 C   0  0  0  0  0  0  0  0  0  0  0  0
   26.3324   11.9215    0.8672 C   0  0  0  0  0  0  0  0  0  0  0  0
   25.1152   11.6898   -0.0305 C   0  0  0  0  0  0  0  0  0  0  0  0
  1  2  2  0  0  0
  2  3  1  0  0  0
  3 16  1  0  0  0
 16 17  1  0  0  0
 17 18  2  0  0  0
 18 19  1  0  0  0
 19 20  2  0  0  0
 20 21  1  0  0  0
 21 22  1  0  0  0
 22 23  1  0  0  0
 23 24  1  0  0  0
 24 25  1  0  0  0
  2  5  1  0  0  0
  5  6  2  0  0  0
  6  7  1  0  0  0
  7  8  1  0  0  0
  8 10  1  0  0  0
 10 11  2  0  0  0
 11 12  1  0  0  0
 12 13  2  0  0  0
 13 14  1  0  0  0
 14 15  2  0  0  0
  8  9  2  0  0  0
 21 17  1  0  0  0
  9  5  1  0  0  0
 25 20  1  0  0  0
 15 10  1  0  0  0
  3  4  1  0  0  0
M  END
> <minimizedAffinity>
-5.18585

> <minimizedRMSD>
0.80453

$$$$
C64769-P219


 23 26  0  0  0  0  0  0  0  0999 V2000
   12.1712   12.5752   24.1324 O   0  0  0  0  0  0  0  0  0  0  0  0
   11.4615   13.3546   23.6356 C   0  0  0  0  0  0  0  0  0  0  0  0
    9.9280   13.4944   23.7018 N   0  0  0  0  0  0  0  0  0  0  0  0
    9.5670   14.2916   23.2509 H   0  0  0  0  0  0  0  0  0  0  0  0
    8.9782   12.6835   24.2908 C   0  0  0  0  0  0  0  0  0  0  0  0
    9.0210   11.3006   24.0867 C   0  0  0  0  0  0  0  0  0  0  0  0
    8.1859   10.4580   24.8149 C   0  0  0  0  0  0  0  0  0  0  0  0
    7.3702   11.0046   25.7776 C   0  0  0  0  0  0  0  0  0  0  0  0
    7.3209   12.3797   25.9494 C   0  0  0  0  0  0  0  0  0  0  0  0
    8.0622   13.2493   25.1694 C   0  0  0  0  0  0  0  0  0  0  0  0
    6.4366   12.6879   27.0975 C   0  0  0  0  0  0  0  0  0  0  0  0
    6.0868   11.3023   27.6438 C   0  0  0  0  0  0  0  0  0  0  0  0
    6.6995   10.3071   26.7815 N   0  0  0  0  0  0  0  0  0  0  0  0
    6.6508    9.3294   26.8857 H   0  0  0  0  0  0  0  0  0  0  0  0
   12.0373   14.4242   22.8135 C   0  0  0  0  0  0  0  0  0  0  0  0
   13.2268   15.0063   23.2124 C   0  0  0  0  0  0  0  0  0  0  0  0
   13.7098   16.0417   22.4497 C   0  0  0  0  0  0  0  0  0  0  0  0
   13.1112   16.4687   21.3280 N   0  0  0  0  0  0  0  0  0  0  0  0
   12.0187   15.7969   20.8812 C   0  0  0  0  0  0  0  0  0  0  0  0
   11.4234   14.7948   21.6290 C   0  0  0  0  0  0  0  0  0  0  0  0
   11.5367   16.1174   19.5080 C   0  0  0  0  0  0  0  0  0  0  0  0
   10.4761   15.2795   18.8492 C   0  0  0  0  0  0  0  0  0  0  0  0
   11.9065   15.1316   18.4293 C   0  0  0  0  0  0  0  0  0  0  0  0
  1  2  2  0  0  0
  2  3  1  0  0  0
  3  5  1  0  0  0
  5  6  2  0  0  0
  6  7  1  0  0  0
  7  8  2  0  0  0
  8  9  1  0  0  0
  9 10  2  0  0  0
  9 11  1  0  0  0
 11 12  1  0  0  0
 12 13  1  0  0  0
  2 15  1  0  0  0
 15 16  2  0  0  0
 16 17  1  0  0  0
 17 18  2  0  0  0
 18 19  1  0  0  0
 19 21  1  0  0  0
 21 22  1  0  0  0
 22 23  1  0  0  0
 19 20  2  0  0  0
 10  5  1  0  0  0
 20 15  1  0  0  0
 13  8  1  0  0  0
 23 21  1  0  0  0
  3  4  1  0  0  0
 13 14  1  0  0  0
M  END
> <minimizedAffinity>
-7.50741

> <minimizedRMSD>
0.69234

$$$$
C51427-P138


 25 27  0  0  0  0  0  0  0  0999 V2000
    5.7031   15.1382   23.3999 N   0  0  0  0  0  0  0  0  0  0  0  0
    6.9879   14.4427   22.9529 C   0  0  0  0  0  0  0  0  0  0  0  0
    7.1539   13.5911   22.1810 O   0  0  0  0  0  0  0  0  0  0  0  0
    5.8364   15.8915   24.0194 H   0  0  0  0  0  0  0  0  0  0  0  0
    8.1470   14.9006   23.7235 C   0  0  0  0  0  0  0  0  0  0  0  0
    8.6516   16.1780   23.7050 N   0  0  0  0  0  0  0  0  0  0  0  0
    9.7742   16.0735   24.3815 C   0  0  0  0  0  0  0  0  0  0  0  0
    9.9925   14.8668   24.9667 O   0  0  0  0  0  0  0  0  0  0  0  0
    8.9420   14.1029   24.5394 C   0  0  0  0  0  0  0  0  0  0  0  0
    8.9343   12.6716   24.9816 C   0  0  0  0  0  0  0  0  0  0  0  0
    9.5040   11.7889   23.8740 C   0  0  0  0  0  0  0  0  0  0  0  0
    9.2281   10.2995   23.9995 C   0  0  0  0  0  0  0  0  0  0  0  0
    7.8614    9.9939   24.5861 C   0  0  0  0  0  0  0  0  0  0  0  0
    7.4737   10.7997   25.7385 N   0  0  0  0  0  0  0  0  0  0  0  0
    7.5315   12.2264   25.4163 C   0  0  0  0  0  0  0  0  0  0  0  0
    8.1095   10.6052   26.5120 H   0  0  0  0  0  0  0  0  0  0  0  0
    4.3158   14.8687   23.0594 C   0  0  0  0  0  0  0  0  0  0  0  0
    4.0544   14.6906   21.5632 C   0  0  0  0  0  0  0  0  0  0  0  0
    4.1075   13.4014   21.0098 C   0  0  0  0  0  0  0  0  0  0  0  0
    3.7677   13.1903   19.6761 C   0  0  0  0  0  0  0  0  0  0  0  0
    3.3549   14.2751   18.9283 C   0  0  0  0  0  0  0  0  0  0  0  0
    3.3199   15.5199   19.5408 C   0  0  0  0  0  0  0  0  0  0  0  0
    3.6840   15.7657   20.8247 N   0  0  0  0  0  0  0  0  0  0  0  0
    3.9645   16.5202   24.9652 C   0  0  0  0  0  0  0  0  0  0  0  0
    3.3311   15.8018   23.7783 C   0  0  0  0  0  0  0  0  0  0  0  0
 24 25  1  0  0  0
 17 25  1  0  0  0
 17  1  1  0  0  0
  1  2  1  0  0  0
  2  3  2  0  0  0
  2  5  1  0  0  0
  5  6  1  0  0  0
  6  7  2  0  0  0
  7  8  1  0  0  0
  8  9  1  0  0  0
 10  9  1  0  0  0
 10 11  1  0  0  0
 11 12  1  0  0  0
 12 13  1  0  0  0
 13 14  1  0  0  0
 14 15  1  0  0  0
 17 18  1  0  0  0
 18 19  2  0  0  0
 19 20  1  0  0  0
 20 21  2  0  0  0
 21 22  1  0  0  0
 22 23  2  0  0  0
  9  5  2  0  0  0
 15 10  1  0  0  0
 23 18  1  0  0  0
  1  4  1  0  0  0
 14 16  1  0  0  0
M  END
> <minimizedAffinity>
-5.68297

> <minimizedRMSD>
0.64530

$$$$
C47239-P208


 21 23  0  0  0  0  0  0  0  0999 V2000
   -4.5991    5.2305    2.8994 O   0  0  0  0  0  0  0  0  0  0  0  0
   -4.0561    5.2342    3.9890 C   0  0  0  0  0  0  0  0  0  0  0  0
   -2.7091    4.9980    4.1871 N   0  0  0  0  0  0  0  0  0  0  0  0
   -2.3326    5.1283    5.5718 C   0  0  0  0  0  0  0  0  0  0  0  0
   -3.6909    5.1593    6.2906 C   0  0  0  0  0  0  0  0  0  0  0  0
   -4.6390    5.4558    5.2320 N   0  0  0  0  0  0  0  0  0  0  0  0
   -2.0798    4.7675    3.4659 H   0  0  0  0  0  0  0  0  0  0  0  0
   -1.4989    6.3533    5.8677 C   0  0  0  0  0  0  0  0  0  0  0  0
   -1.3159    7.4031    4.9566 C   0  0  0  0  0  0  0  0  0  0  0  0
   -0.5449    8.5153    5.3044 C   0  0  0  0  0  0  0  0  0  0  0  0
    0.0226    8.6117    6.5739 C   0  0  0  0  0  0  0  0  0  0  0  0
   -0.1733    7.5908    7.4986 C   0  0  0  0  0  0  0  0  0  0  0  0
   -0.9059    6.4662    7.1316 C   0  0  0  0  0  0  0  0  0  0  0  0
   -1.0010    5.4425    7.9966 F   0  0  0  0  0  0  0  0  0  0  0  0
   -6.0772    5.5167    5.4827 C   0  0  0  0  0  0  0  0  0  0  0  0
   -6.7848    4.2163    5.0794 C   0  0  0  0  0  0  0  0  0  0  0  0
   -8.2901    4.3277    5.3109 C   0  0  0  0  0  0  0  0  0  0  0  0
   -8.8701    5.5739    4.6435 C   0  0  0  0  0  0  0  0  0  0  0  0
   -8.1961    6.7897    5.1047 N   0  0  0  0  0  0  0  0  0  0  0  0
   -6.7560    6.7287    4.8054 C   0  0  0  0  0  0  0  0  0  0  0  0
   -8.3255    6.8832    6.1121 H   0  0  0  0  0  0  0  0  0  0  0  0
  1  2  2  0  0  0
  2  3  1  0  0  0
  3  4  1  0  0  0
  4  8  1  0  0  0
  8  9  2  0  0  0
  9 10  1  0  0  0
 10 11  2  0  0  0
 11 12  1  0  0  0
 12 13  2  0  0  0
 13 14  1  0  0  0
  4  5  1  0  0  0
  5  6  1  0  0  0
 15  6  1  0  0  0
 15 16  1  0  0  0
 16 17  1  0  0  0
 17 18  1  0  0  0
 18 19  1  0  0  0
 19 20  1  0  0  0
  6  2  1  0  0  0
 20 15  1  0  0  0
 13  8  1  0  0  0
  3  7  1  0  0  0
 19 21  1  0  0  0
M  END
> <minimizedAffinity>
-2.36670

> <minimizedRMSD>
1.24295

$$$$
C46501-P481


 18 19  0  0  0  0  0  0  0  0999 V2000
    7.0552   11.5247    2.5698 N   0  0  0  0  0  0  0  0  0  0  0  0
    6.1699   11.5849    2.9963 H   0  0  0  0  0  0  0  0  0  0  0  0
    7.6587   13.8077    3.2467 C   0  0  0  0  0  0  0  0  0  0  0  0
    8.4815   14.9194    3.0764 C   0  0  0  0  0  0  0  0  0  0  0  0
    9.4966   14.9874    2.1879 N   0  0  0  0  0  0  0  0  0  0  0  0
    9.6469   13.9163    1.3858 C   0  0  0  0  0  0  0  0  0  0  0  0
    8.8771   12.7626    1.4824 C   0  0  0  0  0  0  0  0  0  0  0  0
    7.8825   12.6606    2.4665 C   0  0  0  0  0  0  0  0  0  0  0  0
    5.7597   14.0825    4.9760 N   0  0  0  0  0  0  0  0  0  0  0  0
    6.6150   13.9098    4.2119 C   0  0  0  0  0  0  0  0  0  0  0  0
    7.5409   10.2500    2.0283 C   0  0  0  0  0  0  0  0  0  0  0  0
    6.9997    9.0493    2.8257 C   0  0  0  0  0  0  0  0  0  0  0  0
    8.0156    7.8842    2.8063 C   0  0  0  0  0  0  0  0  0  0  0  0
    7.5706    6.7689    1.8669 C   0  0  0  0  0  0  0  0  0  0  0  0
    6.1800    6.2476    2.2420 C   0  0  0  0  0  0  0  0  0  0  0  0
    5.2965    7.2714    2.7991 N   0  0  0  0  0  0  0  0  0  0  0  0
    5.6163    8.6109    2.3116 C   0  0  0  0  0  0  0  0  0  0  0  0
    5.3857    7.2630    3.8152 H   0  0  0  0  0  0  0  0  0  0  0  0
  9 10  3  0  0  0
 10  3  1  0  0  0
  3  4  2  0  0  0
  4  5  1  0  0  0
  5  6  2  0  0  0
  6  7  1  0  0  0
  7  8  2  0  0  0
  8  1  1  0  0  0
  1 11  1  0  0  0
 12 11  1  0  0  0
 12 13  1  0  0  0
 13 14  1  0  0  0
 14 15  1  0  0  0
 15 16  1  0  0  0
 16 17  1  0  0  0
  8  3  1  0  0  0
 17 12  1  0  0  0
  1  2  1  0  0  0
 16 18  1  0  0  0
M  END
> <minimizedAffinity>
-3.03562

> <minimizedRMSD>
0.62092

$$$$
C51402-P120


 20 20  0  0  0  0  0  0  0  0999 V2000
    5.2529   10.2978   26.5797 N   0  0  0  0  0  0  0  0  0  0  0  0
    5.1009   10.3729   28.1285 C   0  0  0  0  0  0  0  0  0  0  0  0
    5.8176   10.8157   28.9391 O   0  0  0  0  0  0  0  0  0  0  0  0
    4.4676    9.9409   26.1052 H   0  0  0  0  0  0  0  0  0  0  0  0
    6.8498   11.9424   25.6427 C   0  0  0  0  0  0  0  0  0  0  0  0
    7.9433   12.1631   24.7844 C   0  0  0  0  0  0  0  0  0  0  0  0
    8.6066   13.5042   24.6280 C   0  0  0  0  0  0  0  0  0  0  0  0
    8.4443   11.0845   24.0617 C   0  0  0  0  0  0  0  0  0  0  0  0
    7.8448    9.8574   24.2103 C   0  0  0  0  0  0  0  0  0  0  0  0
    6.7910    9.6264   25.0268 N   0  0  0  0  0  0  0  0  0  0  0  0
    6.3182   10.6533   25.7584 C   0  0  0  0  0  0  0  0  0  0  0  0
    5.2443   13.6098   25.7673 C   0  0  0  0  0  0  0  0  0  0  0  0
    6.3472   12.9655   26.3888 O   0  0  0  0  0  0  0  0  0  0  0  0
    3.7034    9.8228   28.4547 C   0  0  0  0  0  0  0  0  0  0  0  0
    3.6558    8.4227   29.1044 C   0  0  0  0  0  0  0  0  0  0  0  0
    3.9752    8.4214   30.6029 C   0  0  0  0  0  0  0  0  0  0  0  0
    2.2672    7.8161   28.9151 C   0  0  0  0  0  0  0  0  0  0  0  0
    1.9384    7.0150   29.9533 F   0  0  0  0  0  0  0  0  0  0  0  0
    2.1939    7.0635   27.7950 F   0  0  0  0  0  0  0  0  0  0  0  0
    1.3177    8.7735   28.8181 F   0  0  0  0  0  0  0  0  0  0  0  0
 12 13  1  0  0  0
 13  5  1  0  0  0
  5  6  2  0  0  0
  6  7  1  0  0  0
  6  8  1  0  0  0
  8  9  2  0  0  0
  9 10  1  0  0  0
 10 11  2  0  0  0
 11  1  1  0  0  0
  1  2  1  0  0  0
  2  3  2  0  0  0
  2 14  1  0  0  0
 14 15  1  0  0  0
 15 16  1  0  0  0
 15 17  1  0  0  0
 17 18  1  0  0  0
 17 19  1  0  0  0
 17 20  1  0  0  0
 11  5  1  0  0  0
  1  4  1  0  0  0
M  END
> <minimizedAffinity>
-5.45184

> <minimizedRMSD>
1.97299

$$$$
C51406-P120


 20 20  0  0  0  0  0  0  0  0999 V2000
    4.8523   10.1455   28.2842 C   0  0  0  0  0  0  0  0  0  0  0  0
    5.6957   10.2119   29.0866 O   0  0  0  0  0  0  0  0  0  0  0  0
    4.8933   10.4204   26.7598 N   0  0  0  0  0  0  0  0  0  0  0  0
    4.0570   10.2178   26.2816 H   0  0  0  0  0  0  0  0  0  0  0  0
    5.9102   10.9025   25.9651 C   0  0  0  0  0  0  0  0  0  0  0  0
    6.6429   10.0301   25.1961 C   0  0  0  0  0  0  0  0  0  0  0  0
    7.7237   10.5285   24.4775 C   0  0  0  0  0  0  0  0  0  0  0  0
    7.9900   11.8875   24.4740 C   0  0  0  0  0  0  0  0  0  0  0  0
    7.1844   12.6821   25.2537 C   0  0  0  0  0  0  0  0  0  0  0  0
    7.5694   14.5170   25.3466 Br  0  0  0  0  0  0  0  0  0  0  0  0
    6.1887   12.2100   26.0221 N   0  0  0  0  0  0  0  0  0  0  0  0
    8.6010    9.6391   23.7931 C   0  0  0  0  0  0  0  0  0  0  0  0
    9.3162    8.9244   23.2314 N   0  0  0  0  0  0  0  0  0  0  0  0
    3.3971    9.8465   28.6297 C   0  0  0  0  0  0  0  0  0  0  0  0
    2.8175    9.9796   31.1454 C   0  0  0  0  0  0  0  0  0  0  0  0
    3.1798    9.0897   29.9518 C   0  0  0  0  0  0  0  0  0  0  0  0
    2.0593    8.0814   29.7528 C   0  0  0  0  0  0  0  0  0  0  0  0
    2.3742    6.8889   30.3013 F   0  0  0  0  0  0  0  0  0  0  0  0
    1.8092    7.8701   28.4418 F   0  0  0  0  0  0  0  0  0  0  0  0
    0.9096    8.5122   30.3174 F   0  0  0  0  0  0  0  0  0  0  0  0
 16 15  1  0  0  0
 16 14  1  0  0  0
 14  1  1  0  0  0
  1  2  2  0  0  0
  1  3  1  0  0  0
  3  5  1  0  0  0
  5  6  2  0  0  0
  6  7  1  0  0  0
  7 12  1  0  0  0
 12 13  3  0  0  0
  7  8  2  0  0  0
  8  9  1  0  0  0
  9 10  1  0  0  0
  9 11  2  0  0  0
 16 17  1  0  0  0
 17 18  1  0  0  0
 17 19  1  0  0  0
 17 20  1  0  0  0
 11  5  1  0  0  0
  3  4  1  0  0  0
M  END
> <minimizedAffinity>
-5.27331

> <minimizedRMSD>
1.69312

$$$$
C51421-P120


 20 20  0  0  0  0  0  0  0  0999 V2000
    5.3711   10.8023   28.1820 C   0  0  0  0  0  0  0  0  0  0  0  0
    5.8996   11.6385   28.8058 O   0  0  0  0  0  0  0  0  0  0  0  0
    5.5432   10.3971   26.6880 N   0  0  0  0  0  0  0  0  0  0  0  0
    4.9209    9.7015   26.3749 H   0  0  0  0  0  0  0  0  0  0  0  0
    6.4452   10.8647   25.7119 C   0  0  0  0  0  0  0  0  0  0  0  0
    7.1919    9.9076   25.0269 C   0  0  0  0  0  0  0  0  0  0  0  0
    8.2144   10.3111   24.1758 C   0  0  0  0  0  0  0  0  0  0  0  0
    9.0101    9.4296   23.5212 O   0  0  0  0  0  0  0  0  0  0  0  0
    8.4614   11.6578   23.9991 C   0  0  0  0  0  0  0  0  0  0  0  0
    7.7246   12.6150   24.5754 N   0  0  0  0  0  0  0  0  0  0  0  0
    6.7330   12.2019   25.4067 C   0  0  0  0  0  0  0  0  0  0  0  0
    5.8423   13.5515   25.9508 Cl  0  0  0  0  0  0  0  0  0  0  0  0
    8.8691    8.5085   23.6197 H   0  0  0  0  0  0  0  0  0  0  0  0
    4.3304    9.8745   28.8340 C   0  0  0  0  0  0  0  0  0  0  0  0
    2.5902   11.7650   28.8042 C   0  0  0  0  0  0  0  0  0  0  0  0
    2.8866   10.2910   28.5006 C   0  0  0  0  0  0  0  0  0  0  0  0
    1.8556    9.4429   29.2330 C   0  0  0  0  0  0  0  0  0  0  0  0
    2.2441    9.1338   30.4876 F   0  0  0  0  0  0  0  0  0  0  0  0
    1.5933    8.2876   28.5865 F   0  0  0  0  0  0  0  0  0  0  0  0
    0.6849   10.1160   29.3210 F   0  0  0  0  0  0  0  0  0  0  0  0
 16 15  1  0  0  0
 16 14  1  0  0  0
 14  1  1  0  0  0
  1  2  2  0  0  0
  1  3  1  0  0  0
  3  5  1  0  0  0
  5  6  2  0  0  0
  6  7  1  0  0  0
  7  8  1  0  0  0
  7  9  2  0  0  0
  9 10  1  0  0  0
 10 11  2  0  0  0
 11 12  1  0  0  0
 16 17  1  0  0  0
 17 18  1  0  0  0
 17 19  1  0  0  0
 17 20  1  0  0  0
 11  5  1  0  0  0
  3  4  1  0  0  0
  8 13  1  0  0  0
M  END
> <minimizedAffinity>
-4.83293

> <minimizedRMSD>
0.81641

$$$$
C51187-P481


 22 24  0  0  0  0  0  0  0  0999 V2000
   19.1762   -2.4707   25.1232 C   0  0  0  0  0  0  0  0  0  0  0  0
   18.7707   -3.3678   25.7465 O   0  0  0  0  0  0  0  0  0  0  0  0
   20.1102   -1.3125   25.5290 N   0  0  0  0  0  0  0  0  0  0  0  0
   20.3698   -0.7146   24.7912 H   0  0  0  0  0  0  0  0  0  0  0  0
   19.1916    1.5934   21.4808 C   0  0  0  0  0  0  0  0  0  0  0  0
   18.5498    0.3265   21.0772 C   0  0  0  0  0  0  0  0  0  0  0  0
   17.9129    0.0920   19.9459 N   0  0  0  0  0  0  0  0  0  0  0  0
   17.5249   -1.2286   19.9381 N   0  0  0  0  0  0  0  0  0  0  0  0
   17.9068   -1.7670   21.0751 C   0  0  0  0  0  0  0  0  0  0  0  0
   17.7716   -3.0730   21.6206 C   0  0  0  0  0  0  0  0  0  0  0  0
   18.1928   -3.3167   22.8778 C   0  0  0  0  0  0  0  0  0  0  0  0
   18.8053   -2.2661   23.6878 C   0  0  0  0  0  0  0  0  0  0  0  0
   18.9739   -1.0407   23.1568 C   0  0  0  0  0  0  0  0  0  0  0  0
   18.5296   -0.8062   21.8579 N   0  0  0  0  0  0  0  0  0  0  0  0
   20.6652   -0.9630   26.8131 C   0  0  0  0  0  0  0  0  0  0  0  0
   19.9488    0.2357   27.4462 C   0  0  0  0  0  0  0  0  0  0  0  0
   18.4752   -0.0738   27.7710 C   0  0  0  0  0  0  0  0  0  0  0  0
   17.9415    0.7647   28.9338 C   0  0  0  0  0  0  0  0  0  0  0  0
   18.6854    2.0877   29.0632 C   0  0  0  0  0  0  0  0  0  0  0  0
   20.1230    1.9231   29.2812 N   0  0  0  0  0  0  0  0  0  0  0  0
   20.6823    0.6933   28.7133 C   0  0  0  0  0  0  0  0  0  0  0  0
   20.2950    1.9177   30.2866 H   0  0  0  0  0  0  0  0  0  0  0  0
  5  6  1  0  0  0
  6  7  2  0  0  0
  7  8  1  0  0  0
  8  9  2  0  0  0
  9 10  1  0  0  0
 10 11  2  0  0  0
 11 12  1  0  0  0
 12  1  1  0  0  0
  1  2  2  0  0  0
  1  3  1  0  0  0
  3 15  1  0  0  0
 16 15  1  0  0  0
 16 17  1  0  0  0
 17 18  1  0  0  0
 18 19  1  0  0  0
 19 20  1  0  0  0
 20 21  1  0  0  0
 12 13  2  0  0  0
 13 14  1  0  0  0
 14  6  1  0  0  0
 14  9  1  0  0  0
 21 16  1  0  0  0
  3  4  1  0  0  0
 20 22  1  0  0  0
M  END
> <minimizedAffinity>
-4.57154

> <minimizedRMSD>
3.18391

$$$$
C95583-P404


 21 23  0  0  0  0  0  0  0  0999 V2000
   12.5574   15.3088   23.4804 C   0  0  0  0  0  0  0  0  0  0  0  0
   12.3871   16.0588   22.1681 C   0  0  0  0  0  0  0  0  0  0  0  0
   11.2840   15.5092   21.2714 C   0  0  0  0  0  0  0  0  0  0  0  0
   10.1468   14.9452   22.1033 C   0  0  0  0  0  0  0  0  0  0  0  0
   10.6312   13.8567   22.9467 N   0  0  0  0  0  0  0  0  0  0  0  0
   11.9024   13.9336   23.5451 C   0  0  0  0  0  0  0  0  0  0  0  0
   12.3593   13.0932   24.3236 O   0  0  0  0  0  0  0  0  0  0  0  0
    9.6865   12.9840   23.5482 C   0  0  0  0  0  0  0  0  0  0  0  0
    9.7641   11.6126   23.3345 C   0  0  0  0  0  0  0  0  0  0  0  0
    8.9305   10.7539   24.0362 C   0  0  0  0  0  0  0  0  0  0  0  0
    8.0522   11.2944   24.9557 C   0  0  0  0  0  0  0  0  0  0  0  0
    7.9246   12.6188   25.1746 N   0  0  0  0  0  0  0  0  0  0  0  0
    8.7226   13.4349   24.4455 C   0  0  0  0  0  0  0  0  0  0  0  0
   13.1675   15.2865   26.6628 O   0  0  0  0  0  0  0  0  0  0  0  0
   12.2617   15.7878   26.1364 C   0  0  0  0  0  0  0  0  0  0  0  0
   11.9100   15.8908   24.6487 N   0  0  0  0  0  0  0  0  0  0  0  0
   11.1174   16.4399   24.4498 H   0  0  0  0  0  0  0  0  0  0  0  0
   11.1205   16.3931   26.8844 C   0  0  0  0  0  0  0  0  0  0  0  0
   11.1631   17.3772   27.7993 C   0  0  0  0  0  0  0  0  0  0  0  0
    9.6815   17.2823   28.0965 C   0  0  0  0  0  0  0  0  0  0  0  0
    9.6722   16.0656   27.1427 C   0  0  0  0  0  0  0  0  0  0  0  0
 14 15  2  0  0  0
 15 16  1  0  0  0
  1 16  1  0  0  0
  1  2  1  0  0  0
  2  3  1  0  0  0
  3  4  1  0  0  0
  4  5  1  0  0  0
  5  8  1  0  0  0
  8  9  2  0  0  0
  9 10  1  0  0  0
 10 11  2  0  0  0
 11 12  1  0  0  0
 12 13  2  0  0  0
  5  6  1  0  0  0
  6  7  2  0  0  0
 15 18  1  0  0  0
 18 19  2  0  0  0
 19 20  1  0  0  0
 20 21  1  0  0  0
  6  1  1  0  0  0
 21 18  1  0  0  0
 13  8  1  0  0  0
 16 17  1  0  0  0
M  END
> <minimizedAffinity>
-6.91963

> <minimizedRMSD>
0.54983

$$$$
C53037-P106


 19 21  0  0  0  0  0  0  0  0999 V2000
   11.2452   11.2123   24.6360 C   0  0  0  0  0  0  0  0  0  0  0  0
   10.5501   10.0945   24.1599 C   0  0  0  0  0  0  0  0  0  0  0  0
    9.1621   10.0614   24.1858 C   0  0  0  0  0  0  0  0  0  0  0  0
    8.5210   11.1298   24.7900 C   0  0  0  0  0  0  0  0  0  0  0  0
    7.2229   11.3302   25.1629 N   0  0  0  0  0  0  0  0  0  0  0  0
    7.1286   12.5737   25.7079 C   0  0  0  0  0  0  0  0  0  0  0  0
    8.3034   13.1553   25.7740 N   0  0  0  0  0  0  0  0  0  0  0  0
    9.1791   12.2768   25.1965 C   0  0  0  0  0  0  0  0  0  0  0  0
   10.5677   12.3618   25.0660 C   0  0  0  0  0  0  0  0  0  0  0  0
    6.4845   10.6878   25.0563 H   0  0  0  0  0  0  0  0  0  0  0  0
   13.1743    9.9256   24.9253 O   0  0  0  0  0  0  0  0  0  0  0  0
   12.7076   11.0650   24.8654 C   0  0  0  0  0  0  0  0  0  0  0  0
   13.5485   12.3099   24.9953 C   0  0  0  0  0  0  0  0  0  0  0  0
   15.0190   12.0092   25.2990 C   0  0  0  0  0  0  0  0  0  0  0  0
   15.2483   11.5956   26.6941 N   0  0  0  0  0  0  0  0  0  0  0  0
   16.6943   11.5231   26.9760 C   0  0  0  0  0  0  0  0  0  0  0  0
   17.1160   12.9393   27.3280 C   0  0  0  0  0  0  0  0  0  0  0  0
   15.8524   13.6195   27.8174 C   0  0  0  0  0  0  0  0  0  0  0  0
   14.7692   12.5739   27.6832 C   0  0  0  0  0  0  0  0  0  0  0  0
 11 12  2  0  0  0
 12 13  1  0  0  0
 13 14  1  0  0  0
 14 15  1  0  0  0
 15 16  1  0  0  0
 16 17  1  0  0  0
 17 18  1  0  0  0
 18 19  1  0  0  0
 12  1  1  0  0  0
  1  2  2  0  0  0
  2  3  1  0  0  0
  3  4  2  0  0  0
  4  5  1  0  0  0
  5  6  1  0  0  0
  6  7  2  0  0  0
  7  8  1  0  0  0
  8  9  2  0  0  0
 19 15  1  0  0  0
  9  1  1  0  0  0
  8  4  1  0  0  0
  5 10  1  0  0  0
M  END
> <minimizedAffinity>
-5.93487

> <minimizedRMSD>
0.27269

$$$$
C68901-P103


 25 28  0  0  0  0  0  0  0  0999 V2000
   19.1163   -3.7766   20.6295 C   0  0  0  0  0  0  0  0  0  0  0  0
   18.0733   -4.4661   20.0403 C   0  0  0  0  0  0  0  0  0  0  0  0
   17.5166   -4.0054   18.8448 C   0  0  0  0  0  0  0  0  0  0  0  0
   18.1359   -2.9259   18.2264 C   0  0  0  0  0  0  0  0  0  0  0  0
   19.2320   -2.3457   18.8454 C   0  0  0  0  0  0  0  0  0  0  0  0
   19.7279   -2.7340   20.0427 N   0  0  0  0  0  0  0  0  0  0  0  0
   16.3323   -4.5932   18.3939 N   0  0  0  0  0  0  0  0  0  0  0  0
   15.3420   -3.7008   17.7720 C   0  0  0  0  0  0  0  0  0  0  0  0
   13.9967   -4.4137   17.5236 C   0  0  0  0  0  0  0  0  0  0  0  0
   14.1170   -5.7029   16.8189 N   0  0  0  0  0  0  0  0  0  0  0  0
   15.1119   -6.5597   17.4900 C   0  0  0  0  0  0  0  0  0  0  0  0
   16.4901   -5.8904   17.7115 C   0  0  0  0  0  0  0  0  0  0  0  0
   14.4114   -5.5347   15.8570 H   0  0  0  0  0  0  0  0  0  0  0  0
   17.6316   -5.0720   23.1716 O   0  0  0  0  0  0  0  0  0  0  0  0
   18.7555   -4.7471   23.0871 C   0  0  0  0  0  0  0  0  0  0  0  0
   19.5255   -4.0801   21.9127 N   0  0  0  0  0  0  0  0  0  0  0  0
   20.4565   -3.8339   22.1175 H   0  0  0  0  0  0  0  0  0  0  0  0
   19.8070   -4.8947   24.2729 C   0  0  0  0  0  0  0  0  0  0  0  0
   20.4064   -3.5568   24.6502 N   0  0  0  0  0  0  0  0  0  0  0  0
   19.5262   -3.5138   25.8485 C   0  0  0  0  0  0  0  0  0  0  0  0
   19.3430   -4.9992   25.7018 C   0  0  0  0  0  0  0  0  0  0  0  0
   18.0302   -5.6249   26.0949 C   0  0  0  0  0  0  0  0  0  0  0  0
   18.7361   -6.0710   27.4018 C   0  0  0  0  0  0  0  0  0  0  0  0
   20.0895   -5.9018   26.6637 C   0  0  0  0  0  0  0  0  0  0  0  0
   20.2291   -2.8137   23.9743 H   0  0  0  0  0  0  0  0  0  0  0  0
 14 15  2  0  0  0
 15 16  1  0  0  0
 16  1  1  0  0  0
  1  2  2  0  0  0
  2  3  1  0  0  0
  3  7  1  0  0  0
  7  8  1  0  0  0
  8  9  1  0  0  0
  9 10  1  0  0  0
 10 11  1  0  0  0
 11 12  1  0  0  0
  3  4  2  0  0  0
  4  5  1  0  0  0
  5  6  2  0  0  0
 18 15  1  0  0  0
 18 19  1  0  0  0
 19 20  1  0  0  0
 20 21  1  0  0  0
 21 22  1  0  0  0
 22 23  1  0  0  0
 23 24  1  0  0  0
  6  1  1  0  0  0
 21 18  1  0  0  0
 12  7  1  0  0  0
 24 21  1  0  0  0
 16 17  1  0  0  0
 10 13  1  0  0  0
 19 25  1  0  0  0
M  END
> <minimizedAffinity>
-4.49036

> <minimizedRMSD>
1.03914

$$$$
C11630-P405


 10 10  0  0  0  0  0  0  0  0999 V2000
    9.0737   10.9365   24.7726 C   0  0  0  0  0  0  0  0  0  0  0  0
    7.7525   10.5587   25.0943 C   0  0  0  0  0  0  0  0  0  0  0  0
    7.4575    9.3130   24.7110 N   0  0  0  0  0  0  0  0  0  0  0  0
    8.5961    8.8862   24.1223 N   0  0  0  0  0  0  0  0  0  0  0  0
    9.5807    9.8271   24.1281 C   0  0  0  0  0  0  0  0  0  0  0  0
    8.7029    7.9894   23.7304 H   0  0  0  0  0  0  0  0  0  0  0  0
    9.7947   12.1753   25.0294 C   0  0  0  0  0  0  0  0  0  0  0  0
   11.0163   12.2373   24.8941 O   0  0  0  0  0  0  0  0  0  0  0  0
    8.9437   14.4262   24.3533 C   0  0  0  0  0  0  0  0  0  0  0  0
    9.0158   13.3994   25.4678 C   0  0  0  0  0  0  0  0  0  0  0  0
  9 10  1  0  0  0
 10  7  1  0  0  0
  7  8  2  0  0  0
  7  1  1  0  0  0
  1  2  1  0  0  0
  2  3  2  0  0  0
  3  4  1  0  0  0
  4  5  1  0  0  0
  5  1  2  0  0  0
  4  6  1  0  0  0
M  END
> <minimizedAffinity>
-3.73636

> <minimizedRMSD>
1.84196

$$$$
C45658-P207


 17 19  0  0  0  0  0  0  0  0999 V2000
    7.7167   14.6148   21.4396 C   0  0  0  0  0  0  0  0  0  0  0  0
    7.3395   13.6795   22.3114 N   0  0  0  0  0  0  0  0  0  0  0  0
    8.3252   13.6797   23.2160 N   0  0  0  0  0  0  0  0  0  0  0  0
    9.2266   14.6825   23.0375 C   0  0  0  0  0  0  0  0  0  0  0  0
    8.9390   15.2253   21.8048 C   0  0  0  0  0  0  0  0  0  0  0  0
    9.7135   16.2457   21.0374 C   0  0  0  0  0  0  0  0  0  0  0  0
   11.1403   16.4606   21.5565 C   0  0  0  0  0  0  0  0  0  0  0  0
   12.0952   15.3562   21.1088 C   0  0  0  0  0  0  0  0  0  0  0  0
   12.0506   15.1928   19.5928 C   0  0  0  0  0  0  0  0  0  0  0  0
   10.6894   14.9285   19.1355 N   0  0  0  0  0  0  0  0  0  0  0  0
    9.7675   15.9978   19.5184 C   0  0  0  0  0  0  0  0  0  0  0  0
   10.3676   14.0526   19.5473 H   0  0  0  0  0  0  0  0  0  0  0  0
    8.5944   12.5030   24.0026 C   0  0  0  0  0  0  0  0  0  0  0  0
    7.3799   11.7901   24.5573 C   0  0  0  0  0  0  0  0  0  0  0  0
    7.7851   10.3337   24.6334 C   0  0  0  0  0  0  0  0  0  0  0  0
    9.0724   10.1486   23.8472 C   0  0  0  0  0  0  0  0  0  0  0  0
    9.3674   11.4757   23.1954 C   0  0  0  0  0  0  0  0  0  0  0  0
  1  2  2  0  0  0
  2  3  1  0  0  0
  3 13  1  0  0  0
 13 14  1  0  0  0
 14 15  1  0  0  0
 15 16  1  0  0  0
 16 17  1  0  0  0
  3  4  1  0  0  0
  4  5  2  0  0  0
  6  5  1  0  0  0
  6  7  1  0  0  0
  7  8  1  0  0  0
  8  9  1  0  0  0
  9 10  1  0  0  0
 10 11  1  0  0  0
  5  1  1  0  0  0
 11  6  1  0  0  0
 17 13  1  0  0  0
 10 12  1  0  0  0
M  END
> <minimizedAffinity>
-6.54250

> <minimizedRMSD>
1.43024

$$$$
C55769-P616


 18 20  0  0  0  0  0  0  0  0999 V2000
    0.3735   12.5097   19.9597 C   0  0  0  0  0  0  0  0  0  0  0  0
    0.9224   12.6844   21.1598 N   0  0  0  0  0  0  0  0  0  0  0  0
    1.1268   14.0139   21.2420 N   0  0  0  0  0  0  0  0  0  0  0  0
    0.6733   14.6756   20.1313 C   0  0  0  0  0  0  0  0  0  0  0  0
    0.1192   13.7260   19.2919 C   0  0  0  0  0  0  0  0  0  0  0  0
   -0.6509   13.8805   18.0094 C   0  0  0  0  0  0  0  0  0  0  0  0
   -0.5466   15.2713   17.3725 C   0  0  0  0  0  0  0  0  0  0  0  0
   -0.9810   15.2909   15.9056 C   0  0  0  0  0  0  0  0  0  0  0  0
   -1.8664   14.1045   15.5473 C   0  0  0  0  0  0  0  0  0  0  0  0
   -1.1914   12.8284   15.7672 N   0  0  0  0  0  0  0  0  0  0  0  0
   -0.3282   12.8003   16.9608 C   0  0  0  0  0  0  0  0  0  0  0  0
   -0.6148   12.6264   14.9504 H   0  0  0  0  0  0  0  0  0  0  0  0
    1.6359   14.6211   22.4746 C   0  0  0  0  0  0  0  0  0  0  0  0
    0.6443   15.6627   23.0291 C   0  0  0  0  0  0  0  0  0  0  0  0
    0.9508   16.0957   24.4605 C   0  0  0  0  0  0  0  0  0  0  0  0
    1.2442   14.9015   25.3478 C   0  0  0  0  0  0  0  0  0  0  0  0
    2.3382   14.1725   24.8006 O   0  0  0  0  0  0  0  0  0  0  0  0
    1.9969   13.5762   23.5420 C   0  0  0  0  0  0  0  0  0  0  0  0
  1  2  2  0  0  0
  2  3  1  0  0  0
 13  3  1  0  0  0
 13 14  1  0  0  0
 14 15  1  0  0  0
 15 16  1  0  0  0
 16 17  1  0  0  0
 17 18  1  0  0  0
  3  4  1  0  0  0
  4  5  2  0  0  0
  6  5  1  0  0  0
  6  7  1  0  0  0
  7  8  1  0  0  0
  8  9  1  0  0  0
  9 10  1  0  0  0
 10 11  1  0  0  0
  5  1  1  0  0  0
 11  6  1  0  0  0
 18 13  1  0  0  0
 10 12  1  0  0  0
M  END
> <minimizedAffinity>
-3.75395

> <minimizedRMSD>
0.36666

$$$$
C45903-P109


 23 25  0  0  0  0  0  0  0  0999 V2000
   25.9727   20.7165   21.2041 C   0  0  0  0  0  0  0  0  0  0  0  0
   25.8227   21.9199   21.8408 C   0  0  0  0  0  0  0  0  0  0  0  0
   26.7226   22.8896   21.4983 C   0  0  0  0  0  0  0  0  0  0  0  0
   27.6995   22.7127   20.5987 N   0  0  0  0  0  0  0  0  0  0  0  0
   27.7850   21.5143   19.9937 C   0  0  0  0  0  0  0  0  0  0  0  0
   26.9375   20.5088   20.2890 N   0  0  0  0  0  0  0  0  0  0  0  0
   28.7311   21.3528   18.9666 N   0  0  0  0  0  0  0  0  0  0  0  0
   30.0699   21.0405   19.4562 C   0  0  0  0  0  0  0  0  0  0  0  0
   30.9844   20.6383   18.3000 C   0  0  0  0  0  0  0  0  0  0  0  0
   30.9958   21.7050   17.2120 C   0  0  0  0  0  0  0  0  0  0  0  0
   29.5734   22.0080   16.7556 C   0  0  0  0  0  0  0  0  0  0  0  0
   28.6681   22.3834   17.9310 C   0  0  0  0  0  0  0  0  0  0  0  0
   25.0944   19.6715   21.3859 N   0  0  0  0  0  0  0  0  0  0  0  0
   24.8548   19.1337   20.5969 H   0  0  0  0  0  0  0  0  0  0  0  0
   24.4977   19.3067   22.6542 C   0  0  0  0  0  0  0  0  0  0  0  0
   25.3134   18.2343   23.3689 C   0  0  0  0  0  0  0  0  0  0  0  0
   24.9558   15.9495   23.9726 O   0  0  0  0  0  0  0  0  0  0  0  0
   24.4267   17.2690   24.1628 C   0  0  0  0  0  0  0  0  0  0  0  0
   25.0276   15.7636   23.0233 H   0  0  0  0  0  0  0  0  0  0  0  0
   24.3373   17.5029   25.6743 C   0  0  0  0  0  0  0  0  0  0  0  0
   24.9349   16.4659   26.6581 C   0  0  0  0  0  0  0  0  0  0  0  0
   26.0951   17.4427   26.9260 C   0  0  0  0  0  0  0  0  0  0  0  0
   25.2103   18.5743   26.3756 C   0  0  0  0  0  0  0  0  0  0  0  0
 18 17  1  0  0  0
 18 16  1  0  0  0
 16 15  1  0  0  0
 15 13  1  0  0  0
 13  1  1  0  0  0
  1  2  2  0  0  0
  2  3  1  0  0  0
  3  4  2  0  0  0
  4  5  1  0  0  0
  5  7  1  0  0  0
  7  8  1  0  0  0
  8  9  1  0  0  0
  9 10  1  0  0  0
 10 11  1  0  0  0
 11 12  1  0  0  0
  5  6  2  0  0  0
 18 20  1  0  0  0
 20 21  1  0  0  0
 21 22  1  0  0  0
 22 23  1  0  0  0
  6  1  1  0  0  0
 23 20  1  0  0  0
 12  7  1  0  0  0
 17 19  1  0  0  0
 13 14  1  0  0  0
M  END
> <minimizedAffinity>
-3.45781

> <minimizedRMSD>
1.60756

$$$$
C45903-P535


 23 25  0  0  0  0  0  0  0  0999 V2000
   26.6552   20.3006   21.3560 C   0  0  0  0  0  0  0  0  0  0  0  0
   25.7118   21.2740   21.1597 C   0  0  0  0  0  0  0  0  0  0  0  0
   26.1354   22.3677   20.4566 C   0  0  0  0  0  0  0  0  0  0  0  0
   27.3717   22.4977   19.9485 N   0  0  0  0  0  0  0  0  0  0  0  0
   28.2144   21.4630   20.0931 C   0  0  0  0  0  0  0  0  0  0  0  0
   27.8711   20.3660   20.7866 N   0  0  0  0  0  0  0  0  0  0  0  0
   29.5071   21.5534   19.5392 N   0  0  0  0  0  0  0  0  0  0  0  0
   30.3555   20.4198   19.9125 C   0  0  0  0  0  0  0  0  0  0  0  0
   31.7831   20.6121   19.4043 C   0  0  0  0  0  0  0  0  0  0  0  0
   31.8105   20.9202   17.9134 C   0  0  0  0  0  0  0  0  0  0  0  0
   30.9262   22.1244   17.6145 C   0  0  0  0  0  0  0  0  0  0  0  0
   29.4996   21.9065   18.1190 C   0  0  0  0  0  0  0  0  0  0  0  0
   26.4281   19.1807   22.1537 N   0  0  0  0  0  0  0  0  0  0  0  0
   26.9909   18.3772   22.0709 H   0  0  0  0  0  0  0  0  0  0  0  0
   25.3337   19.2336   23.1137 C   0  0  0  0  0  0  0  0  0  0  0  0
   25.5049   18.1241   24.1505 C   0  0  0  0  0  0  0  0  0  0  0  0
   25.2331   17.9426   26.5158 O   0  0  0  0  0  0  0  0  0  0  0  0
   24.5082   18.2135   25.3068 C   0  0  0  0  0  0  0  0  0  0  0  0
   25.9461   18.5924   26.6178 H   0  0  0  0  0  0  0  0  0  0  0  0
   23.3966   17.1781   25.1744 C   0  0  0  0  0  0  0  0  0  0  0  0
   22.4547   17.0235   26.4039 C   0  0  0  0  0  0  0  0  0  0  0  0
   21.3212   16.7285   25.4038 C   0  0  0  0  0  0  0  0  0  0  0  0
   22.1175   17.5565   24.3755 C   0  0  0  0  0  0  0  0  0  0  0  0
 18 17  1  0  0  0
 18 16  1  0  0  0
 16 15  1  0  0  0
 15 13  1  0  0  0
 13  1  1  0  0  0
  1  2  2  0  0  0
  2  3  1  0  0  0
  3  4  2  0  0  0
  4  5  1  0  0  0
  5  7  1  0  0  0
  7  8  1  0  0  0
  8  9  1  0  0  0
  9 10  1  0  0  0
 10 11  1  0  0  0
 11 12  1  0  0  0
  5  6  2  0  0  0
 18 20  1  0  0  0
 20 21  1  0  0  0
 21 22  1  0  0  0
 22 23  1  0  0  0
  6  1  1  0  0  0
 23 20  1  0  0  0
 12  7  1  0  0  0
 17 19  1  0  0  0
 13 14  1  0  0  0
M  END
> <minimizedAffinity>
-3.70012

> <minimizedRMSD>
0.76186

$$$$
C66335-P153


 21 23  0  0  0  0  0  0  0  0999 V2000
    9.1465   14.3396   23.5956 N   0  0  0  0  0  0  0  0  0  0  0  0
    9.7848   13.3194   24.4915 C   0  0  0  0  0  0  0  0  0  0  0  0
   10.7906   13.3641   25.1024 O   0  0  0  0  0  0  0  0  0  0  0  0
    9.6416   15.6810   23.1272 C   0  0  0  0  0  0  0  0  0  0  0  0
   11.1834   15.6535   23.1198 C   0  0  0  0  0  0  0  0  0  0  0  0
   11.7589   14.8776   21.9535 C   0  0  0  0  0  0  0  0  0  0  0  0
   11.2882   15.4421   20.6996 N   0  0  0  0  0  0  0  0  0  0  0  0
    9.8362   15.3355   20.5964 C   0  0  0  0  0  0  0  0  0  0  0  0
    9.1494   16.1001   21.7226 C   0  0  0  0  0  0  0  0  0  0  0  0
   11.7166   14.9371   19.9238 H   0  0  0  0  0  0  0  0  0  0  0  0
    9.0141   12.0569   24.5861 C   0  0  0  0  0  0  0  0  0  0  0  0
    9.3500   10.9359   23.8420 C   0  0  0  0  0  0  0  0  0  0  0  0
    8.7413    9.7452   24.2022 C   0  0  0  0  0  0  0  0  0  0  0  0
    7.8312    9.6255   25.2081 N   0  0  0  0  0  0  0  0  0  0  0  0
    7.4895   10.7307   25.9126 C   0  0  0  0  0  0  0  0  0  0  0  0
    8.0772   11.9568   25.6164 C   0  0  0  0  0  0  0  0  0  0  0  0
    6.5466   10.6105   27.0913 C   0  0  0  0  0  0  0  0  0  0  0  0
    5.2132   11.3090   27.0401 C   0  0  0  0  0  0  0  0  0  0  0  0
    5.2859    9.8077   27.0433 C   0  0  0  0  0  0  0  0  0  0  0  0
    6.8905   14.9411   24.0051 C   0  0  0  0  0  0  0  0  0  0  0  0
    8.2393   15.2238   24.3514 O   0  0  0  0  0  0  0  0  0  0  0  0
 20 21  1  0  0  0
 21  1  1  0  0  0
  1  2  1  0  0  0
  2  3  2  0  0  0
  2 11  1  0  0  0
 11 12  2  0  0  0
 12 13  1  0  0  0
 13 14  2  0  0  0
 14 15  1  0  0  0
 15 17  1  0  0  0
 17 18  1  0  0  0
 18 19  1  0  0  0
 15 16  2  0  0  0
  1  4  1  0  0  0
  4  5  1  0  0  0
  5  6  1  0  0  0
  6  7  1  0  0  0
  7  8  1  0  0  0
  8  9  1  0  0  0
 16 11  1  0  0  0
  9  4  1  0  0  0
 19 17  1  0  0  0
  7 10  1  0  0  0
M  END
> <minimizedAffinity>
-6.19594

> <minimizedRMSD>
0.69416

$$$$
C57914-P234


 23 24  0  0  0  0  0  0  0  0999 V2000
    6.6832   14.7017   22.6714 C   0  0  0  0  0  0  0  0  0  0  0  0
    6.8948   13.6685   22.1635 O   0  0  0  0  0  0  0  0  0  0  0  0
    7.4247   15.4250   23.8366 N   0  0  0  0  0  0  0  0  0  0  0  0
    7.0024   16.2619   24.1375 H   0  0  0  0  0  0  0  0  0  0  0  0
    5.5028   15.6084   22.3256 C   0  0  0  0  0  0  0  0  0  0  0  0
    4.1686   14.9079   22.4905 C   0  0  0  0  0  0  0  0  0  0  0  0
    2.7535   13.3618   19.6284 C   0  0  0  0  0  0  0  0  0  0  0  0
    2.0819   14.5582   19.6320 C   0  0  0  0  0  0  0  0  0  0  0  0
    2.5801   15.3625   20.6152 N   0  0  0  0  0  0  0  0  0  0  0  0
    3.4758   14.6091   21.2208 C   0  0  0  0  0  0  0  0  0  0  0  0
    3.6671   13.3871   20.6468 O   0  0  0  0  0  0  0  0  0  0  0  0
    3.6064   12.4718   17.5439 C   0  0  0  0  0  0  0  0  0  0  0  0
    2.7087   12.1683   18.7414 C   0  0  0  0  0  0  0  0  0  0  0  0
    1.2664   11.9396   18.2580 C   0  0  0  0  0  0  0  0  0  0  0  0
    3.1846   10.9193   19.4991 C   0  0  0  0  0  0  0  0  0  0  0  0
    8.6289   15.0673   24.5452 C   0  0  0  0  0  0  0  0  0  0  0  0
    9.5140   14.0147   23.8910 C   0  0  0  0  0  0  0  0  0  0  0  0
    9.2601   12.6121   24.1534 N   0  0  0  0  0  0  0  0  0  0  0  0
    9.8483   11.6568   23.2620 C   0  0  0  0  0  0  0  0  0  0  0  0
    9.4098   10.3311   23.7971 C   0  0  0  0  0  0  0  0  0  0  0  0
    8.1577   10.5974   24.5954 C   0  0  0  0  0  0  0  0  0  0  0  0
    8.2444   12.0610   24.9194 C   0  0  0  0  0  0  0  0  0  0  0  0
    7.5228   12.6098   25.7369 O   0  0  0  0  0  0  0  0  0  0  0  0
 12 13  1  0  0  0
 13 14  1  0  0  0
 13 15  1  0  0  0
 13  7  1  0  0  0
  7  8  2  0  0  0
  8  9  1  0  0  0
  9 10  2  0  0  0
 10  6  1  0  0  0
  6  5  1  0  0  0
  5  1  1  0  0  0
  1  2  2  0  0  0
  1  3  1  0  0  0
  3 16  1  0  0  0
 16 17  1  0  0  0
 17 18  1  0  0  0
 18 19  1  0  0  0
 19 20  1  0  0  0
 20 21  1  0  0  0
 21 22  1  0  0  0
 22 23  2  0  0  0
 10 11  1  0  0  0
 11  7  1  0  0  0
 22 18  1  0  0  0
  3  4  1  0  0  0
M  END
> <minimizedAffinity>
-6.45843

> <minimizedRMSD>
0.70312

$$$$
C57919-P234


 24 25  0  0  0  0  0  0  0  0999 V2000
    5.0264   15.2729   22.7961 N   0  0  0  0  0  0  0  0  0  0  0  0
    6.3134   14.6027   22.2666 C   0  0  0  0  0  0  0  0  0  0  0  0
    6.4469   13.6836   21.6088 O   0  0  0  0  0  0  0  0  0  0  0  0
    7.3673   15.4864   22.9762 N   0  0  0  0  0  0  0  0  0  0  0  0
    5.1708   16.1123   23.2897 H   0  0  0  0  0  0  0  0  0  0  0  0
    7.0027   16.2798   23.4311 H   0  0  0  0  0  0  0  0  0  0  0  0
    3.6555   14.8688   22.6842 C   0  0  0  0  0  0  0  0  0  0  0  0
    2.6994   13.4244   19.5921 C   0  0  0  0  0  0  0  0  0  0  0  0
    2.2076   14.6951   19.4372 C   0  0  0  0  0  0  0  0  0  0  0  0
    2.6075   15.4764   20.4829 N   0  0  0  0  0  0  0  0  0  0  0  0
    3.2346   14.6377   21.2851 C   0  0  0  0  0  0  0  0  0  0  0  0
    3.3694   13.3764   20.7812 O   0  0  0  0  0  0  0  0  0  0  0  0
    3.1830   10.9899   19.5505 C   0  0  0  0  0  0  0  0  0  0  0  0
    2.6827   12.2012   18.7463 C   0  0  0  0  0  0  0  0  0  0  0  0
    1.2509   11.9304   18.2636 C   0  0  0  0  0  0  0  0  0  0  0  0
    3.5865   12.4736   17.5455 C   0  0  0  0  0  0  0  0  0  0  0  0
    8.7953   15.3346   23.0779 C   0  0  0  0  0  0  0  0  0  0  0  0
    9.3750   13.9526   22.7763 C   0  0  0  0  0  0  0  0  0  0  0  0
    8.9738   12.8092   23.5768 N   0  0  0  0  0  0  0  0  0  0  0  0
    9.5838   11.5421   23.3053 C   0  0  0  0  0  0  0  0  0  0  0  0
    8.8519   10.5454   24.1537 C   0  0  0  0  0  0  0  0  0  0  0  0
    7.9829   11.3465   25.1000 C   0  0  0  0  0  0  0  0  0  0  0  0
    8.1883   12.7841   24.7126 C   0  0  0  0  0  0  0  0  0  0  0  0
    7.7412   13.7223   25.3541 O   0  0  0  0  0  0  0  0  0  0  0  0
 13 14  1  0  0  0
 14 15  1  0  0  0
 14 16  1  0  0  0
 14  8  1  0  0  0
  8  9  2  0  0  0
  9 10  1  0  0  0
 10 11  2  0  0  0
 11  7  1  0  0  0
  7  1  1  0  0  0
  1  2  1  0  0  0
  2  3  2  0  0  0
  2  4  1  0  0  0
  4 17  1  0  0  0
 17 18  1  0  0  0
 18 19  1  0  0  0
 19 20  1  0  0  0
 20 21  1  0  0  0
 21 22  1  0  0  0
 22 23  1  0  0  0
 23 24  2  0  0  0
 11 12  1  0  0  0
 12  8  1  0  0  0
 23 19  1  0  0  0
  1  5  1  0  0  0
  4  6  1  0  0  0
M  END
> <minimizedAffinity>
-6.50052

> <minimizedRMSD>
0.40553

$$$$
C45662-P439


 24 26  0  0  0  0  0  0  0  0999 V2000
    4.2655   14.7748    4.7414 O   0  0  0  0  0  0  0  0  0  0  0  0
    4.4691   13.7327    4.2518 C   0  0  0  0  0  0  0  0  0  0  0  0
    5.7812   12.8965    4.1682 N   0  0  0  0  0  0  0  0  0  0  0  0
    5.7130   12.0750    3.6301 H   0  0  0  0  0  0  0  0  0  0  0  0
    3.3563   12.9903    3.6603 C   0  0  0  0  0  0  0  0  0  0  0  0
    2.0276   13.4540    3.5087 C   0  0  0  0  0  0  0  0  0  0  0  0
    1.2084   12.5368    2.9915 N   0  0  0  0  0  0  0  0  0  0  0  0
    1.9943   11.4564    2.8280 N   0  0  0  0  0  0  0  0  0  0  0  0
    3.2951   11.6910    3.1911 C   0  0  0  0  0  0  0  0  0  0  0  0
    1.4635   10.1851    2.3555 C   0  0  0  0  0  0  0  0  0  0  0  0
   -0.0617   10.0752    2.4132 C   0  0  0  0  0  0  0  0  0  0  0  0
   -0.3886    9.4380    3.7648 C   0  0  0  0  0  0  0  0  0  0  0  0
    0.9246    8.8987    4.3276 C   0  0  0  0  0  0  0  0  0  0  0  0
    1.9367    8.9987    3.1935 C   0  0  0  0  0  0  0  0  0  0  0  0
    7.2425   13.1601    4.8245 S   0  0  0  0  0  0  0  0  0  0  0  0
    7.8571   11.8583    4.9373 O   0  0  0  0  0  0  0  0  0  0  0  0
    7.0839   13.9582    6.0260 O   0  0  0  0  0  0  0  0  0  0  0  0
    8.1613   14.1008    3.6265 C   0  0  0  0  0  0  0  0  0  0  0  0
    8.4551   15.5318    4.0411 C   0  0  0  0  0  0  0  0  0  0  0  0
    9.4251   16.1777    3.0507 C   0  0  0  0  0  0  0  0  0  0  0  0
    9.4036   15.5164    1.6650 C   0  0  0  0  0  0  0  0  0  0  0  0
    8.0702   15.0523    1.3052 N   0  0  0  0  0  0  0  0  0  0  0  0
    7.5245   14.0517    2.2379 C   0  0  0  0  0  0  0  0  0  0  0  0
    8.1132   14.6367    0.3747 H   0  0  0  0  0  0  0  0  0  0  0  0
  1  2  2  0  0  0
  2  3  1  0  0  0
  3 15  1  0  0  0
 15 16  2  0  0  0
 15 17  2  0  0  0
 18 15  1  0  0  0
 18 19  1  0  0  0
 19 20  1  0  0  0
 20 21  1  0  0  0
 21 22  1  0  0  0
 22 23  1  0  0  0
  2  5  1  0  0  0
  5  6  1  0  0  0
  6  7  2  0  0  0
  7  8  1  0  0  0
  8 10  1  0  0  0
 10 11  1  0  0  0
 11 12  1  0  0  0
 12 13  1  0  0  0
 13 14  1  0  0  0
  8  9  1  0  0  0
 23 18  1  0  0  0
  9  5  2  0  0  0
 14 10  1  0  0  0
  3  4  1  0  0  0
 22 24  1  0  0  0
M  END
> <minimizedAffinity>
-4.20254

> <minimizedRMSD>
1.42696

$$$$
C54524-P305


 16 17  0  0  0  0  0  0  0  0999 V2000
   10.0064   13.5817   24.8876 N   0  0  0  0  0  0  0  0  0  0  0  0
    9.8837   14.5183   25.2725 H   0  0  0  0  0  0  0  0  0  0  0  0
    9.0080   12.7158   25.5162 C   0  0  0  0  0  0  0  0  0  0  0  0
    8.5340   11.5139   24.7050 C   0  0  0  0  0  0  0  0  0  0  0  0
    7.6500   10.6459   25.5867 C   0  0  0  0  0  0  0  0  0  0  0  0
    6.4996   11.4196   26.2220 C   0  0  0  0  0  0  0  0  0  0  0  0
    6.9562   12.6060   26.9407 N   0  0  0  0  0  0  0  0  0  0  0  0
    7.7840   13.4730   26.0816 C   0  0  0  0  0  0  0  0  0  0  0  0
    7.5087   12.3132   27.7465 H   0  0  0  0  0  0  0  0  0  0  0  0
    9.5804   15.2063   21.6074 C   0  0  0  0  0  0  0  0  0  0  0  0
    8.9085   14.6063   22.8492 C   0  0  0  0  0  0  0  0  0  0  0  0
    9.9786   13.7002   23.4339 C   0  0  0  0  0  0  0  0  0  0  0  0
   11.2568   14.3523   22.9225 C   0  0  0  0  0  0  0  0  0  0  0  0
   10.9376   14.7529   21.5993 O   0  0  0  0  0  0  0  0  0  0  0  0
   10.2137   17.3508   20.3887 C   0  0  0  0  0  0  0  0  0  0  0  0
    9.5722   16.7334   21.6263 C   0  0  0  0  0  0  0  0  0  0  0  0
 15 16  1  0  0  0
 10 16  1  0  0  0
 10 11  1  0  0  0
 11 12  1  0  0  0
 12  1  1  0  0  0
  3  1  1  0  0  0
  3  4  1  0  0  0
  4  5  1  0  0  0
  5  6  1  0  0  0
  6  7  1  0  0  0
  7  8  1  0  0  0
 12 13  1  0  0  0
 13 14  1  0  0  0
 14 10  1  0  0  0
  8  3  1  0  0  0
  1  2  1  0  0  0
  7  9  1  0  0  0
M  END
> <minimizedAffinity>
-4.23750

> <minimizedRMSD>
0.67094

$$$$
C45982-P197


 23 26  0  0  0  0  0  0  0  0999 V2000
    8.9710   14.9830   26.4099 O   0  0  0  0  0  0  0  0  0  0  0  0
    9.3727   14.1945   25.2609 S   0  0  0  0  0  0  0  0  0  0  0  0
   10.6780   13.5688   25.2606 O   0  0  0  0  0  0  0  0  0  0  0  0
    8.1940   13.0437   25.0072 N   0  0  0  0  0  0  0  0  0  0  0  0
    6.9276   13.0598   25.7917 C   0  0  0  0  0  0  0  0  0  0  0  0
    6.6696   11.5923   26.1829 C   0  0  0  0  0  0  0  0  0  0  0  0
    7.5847   10.8521   25.2622 C   0  0  0  0  0  0  0  0  0  0  0  0
    7.6233    9.4991   25.0089 C   0  0  0  0  0  0  0  0  0  0  0  0
    8.5901    9.0225   24.1227 C   0  0  0  0  0  0  0  0  0  0  0  0
    9.5150    9.8783   23.5255 C   0  0  0  0  0  0  0  0  0  0  0  0
    9.4849   11.2370   23.8096 C   0  0  0  0  0  0  0  0  0  0  0  0
    8.5110   11.7040   24.6749 C   0  0  0  0  0  0  0  0  0  0  0  0
    9.2039   15.2262   23.8230 C   0  0  0  0  0  0  0  0  0  0  0  0
   10.0623   16.4623   23.9392 C   0  0  0  0  0  0  0  0  0  0  0  0
   11.5606   16.2112   23.7727 C   0  0  0  0  0  0  0  0  0  0  0  0
   11.9153   15.0236   22.8852 C   0  0  0  0  0  0  0  0  0  0  0  0
   10.8256   14.7878   21.9633 N   0  0  0  0  0  0  0  0  0  0  0  0
    9.4764   14.5517   22.4911 C   0  0  0  0  0  0  0  0  0  0  0  0
   11.0096   15.1584   20.6780 C   0  0  0  0  0  0  0  0  0  0  0  0
   12.1103   15.1407   19.9601 N   0  0  0  0  0  0  0  0  0  0  0  0
   11.7196   15.6140   18.7399 C   0  0  0  0  0  0  0  0  0  0  0  0
   10.3961   15.9442   18.7757 C   0  0  0  0  0  0  0  0  0  0  0  0
    9.9252   15.6423   20.0109 O   0  0  0  0  0  0  0  0  0  0  0  0
  1  2  2  0  0  0
  2  3  2  0  0  0
 13  2  1  0  0  0
 13 14  1  0  0  0
 14 15  1  0  0  0
 15 16  1  0  0  0
 16 17  1  0  0  0
 17 19  1  0  0  0
 19 20  2  0  0  0
 20 21  1  0  0  0
 21 22  2  0  0  0
 22 23  1  0  0  0
 17 18  1  0  0  0
  2  4  1  0  0  0
  4  5  1  0  0  0
  5  6  1  0  0  0
  6  7  1  0  0  0
  7  8  2  0  0  0
  8  9  1  0  0  0
  9 10  2  0  0  0
 10 11  1  0  0  0
 11 12  2  0  0  0
 18 13  1  0  0  0
 12  4  1  0  0  0
 23 19  1  0  0  0
 12  7  1  0  0  0
M  END
> <minimizedAffinity>
-6.91966

> <minimizedRMSD>
0.38426

$$$$
C65274-P174


 23 24  0  0  0  0  0  0  0  0999 V2000
    7.3136   11.4953   25.3591 C   0  0  0  0  0  0  0  0  0  0  0  0
    7.2650   10.1152   25.1460 C   0  0  0  0  0  0  0  0  0  0  0  0
    8.1369    9.5691   24.2203 C   0  0  0  0  0  0  0  0  0  0  0  0
    9.0461   10.2935   23.5358 N   0  0  0  0  0  0  0  0  0  0  0  0
    9.0957   11.6079   23.8107 C   0  0  0  0  0  0  0  0  0  0  0  0
    8.2963   12.2479   24.7289 C   0  0  0  0  0  0  0  0  0  0  0  0
    6.3454   11.8418   27.4020 O   0  0  0  0  0  0  0  0  0  0  0  0
    6.3236   12.1386   26.2754 C   0  0  0  0  0  0  0  0  0  0  0  0
    5.4320   13.1499   25.5248 N   0  0  0  0  0  0  0  0  0  0  0  0
    5.5576   13.1648   24.5485 H   0  0  0  0  0  0  0  0  0  0  0  0
    4.4451   14.0764   26.0206 C   0  0  0  0  0  0  0  0  0  0  0  0
    3.0562   13.4634   26.1291 C   0  0  0  0  0  0  0  0  0  0  0  0
    2.0771   13.9566   25.1778 N   0  0  0  0  0  0  0  0  0  0  0  0
    1.9169   13.5524   23.8825 C   0  0  0  0  0  0  0  0  0  0  0  0
    0.6997   14.0525   23.4881 C   0  0  0  0  0  0  0  0  0  0  0  0
    0.1457   14.8055   24.4878 N   0  0  0  0  0  0  0  0  0  0  0  0
    1.0034   14.7518   25.4829 C   0  0  0  0  0  0  0  0  0  0  0  0
   10.0727   12.3577   23.2095 O   0  0  0  0  0  0  0  0  0  0  0  0
    9.5047   13.5439   22.6402 C   0  0  0  0  0  0  0  0  0  0  0  0
   10.2678   14.7689   23.1137 C   0  0  0  0  0  0  0  0  0  0  0  0
   10.5673   14.6930   24.4298 F   0  0  0  0  0  0  0  0  0  0  0  0
    9.5242   15.8869   22.9337 F   0  0  0  0  0  0  0  0  0  0  0  0
   11.4240   14.9234   22.4370 F   0  0  0  0  0  0  0  0  0  0  0  0
  7  8  2  0  0  0
  8  9  1  0  0  0
  9 11  1  0  0  0
 11 12  1  0  0  0
 12 13  1  0  0  0
 13 14  1  0  0  0
 14 15  2  0  0  0
 15 16  1  0  0  0
 16 17  2  0  0  0
  8  1  1  0  0  0
  1  2  2  0  0  0
  2  3  1  0  0  0
  3  4  2  0  0  0
  4  5  1  0  0  0
  5 18  1  0  0  0
 18 19  1  0  0  0
 19 20  1  0  0  0
 20 21  1  0  0  0
 20 22  1  0  0  0
 20 23  1  0  0  0
  5  6  2  0  0  0
 17 13  1  0  0  0
  6  1  1  0  0  0
  9 10  1  0  0  0
M  END
> <minimizedAffinity>
-5.34472

> <minimizedRMSD>
1.63486

$$$$
C15317-P103


 24 27  0  0  0  0  0  0  0  0999 V2000
   19.5586   -2.5722   20.2491 N   0  0  0  0  0  0  0  0  0  0  0  0
   18.6052   -3.4828   20.9437 C   0  0  0  0  0  0  0  0  0  0  0  0
   17.9936   -4.5565   20.0140 C   0  0  0  0  0  0  0  0  0  0  0  0
   17.2994   -3.8771   18.9193 N   0  0  0  0  0  0  0  0  0  0  0  0
   18.2226   -3.0622   18.1153 C   0  0  0  0  0  0  0  0  0  0  0  0
   18.8996   -2.0148   19.0350 C   0  0  0  0  0  0  0  0  0  0  0  0
   16.2857   -4.5227   18.1998 C   0  0  0  0  0  0  0  0  0  0  0  0
   15.0759   -3.8068   17.9982 C   0  0  0  0  0  0  0  0  0  0  0  0
   13.9332   -4.3840   17.4468 C   0  0  0  0  0  0  0  0  0  0  0  0
   13.9318   -5.7238   17.0762 C   0  0  0  0  0  0  0  0  0  0  0  0
   15.1161   -6.4381   17.2573 C   0  0  0  0  0  0  0  0  0  0  0  0
   15.4105   -7.7539   17.0216 N   0  0  0  0  0  0  0  0  0  0  0  0
   16.6887   -8.0876   17.2598 N   0  0  0  0  0  0  0  0  0  0  0  0
   17.2108   -6.9461   17.7189 C   0  0  0  0  0  0  0  0  0  0  0  0
   16.2810   -5.8766   17.7745 C   0  0  0  0  0  0  0  0  0  0  0  0
   14.7406   -8.4016   16.7039 H   0  0  0  0  0  0  0  0  0  0  0  0
   19.0589   -0.3060   21.2595 C   0  0  0  0  0  0  0  0  0  0  0  0
   20.0272   -1.5005   21.1661 C   0  0  0  0  0  0  0  0  0  0  0  0
   21.3935   -0.9589   20.7552 C   0  0  0  0  0  0  0  0  0  0  0  0
   22.5329   -1.7655   20.8481 C   0  0  0  0  0  0  0  0  0  0  0  0
   23.7565   -1.2362   20.4672 C   0  0  0  0  0  0  0  0  0  0  0  0
   23.9235    0.0217   20.0076 N   0  0  0  0  0  0  0  0  0  0  0  0
   22.8130    0.7854   19.9227 C   0  0  0  0  0  0  0  0  0  0  0  0
   21.5473    0.3491   20.2796 C   0  0  0  0  0  0  0  0  0  0  0  0
 18 17  1  0  0  0
 18 19  1  0  0  0
 19 20  2  0  0  0
 20 21  1  0  0  0
 21 22  2  0  0  0
 22 23  1  0  0  0
 23 24  2  0  0  0
 18  1  1  0  0  0
  1  2  1  0  0  0
  2  3  1  0  0  0
  3  4  1  0  0  0
  4  7  1  0  0  0
  7  8  2  0  0  0
  8  9  1  0  0  0
  9 10  2  0  0  0
 10 11  1  0  0  0
 11 12  1  0  0  0
 12 13  1  0  0  0
 13 14  2  0  0  0
 14 15  1  0  0  0
  4  5  1  0  0  0
  5  6  1  0  0  0
 24 19  1  0  0  0
  6  1  1  0  0  0
 15  7  1  0  0  0
 15 11  2  0  0  0
 12 16  1  0  0  0
M  END
> <minimizedAffinity>
-5.09286

> <minimizedRMSD>
2.54455

$$$$
C71039-P103


 26 29  0  0  0  0  0  0  0  0999 V2000
   18.1560   -1.9831   20.7961 N   0  0  0  0  0  0  0  0  0  0  0  0
   17.8047   -1.1877   20.2629 H   0  0  0  0  0  0  0  0  0  0  0  0
   21.6923   -2.6860   18.8864 N   0  0  0  0  0  0  0  0  0  0  0  0
   20.8028   -1.5289   18.6032 C   0  0  0  0  0  0  0  0  0  0  0  0
   20.2911   -0.8769   19.8864 C   0  0  0  0  0  0  0  0  0  0  0  0
   19.6225   -1.8790   20.8403 C   0  0  0  0  0  0  0  0  0  0  0  0
   20.2854   -3.2676   20.7865 C   0  0  0  0  0  0  0  0  0  0  0  0
   21.7184   -3.1441   20.2825 C   0  0  0  0  0  0  0  0  0  0  0  0
   23.6417   -4.6336   16.3757 C   0  0  0  0  0  0  0  0  0  0  0  0
   23.3648   -3.8082   17.4627 C   0  0  0  0  0  0  0  0  0  0  0  0
   22.0416   -3.5212   17.8203 C   0  0  0  0  0  0  0  0  0  0  0  0
   21.0668   -4.1112   17.0037 C   0  0  0  0  0  0  0  0  0  0  0  0
   21.4307   -4.9175   15.9300 C   0  0  0  0  0  0  0  0  0  0  0  0
   22.7039   -5.1956   15.5939 N   0  0  0  0  0  0  0  0  0  0  0  0
   17.6046   -3.2008   20.1947 C   0  0  0  0  0  0  0  0  0  0  0  0
   17.2648   -3.0391   18.6964 C   0  0  0  0  0  0  0  0  0  0  0  0
   16.3014   -4.0603   18.1389 C   0  0  0  0  0  0  0  0  0  0  0  0
   14.9894   -3.6531   17.8454 C   0  0  0  0  0  0  0  0  0  0  0  0
   14.0292   -4.5688   17.4028 C   0  0  0  0  0  0  0  0  0  0  0  0
   14.3943   -5.9187   17.2627 C   0  0  0  0  0  0  0  0  0  0  0  0
   13.7724   -7.1254   16.8661 C   0  0  0  0  0  0  0  0  0  0  0  0
   14.6059   -8.1705   16.8532 N   0  0  0  0  0  0  0  0  0  0  0  0
   15.7620   -7.6384   17.2815 N   0  0  0  0  0  0  0  0  0  0  0  0
   15.7059   -6.2919   17.5212 C   0  0  0  0  0  0  0  0  0  0  0  0
   16.6902   -5.3924   17.9302 C   0  0  0  0  0  0  0  0  0  0  0  0
   16.5797   -8.1710   17.4118 H   0  0  0  0  0  0  0  0  0  0  0  0
  9 10  2  0  0  0
 10 11  1  0  0  0
 11  3  1  0  0  0
  3  4  1  0  0  0
  4  5  1  0  0  0
  5  6  1  0  0  0
  6  1  1  0  0  0
  1 15  1  0  0  0
 15 16  1  0  0  0
 16 17  1  0  0  0
 17 18  2  0  0  0
 18 19  1  0  0  0
 19 20  2  0  0  0
 20 21  1  0  0  0
 21 22  2  0  0  0
 22 23  1  0  0  0
 23 24  1  0  0  0
 24 25  2  0  0  0
  6  7  1  0  0  0
  7  8  1  0  0  0
 11 12  2  0  0  0
 12 13  1  0  0  0
 13 14  2  0  0  0
 14  9  1  0  0  0
  8  3  1  0  0  0
 25 17  1  0  0  0
 24 20  1  0  0  0
  1  2  1  0  0  0
 23 26  1  0  0  0
M  END
> <minimizedAffinity>
-5.10362

> <minimizedRMSD>
1.36106

$$$$
C3689-P239


 12 13  0  0  0  0  0  0  0  0999 V2000
    8.7932   11.1384   24.3683 C   0  0  0  0  0  0  0  0  0  0  0  0
    8.2308   12.1698   25.1099 C   0  0  0  0  0  0  0  0  0  0  0  0
    7.2418   11.8802   26.0467 C   0  0  0  0  0  0  0  0  0  0  0  0
    6.8426   10.5596   26.2062 C   0  0  0  0  0  0  0  0  0  0  0  0
    7.3763    9.5407   25.4959 N   0  0  0  0  0  0  0  0  0  0  0  0
    8.3364    9.8514   24.5919 C   0  0  0  0  0  0  0  0  0  0  0  0
    5.8562   10.1710   27.2002 C   0  0  0  0  0  0  0  0  0  0  0  0
    4.4783   10.2599   27.2345 C   0  0  0  0  0  0  0  0  0  0  0  0
    4.0862    9.6270   28.4266 C   0  0  0  0  0  0  0  0  0  0  0  0
    5.1345    9.1892   29.1266 N   0  0  0  0  0  0  0  0  0  0  0  0
    6.1832    9.5116   28.3504 N   0  0  0  0  0  0  0  0  0  0  0  0
    7.1118    9.2905   28.5916 H   0  0  0  0  0  0  0  0  0  0  0  0
  1  2  2  0  0  0
  2  3  1  0  0  0
  3  4  2  0  0  0
  4  7  1  0  0  0
  7  8  2  0  0  0
  8  9  1  0  0  0
  9 10  2  0  0  0
 10 11  1  0  0  0
  4  5  1  0  0  0
  5  6  2  0  0  0
  6  1  1  0  0  0
 11  7  1  0  0  0
 11 12  1  0  0  0
M  END
> <minimizedAffinity>
-4.11112

> <minimizedRMSD>
0.94949

$$$$
C46556-P493


 16 17  0  0  0  0  0  0  0  0999 V2000
    9.3753   12.5813   24.3701 C   0  0  0  0  0  0  0  0  0  0  0  0
    7.5934   13.1771   22.8739 O   0  0  0  0  0  0  0  0  0  0  0  0
    8.7843   13.3093   23.1680 C   0  0  0  0  0  0  0  0  0  0  0  0
    9.7126   14.1333   22.3672 C   0  0  0  0  0  0  0  0  0  0  0  0
   11.1395   14.2541   22.5573 C   0  0  0  0  0  0  0  0  0  0  0  0
   11.7139   14.9908   21.5444 C   0  0  0  0  0  0  0  0  0  0  0  0
   10.4768   15.5080   20.4876 S   0  0  0  0  0  0  0  0  0  0  0  0
    9.2316   14.8308   21.3335 N   0  0  0  0  0  0  0  0  0  0  0  0
    8.7459   11.2143   24.6378 C   0  0  0  0  0  0  0  0  0  0  0  0
    7.9080   11.1327   25.9219 C   0  0  0  0  0  0  0  0  0  0  0  0
    7.0656   12.3732   26.2410 C   0  0  0  0  0  0  0  0  0  0  0  0
    5.8370   12.0174   27.0828 C   0  0  0  0  0  0  0  0  0  0  0  0
    6.0789   10.7937   27.9630 C   0  0  0  0  0  0  0  0  0  0  0  0
    6.4520    9.5848   27.2209 N   0  0  0  0  0  0  0  0  0  0  0  0
    7.0477    9.8611   25.9124 C   0  0  0  0  0  0  0  0  0  0  0  0
    5.6139    9.0206   27.0811 H   0  0  0  0  0  0  0  0  0  0  0  0
  2  3  2  0  0  0
  3  1  1  0  0  0
  1  9  1  0  0  0
 10  9  1  0  0  0
 10 11  1  0  0  0
 11 12  1  0  0  0
 12 13  1  0  0  0
 13 14  1  0  0  0
 14 15  1  0  0  0
  3  4  1  0  0  0
  4  5  1  0  0  0
  5  6  2  0  0  0
  6  7  1  0  0  0
  7  8  1  0  0  0
 15 10  1  0  0  0
  8  4  2  0  0  0
 14 16  1  0  0  0
M  END
> <minimizedAffinity>
-4.80167

> <minimizedRMSD>
1.12677

$$$$
C46573-P493


 18 19  0  0  0  0  0  0  0  0999 V2000
    9.5405   13.3847   23.1752 C   0  0  0  0  0  0  0  0  0  0  0  0
    8.4458   13.3253   22.6150 O   0  0  0  0  0  0  0  0  0  0  0  0
   10.6268   15.1457   21.7234 N   0  0  0  0  0  0  0  0  0  0  0  0
   11.6836   15.9782   21.7169 N   0  0  0  0  0  0  0  0  0  0  0  0
   12.3318   15.6872   22.8336 C   0  0  0  0  0  0  0  0  0  0  0  0
   11.6395   14.7746   23.6293 C   0  0  0  0  0  0  0  0  0  0  0  0
   10.5433   14.3882   22.8757 C   0  0  0  0  0  0  0  0  0  0  0  0
   10.3265   15.6481   19.2711 C   0  0  0  0  0  0  0  0  0  0  0  0
    9.7566   15.0951   20.5686 C   0  0  0  0  0  0  0  0  0  0  0  0
    9.9079   12.3917   24.2778 C   0  0  0  0  0  0  0  0  0  0  0  0
    8.9226   11.2286   24.3619 C   0  0  0  0  0  0  0  0  0  0  0  0
    8.1296   11.1878   25.6709 C   0  0  0  0  0  0  0  0  0  0  0  0
    7.3365    9.8847   25.8329 C   0  0  0  0  0  0  0  0  0  0  0  0
    6.1410   10.0410   26.7717 C   0  0  0  0  0  0  0  0  0  0  0  0
    6.3643   11.1302   27.8141 C   0  0  0  0  0  0  0  0  0  0  0  0
    6.6772   12.4442   27.2514 N   0  0  0  0  0  0  0  0  0  0  0  0
    7.2188   12.4045   25.8854 C   0  0  0  0  0  0  0  0  0  0  0  0
    7.3654   12.8944   27.8548 H   0  0  0  0  0  0  0  0  0  0  0  0
  8  9  1  0  0  0
  9  3  1  0  0  0
  3  4  1  0  0  0
  4  5  2  0  0  0
  5  6  1  0  0  0
  6  7  2  0  0  0
  7  1  1  0  0  0
  1  2  2  0  0  0
  1 10  1  0  0  0
 10 11  1  0  0  0
 12 11  1  0  0  0
 12 13  1  0  0  0
 13 14  1  0  0  0
 14 15  1  0  0  0
 15 16  1  0  0  0
 16 17  1  0  0  0
  7  3  1  0  0  0
 17 12  1  0  0  0
 16 18  1  0  0  0
M  END
> <minimizedAffinity>
-5.07607

> <minimizedRMSD>
0.91496

$$$$
C9335-P174


 19 20  0  0  0  0  0  0  0  0999 V2000
    9.9449   13.5883   22.4565 N   0  0  0  0  0  0  0  0  0  0  0  0
    9.0494   13.6268   21.9698 H   0  0  0  0  0  0  0  0  0  0  0  0
    9.6518   13.2942   23.8644 C   0  0  0  0  0  0  0  0  0  0  0  0
    8.9502   11.9196   23.9953 C   0  0  0  0  0  0  0  0  0  0  0  0
    7.8525   11.6748   24.8348 C   0  0  0  0  0  0  0  0  0  0  0  0
    7.3785   10.3824   24.9935 C   0  0  0  0  0  0  0  0  0  0  0  0
    7.8930    9.3147   24.3648 N   0  0  0  0  0  0  0  0  0  0  0  0
    8.9071    9.5498   23.5130 C   0  0  0  0  0  0  0  0  0  0  0  0
    9.4459   10.8127   23.3015 C   0  0  0  0  0  0  0  0  0  0  0  0
    9.4724   15.1648   25.6434 C   0  0  0  0  0  0  0  0  0  0  0  0
    8.7892   14.3559   24.5827 C   0  0  0  0  0  0  0  0  0  0  0  0
   10.6747   14.8165   22.1044 C   0  0  0  0  0  0  0  0  0  0  0  0
   12.2101   14.6940   21.9952 C   0  0  0  0  0  0  0  0  0  0  0  0
   12.8056   15.7224   21.0794 C   0  0  0  0  0  0  0  0  0  0  0  0
   13.6516   16.7874   21.3189 C   0  0  0  0  0  0  0  0  0  0  0  0
   13.9276   17.4943   20.1771 N   0  0  0  0  0  0  0  0  0  0  0  0
   13.3250   16.8249   19.2221 C   0  0  0  0  0  0  0  0  0  0  0  0
   12.6467   15.7448   19.7142 N   0  0  0  0  0  0  0  0  0  0  0  0
   11.9048   14.8125   18.9079 C   0  0  0  0  0  0  0  0  0  0  0  0
 10 11  1  0  0  0
  3 11  1  0  0  0
  3  1  1  0  0  0
  1 12  1  0  0  0
 12 13  1  0  0  0
 13 14  1  0  0  0
 14 15  2  0  0  0
 15 16  1  0  0  0
 16 17  2  0  0  0
 17 18  1  0  0  0
 18 19  1  0  0  0
  3  4  1  0  0  0
  4  5  2  0  0  0
  5  6  1  0  0  0
  6  7  2  0  0  0
  7  8  1  0  0  0
  8  9  2  0  0  0
 18 14  1  0  0  0
  9  4  1  0  0  0
  1  2  1  0  0  0
M  END
> <minimizedAffinity>
-6.49461

> <minimizedRMSD>
0.41635

$$$$
C46353-P372


 20 22  0  0  0  0  0  0  0  0999 V2000
    6.1207   11.6637   26.8069 C   0  0  0  0  0  0  0  0  0  0  0  0
    6.4924   12.9349   26.3770 C   0  0  0  0  0  0  0  0  0  0  0  0
    7.4807   13.1375   25.3874 C   0  0  0  0  0  0  0  0  0  0  0  0
    8.1196   11.9701   24.9251 C   0  0  0  0  0  0  0  0  0  0  0  0
    9.1267   11.7685   24.0137 N   0  0  0  0  0  0  0  0  0  0  0  0
    9.5227   10.4884   23.9008 N   0  0  0  0  0  0  0  0  0  0  0  0
    8.6638    9.8294   24.6806 C   0  0  0  0  0  0  0  0  0  0  0  0
    7.7859   10.6944   25.3617 C   0  0  0  0  0  0  0  0  0  0  0  0
    6.7526   10.5331   26.2899 C   0  0  0  0  0  0  0  0  0  0  0  0
    9.5250   12.4991   23.4875 H   0  0  0  0  0  0  0  0  0  0  0  0
    7.8392   14.5292   24.9166 C   0  0  0  0  0  0  0  0  0  0  0  0
    7.1591   14.8759   23.6672 N   0  0  0  0  0  0  0  0  0  0  0  0
    6.8013   14.0179   23.2475 H   0  0  0  0  0  0  0  0  0  0  0  0
    6.0327   15.8136   23.8403 C   0  0  0  0  0  0  0  0  0  0  0  0
    6.0523   16.5450   25.1920 C   0  0  0  0  0  0  0  0  0  0  0  0
    4.7791   17.3677   25.3786 C   0  0  0  0  0  0  0  0  0  0  0  0
    3.5310   16.5077   25.2099 C   0  0  0  0  0  0  0  0  0  0  0  0
    3.5070   15.8436   23.9085 N   0  0  0  0  0  0  0  0  0  0  0  0
    4.7050   15.0222   23.7017 C   0  0  0  0  0  0  0  0  0  0  0  0
    3.4601   16.5518   23.1759 H   0  0  0  0  0  0  0  0  0  0  0  0
  1  2  2  0  0  0
  2  3  1  0  0  0
  3 11  1  0  0  0
 11 12  1  0  0  0
 14 12  1  0  0  0
 14 15  1  0  0  0
 15 16  1  0  0  0
 16 17  1  0  0  0
 17 18  1  0  0  0
 18 19  1  0  0  0
  3  4  2  0  0  0
  4  5  1  0  0  0
  5  6  1  0  0  0
  6  7  2  0  0  0
  7  8  1  0  0  0
  8  9  2  0  0  0
  9  1  1  0  0  0
 19 14  1  0  0  0
  8  4  1  0  0  0
 12 13  1  0  0  0
 18 20  1  0  0  0
  5 10  1  0  0  0
M  END
> <minimizedAffinity>
-4.34061

> <minimizedRMSD>
1.83568

$$$$
C47846-P481


 26 28  0  0  0  0  0  0  0  0999 V2000
    7.3264   14.7293    5.0898 N   0  0  0  0  0  0  0  0  0  0  0  0
    7.5412   13.6114    4.2605 C   0  0  0  0  0  0  0  0  0  0  0  0
    7.3400   12.3312    4.7557 C   0  0  0  0  0  0  0  0  0  0  0  0
    7.5992   11.2201    3.9602 C   0  0  0  0  0  0  0  0  0  0  0  0
    8.1127   11.3692    2.6649 C   0  0  0  0  0  0  0  0  0  0  0  0
    8.3757   12.6536    2.1449 C   0  0  0  0  0  0  0  0  0  0  0  0
    8.1384   13.7530    2.9990 C   0  0  0  0  0  0  0  0  0  0  0  0
    8.9172   12.8044    0.8544 N   0  0  0  0  0  0  0  0  0  0  0  0
    8.7996   11.6393   -0.0385 C   0  0  0  0  0  0  0  0  0  0  0  0
    9.2455   10.3743    0.6687 C   0  0  0  0  0  0  0  0  0  0  0  0
    8.3325   10.1188    1.8525 C   0  0  0  0  0  0  0  0  0  0  0  0
    6.9061   14.6138    5.9725 H   0  0  0  0  0  0  0  0  0  0  0  0
    7.5966   15.6262    4.7868 H   0  0  0  0  0  0  0  0  0  0  0  0
    8.7920   14.1166    0.1569 C   0  0  0  0  0  0  0  0  0  0  0  0
   10.1614   14.8018   -0.0898 C   0  0  0  0  0  0  0  0  0  0  0  0
   10.3489   15.5114   -0.9979 O   0  0  0  0  0  0  0  0  0  0  0  0
   11.1260   14.3164    1.0205 N   0  0  0  0  0  0  0  0  0  0  0  0
   10.7034   13.7757    1.7263 H   0  0  0  0  0  0  0  0  0  0  0  0
   12.5402   14.5276    1.1880 C   0  0  0  0  0  0  0  0  0  0  0  0
   13.3845   13.2653    0.9729 C   0  0  0  0  0  0  0  0  0  0  0  0
   12.5167   12.0361    0.6453 C   0  0  0  0  0  0  0  0  0  0  0  0
   13.2539   11.0131   -0.2182 C   0  0  0  0  0  0  0  0  0  0  0  0
   14.7506   11.0140    0.0689 C   0  0  0  0  0  0  0  0  0  0  0  0
   15.3895   12.3108   -0.1555 N   0  0  0  0  0  0  0  0  0  0  0  0
   14.4817   13.4598   -0.0803 C   0  0  0  0  0  0  0  0  0  0  0  0
   15.8131   12.3003   -1.0833 H   0  0  0  0  0  0  0  0  0  0  0  0
  1  2  1  0  0  0
  2  3  2  0  0  0
  3  4  1  0  0  0
  4  5  2  0  0  0
  5  6  1  0  0  0
  6  7  2  0  0  0
  6  8  1  0  0  0
  8 14  1  0  0  0
 14 15  1  0  0  0
 15 16  2  0  0  0
 15 17  1  0  0  0
 17 19  1  0  0  0
 20 19  1  0  0  0
 20 21  1  0  0  0
 21 22  1  0  0  0
 22 23  1  0  0  0
 23 24  1  0  0  0
 24 25  1  0  0  0
  8  9  1  0  0  0
  9 10  1  0  0  0
 10 11  1  0  0  0
  7  2  1  0  0  0
 25 20  1  0  0  0
 11  5  1  0  0  0
  1 12  1  0  0  0
  1 13  1  0  0  0
 17 18  1  0  0  0
 24 26  1  0  0  0
M  END
> <minimizedAffinity>
-3.28998

> <minimizedRMSD>
1.18312

$$$$
C47877-P481


 24 26  0  0  0  0  0  0  0  0999 V2000
    7.7118   15.9760    4.1192 N   0  0  0  0  0  0  0  0  0  0  0  0
    6.5148   16.9353    4.3245 C   0  0  0  0  0  0  0  0  0  0  0  0
    5.3676   16.7194    4.3502 O   0  0  0  0  0  0  0  0  0  0  0  0
    8.5895   16.4183    4.0625 H   0  0  0  0  0  0  0  0  0  0  0  0
    9.8353   15.2819    1.7893 C   0  0  0  0  0  0  0  0  0  0  0  0
    8.4365   14.8511    1.6445 N   0  0  0  0  0  0  0  0  0  0  0  0
    8.1182   14.2543    0.3336 C   0  0  0  0  0  0  0  0  0  0  0  0
    8.6959   12.8530    0.1985 C   0  0  0  0  0  0  0  0  0  0  0  0
    8.0910   11.9412    1.2529 C   0  0  0  0  0  0  0  0  0  0  0  0
    7.9237   12.6215    2.5859 C   0  0  0  0  0  0  0  0  0  0  0  0
    7.5794   11.8305    3.6904 C   0  0  0  0  0  0  0  0  0  0  0  0
    7.3563   12.4065    4.9371 C   0  0  0  0  0  0  0  0  0  0  0  0
    7.4304   13.7840    5.0942 C   0  0  0  0  0  0  0  0  0  0  0  0
    7.7493   14.5882    4.0015 C   0  0  0  0  0  0  0  0  0  0  0  0
    8.0389   14.0192    2.7347 C   0  0  0  0  0  0  0  0  0  0  0  0
    7.0345   18.3189    4.5332 C   0  0  0  0  0  0  0  0  0  0  0  0
    8.1656   18.5840    5.2077 C   0  0  0  0  0  0  0  0  0  0  0  0
    8.8174   19.9425    5.4200 C   0  0  0  0  0  0  0  0  0  0  0  0
   10.0690   19.8163    6.3164 C   0  0  0  0  0  0  0  0  0  0  0  0
   11.3863   19.9285    5.5454 C   0  0  0  0  0  0  0  0  0  0  0  0
   11.2440   19.4603    4.1039 C   0  0  0  0  0  0  0  0  0  0  0  0
   10.2772   20.2590    3.3524 N   0  0  0  0  0  0  0  0  0  0  0  0
    9.1565   20.7586    4.1530 C   0  0  0  0  0  0  0  0  0  0  0  0
    9.9005   19.6811    2.6011 H   0  0  0  0  0  0  0  0  0  0  0  0
  5  6  1  0  0  0
  6  7  1  0  0  0
  7  8  1  0  0  0
  8  9  1  0  0  0
  9 10  1  0  0  0
 10 11  2  0  0  0
 11 12  1  0  0  0
 12 13  2  0  0  0
 13 14  1  0  0  0
 14  1  1  0  0  0
  1  2  1  0  0  0
  2  3  2  0  0  0
  2 16  1  0  0  0
 16 17  2  0  0  0
 17 18  1  0  0  0
 18 19  1  0  0  0
 19 20  1  0  0  0
 20 21  1  0  0  0
 21 22  1  0  0  0
 22 23  1  0  0  0
 14 15  2  0  0  0
 15  6  1  0  0  0
 15 10  1  0  0  0
 23 18  1  0  0  0
  1  4  1  0  0  0
 22 24  1  0  0  0
M  END
> <minimizedAffinity>
-4.09970

> <minimizedRMSD>
3.19342

$$$$
C46339-P374


 19 21  0  0  0  0  0  0  0  0999 V2000
   19.0714   17.7486    2.3456 C   0  0  0  0  0  0  0  0  0  0  0  0
   19.8866   16.6270    2.1269 C   0  0  0  0  0  0  0  0  0  0  0  0
   19.3671   15.3858    2.4911 C   0  0  0  0  0  0  0  0  0  0  0  0
   19.9014   14.1246    2.4534 N   0  0  0  0  0  0  0  0  0  0  0  0
   19.0583   13.1613    2.8862 N   0  0  0  0  0  0  0  0  0  0  0  0
   17.9796   13.8475    3.2721 C   0  0  0  0  0  0  0  0  0  0  0  0
   18.1059   15.2352    3.0484 C   0  0  0  0  0  0  0  0  0  0  0  0
   17.3121   16.3768    3.2604 C   0  0  0  0  0  0  0  0  0  0  0  0
   17.7787   17.6491    2.8769 C   0  0  0  0  0  0  0  0  0  0  0  0
   20.8156   13.9374    2.1398 H   0  0  0  0  0  0  0  0  0  0  0  0
   16.9753   18.7548    3.1759 N   0  0  0  0  0  0  0  0  0  0  0  0
   16.6751   18.8911    4.1036 H   0  0  0  0  0  0  0  0  0  0  0  0
   16.5670   19.7181    2.1446 C   0  0  0  0  0  0  0  0  0  0  0  0
   15.0352   19.8503    2.0948 C   0  0  0  0  0  0  0  0  0  0  0  0
   14.5713   21.2380    1.6454 C   0  0  0  0  0  0  0  0  0  0  0  0
   15.6137   21.9326    0.7760 C   0  0  0  0  0  0  0  0  0  0  0  0
   16.8705   22.1593    1.4901 N   0  0  0  0  0  0  0  0  0  0  0  0
   17.2094   21.0947    2.4431 C   0  0  0  0  0  0  0  0  0  0  0  0
   16.7955   23.0380    2.0025 H   0  0  0  0  0  0  0  0  0  0  0  0
  1  2  2  0  0  0
  2  3  1  0  0  0
  3  4  1  0  0  0
  4  5  1  0  0  0
  5  6  2  0  0  0
  6  7  1  0  0  0
  7  8  1  0  0  0
  8  9  2  0  0  0
  9 11  1  0  0  0
 13 11  1  0  0  0
 13 14  1  0  0  0
 14 15  1  0  0  0
 15 16  1  0  0  0
 16 17  1  0  0  0
 17 18  1  0  0  0
  9  1  1  0  0  0
 18 13  1  0  0  0
  7  3  2  0  0  0
  4 10  1  0  0  0
 11 12  1  0  0  0
 17 19  1  0  0  0
M  END
> <minimizedAffinity>
-2.24741

> <minimizedRMSD>
2.14520

$$$$
C54239-P153


 15 16  0  0  0  0  0  0  0  0999 V2000
    9.1265   14.0619   25.4360 C   0  0  0  0  0  0  0  0  0  0  0  0
    9.4514   13.1139   24.2817 C   0  0  0  0  0  0  0  0  0  0  0  0
    8.9025   11.7075   24.4680 C   0  0  0  0  0  0  0  0  0  0  0  0
    9.4740   10.6419   23.7605 C   0  0  0  0  0  0  0  0  0  0  0  0
    9.0166    9.3595   24.0055 C   0  0  0  0  0  0  0  0  0  0  0  0
    8.0397    9.0767   24.8967 N   0  0  0  0  0  0  0  0  0  0  0  0
    7.4823   10.1075   25.5517 C   0  0  0  0  0  0  0  0  0  0  0  0
    7.8749   11.4180   25.3744 C   0  0  0  0  0  0  0  0  0  0  0  0
    8.9749   13.7688   22.9740 C   0  0  0  0  0  0  0  0  0  0  0  0
    7.8554   13.5248   22.5103 O   0  0  0  0  0  0  0  0  0  0  0  0
    9.9033   14.6810   22.2787 C   0  0  0  0  0  0  0  0  0  0  0  0
    9.5836   15.4414   21.0981 C   0  0  0  0  0  0  0  0  0  0  0  0
   10.6840   16.1218   20.6270 C   0  0  0  0  0  0  0  0  0  0  0  0
   11.9845   15.8094   21.6725 S   0  0  0  0  0  0  0  0  0  0  0  0
   11.1589   14.8334   22.7193 N   0  0  0  0  0  0  0  0  0  0  0  0
  2  1  1  0  0  0
  2  9  1  0  0  0
  9 10  2  0  0  0
  9 11  1  0  0  0
 11 12  1  0  0  0
 12 13  2  0  0  0
 13 14  1  0  0  0
 14 15  1  0  0  0
  2  3  1  0  0  0
  3  4  2  0  0  0
  4  5  1  0  0  0
  5  6  2  0  0  0
  6  7  1  0  0  0
  7  8  2  0  0  0
 15 11  2  0  0  0
  8  3  1  0  0  0
M  END
> <minimizedAffinity>
-5.96911

> <minimizedRMSD>
0.72982

$$$$
C60323-P153


 17 18  0  0  0  0  0  0  0  0999 V2000
    9.6058   13.1816   24.2156 N   0  0  0  0  0  0  0  0  0  0  0  0
   10.0101   13.7186   24.9349 H   0  0  0  0  0  0  0  0  0  0  0  0
    7.6336   10.3423   25.4291 C   0  0  0  0  0  0  0  0  0  0  0  0
    8.0864   11.6405   25.2825 C   0  0  0  0  0  0  0  0  0  0  0  0
    9.1270   11.8797   24.4015 C   0  0  0  0  0  0  0  0  0  0  0  0
    9.6259   10.8171   23.6510 C   0  0  0  0  0  0  0  0  0  0  0  0
    9.1497    9.5406   23.9025 C   0  0  0  0  0  0  0  0  0  0  0  0
    8.1656    9.2768   24.7932 N   0  0  0  0  0  0  0  0  0  0  0  0
    5.5260    9.9427   26.8669 N   0  0  0  0  0  0  0  0  0  0  0  0
    6.5163   10.1132   26.2872 C   0  0  0  0  0  0  0  0  0  0  0  0
    9.4426   13.6674   22.8313 C   0  0  0  0  0  0  0  0  0  0  0  0
   10.4916   14.5972   22.3232 C   0  0  0  0  0  0  0  0  0  0  0  0
   11.6307   15.0885   22.9318 C   0  0  0  0  0  0  0  0  0  0  0  0
   12.2568   15.8368   21.9708 N   0  0  0  0  0  0  0  0  0  0  0  0
   11.4757   15.8004   20.8501 C   0  0  0  0  0  0  0  0  0  0  0  0
   10.3982   15.0730   21.0362 N   0  0  0  0  0  0  0  0  0  0  0  0
   13.1126   16.3135   22.0692 H   0  0  0  0  0  0  0  0  0  0  0  0
  9 10  3  0  0  0
 10  3  1  0  0  0
  3  4  2  0  0  0
  4  5  1  0  0  0
  5  1  1  0  0  0
  1 11  1  0  0  0
 11 12  1  0  0  0
 12 13  2  0  0  0
 13 14  1  0  0  0
 14 15  1  0  0  0
 15 16  2  0  0  0
  5  6  2  0  0  0
  6  7  1  0  0  0
  7  8  2  0  0  0
  8  3  1  0  0  0
 16 12  1  0  0  0
  1  2  1  0  0  0
 14 17  1  0  0  0
M  END
> <minimizedAffinity>
-5.61327

> <minimizedRMSD>
0.60518

$$$$
C48580-P124


 14 15  0  0  0  0  0  0  0  0999 V2000
    8.1265   12.3609   25.7787 N   0  0  0  0  0  0  0  0  0  0  0  0
    8.7647   13.6598   25.5015 C   0  0  0  0  0  0  0  0  0  0  0  0
   10.1923   13.4260   25.0403 C   0  0  0  0  0  0  0  0  0  0  0  0
   10.0626   12.0584   24.4959 C   0  0  0  0  0  0  0  0  0  0  0  0
   10.9544   11.3746   23.6933 C   0  0  0  0  0  0  0  0  0  0  0  0
   10.6278   10.0786   23.3354 C   0  0  0  0  0  0  0  0  0  0  0  0
   11.7340    9.1204   22.1928 Br  0  0  0  0  0  0  0  0  0  0  0  0
    9.4674    9.4737   23.7867 C   0  0  0  0  0  0  0  0  0  0  0  0
    8.5969   10.1854   24.6020 C   0  0  0  0  0  0  0  0  0  0  0  0
    8.8708   11.4908   24.9487 C   0  0  0  0  0  0  0  0  0  0  0  0
    6.0522   13.7481   25.7741 C   0  0  0  0  0  0  0  0  0  0  0  0
    6.6564   12.3443   25.6863 C   0  0  0  0  0  0  0  0  0  0  0  0
    6.0526   11.5835   26.8372 C   0  0  0  0  0  0  0  0  0  0  0  0
    5.7561   10.3957   26.7881 O   0  0  0  0  0  0  0  0  0  0  0  0
 12 11  1  0  0  0
 12 13  1  0  0  0
 13 14  2  0  0  0
 12  1  1  0  0  0
  1  2  1  0  0  0
  2  3  1  0  0  0
  3  4  1  0  0  0
  4  5  2  0  0  0
  5  6  1  0  0  0
  6  7  1  0  0  0
  6  8  2  0  0  0
  8  9  1  0  0  0
  9 10  2  0  0  0
 10  1  1  0  0  0
 10  4  1  0  0  0
M  END
> <minimizedAffinity>
-4.44892

> <minimizedRMSD>
0.50833

$$$$
C45982-P173


 23 26  0  0  0  0  0  0  0  0999 V2000
    7.0882   13.7529   22.4928 O   0  0  0  0  0  0  0  0  0  0  0  0
    7.3040   14.3497   23.7954 S   0  0  0  0  0  0  0  0  0  0  0  0
    6.1663   14.8174   24.5663 O   0  0  0  0  0  0  0  0  0  0  0  0
    8.1377   13.1983   24.7346 N   0  0  0  0  0  0  0  0  0  0  0  0
    9.1289   12.3442   23.9757 C   0  0  0  0  0  0  0  0  0  0  0  0
    8.6219   10.8972   24.0361 C   0  0  0  0  0  0  0  0  0  0  0  0
    7.5501   10.9792   25.0673 C   0  0  0  0  0  0  0  0  0  0  0  0
    6.8220    9.9427   25.6119 C   0  0  0  0  0  0  0  0  0  0  0  0
    5.8098   10.2341   26.5305 C   0  0  0  0  0  0  0  0  0  0  0  0
    5.5493   11.5555   26.9067 C   0  0  0  0  0  0  0  0  0  0  0  0
    6.2964   12.5946   26.3576 C   0  0  0  0  0  0  0  0  0  0  0  0
    7.2739   12.2880   25.4228 C   0  0  0  0  0  0  0  0  0  0  0  0
    8.3990   15.7661   23.7386 C   0  0  0  0  0  0  0  0  0  0  0  0
    9.4369   15.8619   24.8659 C   0  0  0  0  0  0  0  0  0  0  0  0
   10.8561   15.4517   24.4850 C   0  0  0  0  0  0  0  0  0  0  0  0
   11.2425   15.9471   23.1045 C   0  0  0  0  0  0  0  0  0  0  0  0
   10.2501   15.4637   22.1550 N   0  0  0  0  0  0  0  0  0  0  0  0
    8.9227   16.0549   22.3492 C   0  0  0  0  0  0  0  0  0  0  0  0
   10.6842   15.5787   20.8849 C   0  0  0  0  0  0  0  0  0  0  0  0
   11.8170   15.1855   20.3722 N   0  0  0  0  0  0  0  0  0  0  0  0
   11.6949   15.4552   19.0592 C   0  0  0  0  0  0  0  0  0  0  0  0
   10.5738   16.1891   18.8668 C   0  0  0  0  0  0  0  0  0  0  0  0
    9.8742   16.2415   20.0164 O   0  0  0  0  0  0  0  0  0  0  0  0
  1  2  2  0  0  0
  2  3  2  0  0  0
 13  2  1  0  0  0
 13 14  1  0  0  0
 14 15  1  0  0  0
 15 16  1  0  0  0
 16 17  1  0  0  0
 17 19  1  0  0  0
 19 20  2  0  0  0
 20 21  1  0  0  0
 21 22  2  0  0  0
 22 23  1  0  0  0
 17 18  1  0  0  0
  2  4  1  0  0  0
  4  5  1  0  0  0
  5  6  1  0  0  0
  6  7  1  0  0  0
  7  8  2  0  0  0
  8  9  1  0  0  0
  9 10  2  0  0  0
 10 11  1  0  0  0
 11 12  2  0  0  0
 18 13  1  0  0  0
 12  4  1  0  0  0
 23 19  1  0  0  0
 12  7  1  0  0  0
M  END
> <minimizedAffinity>
-7.41432

> <minimizedRMSD>
0.69734

$$$$
C45874-P159


 19 20  0  0  0  0  0  0  0  0999 V2000
    8.0246   14.3931   24.1311 N   0  0  0  0  0  0  0  0  0  0  0  0
    7.3875   14.9874   24.5894 H   0  0  0  0  0  0  0  0  0  0  0  0
   10.1094   15.5544   21.4978 C   0  0  0  0  0  0  0  0  0  0  0  0
   11.3569   15.5670   21.9967 N   0  0  0  0  0  0  0  0  0  0  0  0
   11.4725   15.2135   23.2703 C   0  0  0  0  0  0  0  0  0  0  0  0
   10.3981   14.9062   24.0606 C   0  0  0  0  0  0  0  0  0  0  0  0
    9.1710   14.8361   23.4436 C   0  0  0  0  0  0  0  0  0  0  0  0
    8.9998   15.1783   22.1698 N   0  0  0  0  0  0  0  0  0  0  0  0
    9.9235   16.1157   20.1241 C   0  0  0  0  0  0  0  0  0  0  0  0
   11.3587   14.8860   18.7811 C   0  0  0  0  0  0  0  0  0  0  0  0
   10.0197   15.1502   19.0967 O   0  0  0  0  0  0  0  0  0  0  0  0
    7.9012   12.9243   24.0765 C   0  0  0  0  0  0  0  0  0  0  0  0
    8.2243   12.2501   25.4234 C   0  0  0  0  0  0  0  0  0  0  0  0
    9.7084   12.1146   25.7294 C   0  0  0  0  0  0  0  0  0  0  0  0
   10.4197   11.2902   24.6813 C   0  0  0  0  0  0  0  0  0  0  0  0
    9.7838    9.9091   24.5870 C   0  0  0  0  0  0  0  0  0  0  0  0
    8.3320    9.9386   24.5304 N   0  0  0  0  0  0  0  0  0  0  0  0
    7.6670   10.8264   25.4679 C   0  0  0  0  0  0  0  0  0  0  0  0
    7.9953    8.9921   24.7072 H   0  0  0  0  0  0  0  0  0  0  0  0
 10 11  1  0  0  0
 11  9  1  0  0  0
  9  3  1  0  0  0
  3  4  2  0  0  0
  4  5  1  0  0  0
  5  6  2  0  0  0
  6  7  1  0  0  0
  7  1  1  0  0  0
  1 12  1  0  0  0
 13 12  1  0  0  0
 13 14  1  0  0  0
 14 15  1  0  0  0
 15 16  1  0  0  0
 16 17  1  0  0  0
 17 18  1  0  0  0
  7  8  2  0  0  0
  8  3  1  0  0  0
 18 13  1  0  0  0
  1  2  1  0  0  0
 17 19  1  0  0  0
M  END
> <minimizedAffinity>
-5.17235

> <minimizedRMSD>
0.62152

$$$$
C3275-P159


 12 13  0  0  0  0  0  0  0  0999 V2000
    9.2672   10.6920   24.0572 C   0  0  0  0  0  0  0  0  0  0  0  0
    9.6197   11.9327   23.5668 C   0  0  0  0  0  0  0  0  0  0  0  0
    8.9089   13.0274   24.0122 C   0  0  0  0  0  0  0  0  0  0  0  0
    7.8801   12.8683   24.8600 N   0  0  0  0  0  0  0  0  0  0  0  0
    7.6128   11.6212   25.2784 C   0  0  0  0  0  0  0  0  0  0  0  0
    8.2691   10.5082   24.9328 N   0  0  0  0  0  0  0  0  0  0  0  0
    9.2513   14.3210   23.6610 N   0  0  0  0  0  0  0  0  0  0  0  0
    8.5618   14.9535   22.5352 C   0  0  0  0  0  0  0  0  0  0  0  0
    9.4347   14.9734   21.2812 C   0  0  0  0  0  0  0  0  0  0  0  0
   10.8321   15.5185   21.5494 C   0  0  0  0  0  0  0  0  0  0  0  0
   11.4881   14.7592   22.6934 C   0  0  0  0  0  0  0  0  0  0  0  0
   10.6111   14.7663   23.9400 C   0  0  0  0  0  0  0  0  0  0  0  0
  1  2  2  0  0  0
  2  3  1  0  0  0
  3  7  1  0  0  0
  7  8  1  0  0  0
  8  9  1  0  0  0
  9 10  1  0  0  0
 10 11  1  0  0  0
 11 12  1  0  0  0
  3  4  2  0  0  0
  4  5  1  0  0  0
  5  6  2  0  0  0
  6  1  1  0  0  0
 12  7  1  0  0  0
M  END
> <minimizedAffinity>
-5.01860

> <minimizedRMSD>
0.31917

$$$$
C46500-P219


 17 18  0  0  0  0  0  0  0  0999 V2000
   10.5325   13.0572   22.1856 N   0  0  0  0  0  0  0  0  0  0  0  0
   10.5244   12.6592   21.2852 H   0  0  0  0  0  0  0  0  0  0  0  0
    8.2869   15.1244   22.8231 Cl  0  0  0  0  0  0  0  0  0  0  0  0
    8.5857   13.6201   23.6057 C   0  0  0  0  0  0  0  0  0  0  0  0
    7.7300   13.2174   24.6229 C   0  0  0  0  0  0  0  0  0  0  0  0
    7.7506   11.9874   25.1820 N   0  0  0  0  0  0  0  0  0  0  0  0
    8.6220   11.1153   24.6404 C   0  0  0  0  0  0  0  0  0  0  0  0
    9.5459   11.4310   23.6579 C   0  0  0  0  0  0  0  0  0  0  0  0
    9.5635   12.7251   23.1410 C   0  0  0  0  0  0  0  0  0  0  0  0
   11.5572   14.0221   22.5855 C   0  0  0  0  0  0  0  0  0  0  0  0
   12.2477   14.6225   21.3498 C   0  0  0  0  0  0  0  0  0  0  0  0
   11.2464   15.0778   20.2793 C   0  0  0  0  0  0  0  0  0  0  0  0
   11.9733   15.7753   19.1339 C   0  0  0  0  0  0  0  0  0  0  0  0
   12.8117   16.9384   19.6532 C   0  0  0  0  0  0  0  0  0  0  0  0
   13.7703   16.5056   20.6706 N   0  0  0  0  0  0  0  0  0  0  0  0
   13.1081   15.8210   21.7788 C   0  0  0  0  0  0  0  0  0  0  0  0
   14.2603   17.3236   21.0327 H   0  0  0  0  0  0  0  0  0  0  0  0
  3  4  1  0  0  0
  4  5  2  0  0  0
  5  6  1  0  0  0
  6  7  2  0  0  0
  7  8  1  0  0  0
  8  9  2  0  0  0
  9  1  1  0  0  0
  1 10  1  0  0  0
 11 10  1  0  0  0
 11 12  1  0  0  0
 12 13  1  0  0  0
 13 14  1  0  0  0
 14 15  1  0  0  0
 15 16  1  0  0  0
  9  4  1  0  0  0
 16 11  1  0  0  0
  1  2  1  0  0  0
 15 17  1  0  0  0
M  END
> <minimizedAffinity>
-5.93259

> <minimizedRMSD>
0.81380

$$$$
C46501-P219


 18 19  0  0  0  0  0  0  0  0999 V2000
    9.8361   13.1850   22.9747 N   0  0  0  0  0  0  0  0  0  0  0  0
    9.5543   13.2657   22.0349 H   0  0  0  0  0  0  0  0  0  0  0  0
    8.9698   11.1862   24.1439 C   0  0  0  0  0  0  0  0  0  0  0  0
    8.0571   10.6989   25.0707 C   0  0  0  0  0  0  0  0  0  0  0  0
    7.2535   11.4597   25.8403 N   0  0  0  0  0  0  0  0  0  0  0  0
    7.3218   12.7825   25.6208 C   0  0  0  0  0  0  0  0  0  0  0  0
    8.1713   13.3687   24.6957 C   0  0  0  0  0  0  0  0  0  0  0  0
    9.0169   12.5628   23.9243 C   0  0  0  0  0  0  0  0  0  0  0  0
   10.2050    9.3305   22.8641 N   0  0  0  0  0  0  0  0  0  0  0  0
    9.7385   10.2146   23.4465 C   0  0  0  0  0  0  0  0  0  0  0  0
   11.1294   13.7134   23.4265 C   0  0  0  0  0  0  0  0  0  0  0  0
   11.4847   14.9578   22.5892 C   0  0  0  0  0  0  0  0  0  0  0  0
   11.0427   14.8205   21.1251 C   0  0  0  0  0  0  0  0  0  0  0  0
   11.4578   16.0514   20.3251 C   0  0  0  0  0  0  0  0  0  0  0  0
   12.9506   16.3257   20.4721 C   0  0  0  0  0  0  0  0  0  0  0  0
   13.3622   16.4231   21.8766 N   0  0  0  0  0  0  0  0  0  0  0  0
   12.9878   15.2247   22.6288 C   0  0  0  0  0  0  0  0  0  0  0  0
   12.9105   17.2343   22.2990 H   0  0  0  0  0  0  0  0  0  0  0  0
  9 10  3  0  0  0
 10  3  1  0  0  0
  3  4  2  0  0  0
  4  5  1  0  0  0
  5  6  2  0  0  0
  6  7  1  0  0  0
  7  8  2  0  0  0
  8  1  1  0  0  0
  1 11  1  0  0  0
 12 11  1  0  0  0
 12 13  1  0  0  0
 13 14  1  0  0  0
 14 15  1  0  0  0
 15 16  1  0  0  0
 16 17  1  0  0  0
  8  3  1  0  0  0
 17 12  1  0  0  0
  1  2  1  0  0  0
 16 18  1  0  0  0
M  END
> <minimizedAffinity>
-6.16941

> <minimizedRMSD>
0.31753

$$$$
C13204-P195


 15 15  0  0  0  0  0  0  0  0999 V2000
    8.5439   14.1980   24.4233 N   0  0  0  0  0  0  0  0  0  0  0  0
    7.7502   14.8385   24.4071 H   0  0  0  0  0  0  0  0  0  0  0  0
    8.1864   13.0760   25.3262 C   0  0  0  0  0  0  0  0  0  0  0  0
    7.1023   13.6159   26.2695 C   0  0  0  0  0  0  0  0  0  0  0  0
    6.5269   12.5544   27.1903 C   0  0  0  0  0  0  0  0  0  0  0  0
    6.1588   11.2898   26.4320 C   0  0  0  0  0  0  0  0  0  0  0  0
    7.2570   10.7791   25.6278 N   0  0  0  0  0  0  0  0  0  0  0  0
    7.7384   11.7677   24.6599 C   0  0  0  0  0  0  0  0  0  0  0  0
    6.9378    9.9526   25.1224 H   0  0  0  0  0  0  0  0  0  0  0  0
    8.9255   13.8398   22.8352 S   0  0  0  0  0  0  0  0  0  0  0  0
    7.6146   13.6303   22.2550 O   0  0  0  0  0  0  0  0  0  0  0  0
    9.9577   12.8317   22.8235 O   0  0  0  0  0  0  0  0  0  0  0  0
    9.5496   15.4059   22.2362 C   0  0  0  0  0  0  0  0  0  0  0  0
   11.9412   16.1089   21.8803 C   0  0  0  0  0  0  0  0  0  0  0  0
   10.8452   15.8463   22.8980 C   0  0  0  0  0  0  0  0  0  0  0  0
 14 15  1  0  0  0
 15 13  1  0  0  0
 13 10  1  0  0  0
 10 11  2  0  0  0
 10 12  2  0  0  0
 10  1  1  0  0  0
  3  1  1  0  0  0
  3  4  1  0  0  0
  4  5  1  0  0  0
  5  6  1  0  0  0
  6  7  1  0  0  0
  7  8  1  0  0  0
  8  3  1  0  0  0
  1  2  1  0  0  0
  7  9  1  0  0  0
M  END
> <minimizedAffinity>
-4.22002

> <minimizedRMSD>
0.87017

$$$$
C36518-P207


 14 14  0  0  0  0  0  0  0  0999 V2000
    9.5499   12.2598   23.9307 C   0  0  0  0  0  0  0  0  0  0  0  0
    7.3562   11.4483   24.2165 O   0  0  0  0  0  0  0  0  0  0  0  0
    8.4641   11.1951   23.9644 C   0  0  0  0  0  0  0  0  0  0  0  0
    9.1391    9.8413   23.6853 N   0  0  0  0  0  0  0  0  0  0  0  0
    8.5965    8.5737   23.5687 O   0  0  0  0  0  0  0  0  0  0  0  0
   10.1160    9.8836   23.5709 H   0  0  0  0  0  0  0  0  0  0  0  0
    7.6357    8.6205   23.6939 H   0  0  0  0  0  0  0  0  0  0  0  0
    9.3717   13.2269   22.7593 C   0  0  0  0  0  0  0  0  0  0  0  0
    9.5413   14.6261   23.1637 N   0  0  0  0  0  0  0  0  0  0  0  0
   10.8771   14.9930   23.6389 C   0  0  0  0  0  0  0  0  0  0  0  0
   11.9289   15.1143   22.5401 C   0  0  0  0  0  0  0  0  0  0  0  0
   11.4786   16.0954   21.4648 C   0  0  0  0  0  0  0  0  0  0  0  0
   10.0888   15.7272   20.9578 C   0  0  0  0  0  0  0  0  0  0  0  0
    9.0974   15.5669   22.1131 C   0  0  0  0  0  0  0  0  0  0  0  0
  2  3  2  0  0  0
  3  1  1  0  0  0
  1  8  1  0  0  0
  8  9  1  0  0  0
  9 10  1  0  0  0
 10 11  1  0  0  0
 11 12  1  0  0  0
 12 13  1  0  0  0
 13 14  1  0  0  0
  3  4  1  0  0  0
  4  5  1  0  0  0
 14  9  1  0  0  0
  4  6  1  0  0  0
  5  7  1  0  0  0
M  END
> <minimizedAffinity>
-5.33792

> <minimizedRMSD>
1.94241

$$$$
C63643-P219


 24 25  0  0  0  0  0  0  0  0999 V2000
   12.3160   12.9590   24.2192 O   0  0  0  0  0  0  0  0  0  0  0  0
   11.6404   13.6798   23.6543 C   0  0  0  0  0  0  0  0  0  0  0  0
   11.9872   14.9690   22.8703 N   0  0  0  0  0  0  0  0  0  0  0  0
   10.0921   13.7154   23.5299 N   0  0  0  0  0  0  0  0  0  0  0  0
   11.2095   15.4667   22.5286 H   0  0  0  0  0  0  0  0  0  0  0  0
    9.7424   14.4002   22.9151 H   0  0  0  0  0  0  0  0  0  0  0  0
    9.1270   12.9398   24.1442 C   0  0  0  0  0  0  0  0  0  0  0  0
    8.1589   13.7004   24.6986 N   0  0  0  0  0  0  0  0  0  0  0  0
    7.2578   13.1128   25.5121 C   0  0  0  0  0  0  0  0  0  0  0  0
    7.2507   11.7733   25.8073 C   0  0  0  0  0  0  0  0  0  0  0  0
    8.1736   10.9899   25.1450 C   0  0  0  0  0  0  0  0  0  0  0  0
    9.1277   11.5607   24.2748 C   0  0  0  0  0  0  0  0  0  0  0  0
    9.9037   10.6220   23.4045 C   0  0  0  0  0  0  0  0  0  0  0  0
    9.1936    9.4818   23.1885 F   0  0  0  0  0  0  0  0  0  0  0  0
   10.1427   11.1326   22.1791 F   0  0  0  0  0  0  0  0  0  0  0  0
   11.0920   10.2221   23.8713 F   0  0  0  0  0  0  0  0  0  0  0  0
   13.2552   15.5524   22.5629 C   0  0  0  0  0  0  0  0  0  0  0  0
   13.2044   16.9879   22.0820 C   0  0  0  0  0  0  0  0  0  0  0  0
   13.2708   17.0997   20.5649 C   0  0  0  0  0  0  0  0  0  0  0  0
   12.3292   16.2622   19.8585 N   0  0  0  0  0  0  0  0  0  0  0  0
   12.6521   15.3761   18.8798 C   0  0  0  0  0  0  0  0  0  0  0  0
   11.4703   14.8178   18.4756 C   0  0  0  0  0  0  0  0  0  0  0  0
   10.4884   15.4395   19.2657 C   0  0  0  0  0  0  0  0  0  0  0  0
   11.0035   16.3102   20.1374 N   0  0  0  0  0  0  0  0  0  0  0  0
  1  2  2  0  0  0
  2  3  1  0  0  0
  3 17  1  0  0  0
 17 18  1  0  0  0
 18 19  1  0  0  0
 19 20  1  0  0  0
 20 21  1  0  0  0
 21 22  2  0  0  0
 22 23  1  0  0  0
 23 24  2  0  0  0
  2  4  1  0  0  0
  4  7  1  0  0  0
  7  8  2  0  0  0
  8  9  1  0  0  0
  9 10  2  0  0  0
 10 11  1  0  0  0
 11 12  2  0  0  0
 12 13  1  0  0  0
 13 14  1  0  0  0
 13 15  1  0  0  0
 13 16  1  0  0  0
 24 20  1  0  0  0
 12  7  1  0  0  0
  3  5  1  0  0  0
  4  6  1  0  0  0
M  END
> <minimizedAffinity>
-6.04246

> <minimizedRMSD>
0.43507

$$$$
C102812-P76


 28 30  0  0  0  0  0  0  0  0999 V2000
   14.0142   14.7952    2.2321 C   0  0  0  0  0  0  0  0  0  0  0  0
   15.4521   14.7433    2.0801 N   0  0  0  0  0  0  0  0  0  0  0  0
   16.5379   14.1551    3.0073 C   0  0  0  0  0  0  0  0  0  0  0  0
   16.4377   13.5528    4.0003 O   0  0  0  0  0  0  0  0  0  0  0  0
   15.7939   15.1490    1.2507 H   0  0  0  0  0  0  0  0  0  0  0  0
   17.8898   14.5555    2.5179 C   0  0  0  0  0  0  0  0  0  0  0  0
   18.7524   13.6951    1.9370 N   0  0  0  0  0  0  0  0  0  0  0  0
   19.8844   14.4185    1.7646 N   0  0  0  0  0  0  0  0  0  0  0  0
   21.0821   13.7804    1.2610 C   0  0  0  0  0  0  0  0  0  0  0  0
   19.7729   15.7274    2.1612 C   0  0  0  0  0  0  0  0  0  0  0  0
   20.6786   16.7974    2.1437 C   0  0  0  0  0  0  0  0  0  0  0  0
   20.2538   18.0146    2.6806 C   0  0  0  0  0  0  0  0  0  0  0  0
   18.9816   18.1532    3.2260 C   0  0  0  0  0  0  0  0  0  0  0  0
   18.0921   17.0756    3.2413 C   0  0  0  0  0  0  0  0  0  0  0  0
   18.4872   15.8448    2.6787 C   0  0  0  0  0  0  0  0  0  0  0  0
   14.0086   16.6859    3.9611 C   0  0  0  0  0  0  0  0  0  0  0  0
   13.4866   16.2034    2.6098 C   0  0  0  0  0  0  0  0  0  0  0  0
   12.0309   16.2665    2.6136 N   0  0  0  0  0  0  0  0  0  0  0  0
   11.0027   15.8721    1.5205 C   0  0  0  0  0  0  0  0  0  0  0  0
   11.1672   15.5087    0.4224 O   0  0  0  0  0  0  0  0  0  0  0  0
   11.6355   16.6162    3.4446 H   0  0  0  0  0  0  0  0  0  0  0  0
    9.5910   15.9722    2.1369 C   0  0  0  0  0  0  0  0  0  0  0  0
    9.0167   14.6029    2.2821 C   0  0  0  0  0  0  0  0  0  0  0  0
    8.1096   14.0460    3.1596 C   0  0  0  0  0  0  0  0  0  0  0  0
    8.0391   12.6877    2.7914 C   0  0  0  0  0  0  0  0  0  0  0  0
    8.8159   12.4103    1.7434 N   0  0  0  0  0  0  0  0  0  0  0  0
    9.3652   13.5879    1.4257 N   0  0  0  0  0  0  0  0  0  0  0  0
    9.9617   13.7145    0.6527 H   0  0  0  0  0  0  0  0  0  0  0  0
 17 16  1  0  0  0
 17  1  1  0  0  0
  1  2  1  0  0  0
  2  3  1  0  0  0
  3  4  2  0  0  0
  3  6  1  0  0  0
  6  7  2  0  0  0
  7  8  1  0  0  0
  8  9  1  0  0  0
  8 10  1  0  0  0
 10 11  2  0  0  0
 11 12  1  0  0  0
 12 13  2  0  0  0
 13 14  1  0  0  0
 14 15  2  0  0  0
 17 18  1  0  0  0
 18 19  1  0  0  0
 19 20  2  0  0  0
 19 22  1  0  0  0
 22 23  1  0  0  0
 23 24  2  0  0  0
 24 25  1  0  0  0
 25 26  2  0  0  0
 26 27  1  0  0  0
 15  6  1  0  0  0
 27 23  1  0  0  0
 15 10  1  0  0  0
  2  5  1  0  0  0
 18 21  1  0  0  0
 27 28  1  0  0  0
M  END
> <minimizedAffinity>
-3.42738

> <minimizedRMSD>
0.70315

$$$$
C40513-P76


 29 31  0  0  0  0  0  0  0  0999 V2000
   14.7368   15.0142    3.2959 C   0  0  0  0  0  0  0  0  0  0  0  0
   14.4164   14.5553    4.3166 O   0  0  0  0  0  0  0  0  0  0  0  0
   13.9334   15.2276    2.0032 N   0  0  0  0  0  0  0  0  0  0  0  0
   14.4581   15.5701    1.2438 H   0  0  0  0  0  0  0  0  0  0  0  0
   15.6989   17.8508    3.5688 C   0  0  0  0  0  0  0  0  0  0  0  0
   16.6249   16.7195    3.2171 C   0  0  0  0  0  0  0  0  0  0  0  0
   17.9885   16.9848    2.9997 C   0  0  0  0  0  0  0  0  0  0  0  0
   18.9045   15.9678    2.6918 C   0  0  0  0  0  0  0  0  0  0  0  0
   18.4050   14.6666    2.5939 C   0  0  0  0  0  0  0  0  0  0  0  0
   19.0174   13.4652    2.3369 N   0  0  0  0  0  0  0  0  0  0  0  0
   18.1703   12.4157    2.3091 N   0  0  0  0  0  0  0  0  0  0  0  0
   16.9866   12.9618    2.5938 C   0  0  0  0  0  0  0  0  0  0  0  0
   17.0620   14.3599    2.7829 C   0  0  0  0  0  0  0  0  0  0  0  0
   16.1569   15.3938    3.0913 C   0  0  0  0  0  0  0  0  0  0  0  0
   19.9864   13.3775    2.1867 H   0  0  0  0  0  0  0  0  0  0  0  0
   12.5345   15.0078    1.7210 C   0  0  0  0  0  0  0  0  0  0  0  0
   11.6902   16.2901    1.7400 C   0  0  0  0  0  0  0  0  0  0  0  0
   11.7114   16.9677    3.1133 C   0  0  0  0  0  0  0  0  0  0  0  0
   10.2455   16.0012    1.2929 C   0  0  0  0  0  0  0  0  0  0  0  0
    9.5392   15.1021    2.1663 N   0  0  0  0  0  0  0  0  0  0  0  0
    8.4586   15.3802    3.2243 C   0  0  0  0  0  0  0  0  0  0  0  0
    8.0228   16.3887    3.6118 O   0  0  0  0  0  0  0  0  0  0  0  0
    9.7883   14.1544    2.0709 H   0  0  0  0  0  0  0  0  0  0  0  0
    8.0117   14.0754    3.7678 C   0  0  0  0  0  0  0  0  0  0  0  0
    7.5428   13.7922    5.0768 C   0  0  0  0  0  0  0  0  0  0  0  0
    7.3052   12.4399    5.0934 C   0  0  0  0  0  0  0  0  0  0  0  0
    7.6243   11.9860    3.8508 N   0  0  0  0  0  0  0  0  0  0  0  0
    8.0506   12.9524    3.0155 N   0  0  0  0  0  0  0  0  0  0  0  0
    7.5504   11.0403    3.5874 H   0  0  0  0  0  0  0  0  0  0  0  0
  5  6  1  0  0  0
  6  7  2  0  0  0
  7  8  1  0  0  0
  8  9  2  0  0  0
  9 10  1  0  0  0
 10 11  1  0  0  0
 11 12  2  0  0  0
 12 13  1  0  0  0
 13 14  2  0  0  0
 14  1  1  0  0  0
  1  2  2  0  0  0
  1  3  1  0  0  0
  3 16  1  0  0  0
 16 17  1  0  0  0
 17 18  1  0  0  0
 17 19  1  0  0  0
 19 20  1  0  0  0
 20 21  1  0  0  0
 21 22  2  0  0  0
 21 24  1  0  0  0
 24 25  1  0  0  0
 25 26  2  0  0  0
 26 27  1  0  0  0
 27 28  1  0  0  0
 14  6  1  0  0  0
 28 24  2  0  0  0
 13  9  1  0  0  0
 10 15  1  0  0  0
  3  4  1  0  0  0
 20 23  1  0  0  0
 27 29  1  0  0  0
M  END
> <minimizedAffinity>
-4.60245

> <minimizedRMSD>
1.99187

$$$$
C40525-P76


 28 30  0  0  0  0  0  0  0  0999 V2000
   12.3607   17.5656    2.1283 C   0  0  0  0  0  0  0  0  0  0  0  0
   12.9002   16.7040    3.2658 C   0  0  0  0  0  0  0  0  0  0  0  0
   14.3403   16.5478    3.1113 N   0  0  0  0  0  0  0  0  0  0  0  0
   15.3273   15.5990    3.8222 C   0  0  0  0  0  0  0  0  0  0  0  0
   15.1321   14.7410    4.5871 O   0  0  0  0  0  0  0  0  0  0  0  0
   14.7504   17.1449    2.4446 H   0  0  0  0  0  0  0  0  0  0  0  0
   16.7540   15.8049    3.3745 C   0  0  0  0  0  0  0  0  0  0  0  0
   17.3580   17.0736    3.2465 C   0  0  0  0  0  0  0  0  0  0  0  0
   18.6784   17.2126    2.8016 C   0  0  0  0  0  0  0  0  0  0  0  0
   19.4433   16.1020    2.4393 C   0  0  0  0  0  0  0  0  0  0  0  0
   18.8251   14.8525    2.5266 C   0  0  0  0  0  0  0  0  0  0  0  0
   19.2803   13.5939    2.2154 N   0  0  0  0  0  0  0  0  0  0  0  0
   18.3840   12.6181    2.4529 N   0  0  0  0  0  0  0  0  0  0  0  0
   17.3150   13.2794    2.9000 C   0  0  0  0  0  0  0  0  0  0  0  0
   17.5188   14.6786    2.9823 C   0  0  0  0  0  0  0  0  0  0  0  0
   20.1790   13.4218    1.8523 H   0  0  0  0  0  0  0  0  0  0  0  0
   12.5750   17.2611    4.6600 C   0  0  0  0  0  0  0  0  0  0  0  0
   11.1577   17.8063    4.8336 C   0  0  0  0  0  0  0  0  0  0  0  0
   10.1170   16.8210    4.6803 N   0  0  0  0  0  0  0  0  0  0  0  0
    8.5822   16.9683    4.7319 C   0  0  0  0  0  0  0  0  0  0  0  0
    7.9175   17.9212    4.8298 O   0  0  0  0  0  0  0  0  0  0  0  0
   10.4378   15.9049    4.5157 H   0  0  0  0  0  0  0  0  0  0  0  0
    7.9855   15.6104    4.7429 C   0  0  0  0  0  0  0  0  0  0  0  0
    6.9435   15.1415    5.5850 C   0  0  0  0  0  0  0  0  0  0  0  0
    6.8128   13.8062    5.2955 C   0  0  0  0  0  0  0  0  0  0  0  0
    7.7235   13.5432    4.3194 N   0  0  0  0  0  0  0  0  0  0  0  0
    8.4737   14.6096    3.9749 N   0  0  0  0  0  0  0  0  0  0  0  0
    7.8254   12.6568    3.9033 H   0  0  0  0  0  0  0  0  0  0  0  0
  2  1  1  0  0  0
  2 17  1  0  0  0
 17 18  1  0  0  0
 18 19  1  0  0  0
 19 20  1  0  0  0
 20 21  2  0  0  0
 20 23  1  0  0  0
 23 24  1  0  0  0
 24 25  2  0  0  0
 25 26  1  0  0  0
 26 27  1  0  0  0
  2  3  1  0  0  0
  3  4  1  0  0  0
  4  5  2  0  0  0
  4  7  1  0  0  0
  7  8  2  0  0  0
  8  9  1  0  0  0
  9 10  2  0  0  0
 10 11  1  0  0  0
 11 12  1  0  0  0
 12 13  1  0  0  0
 13 14  2  0  0  0
 14 15  1  0  0  0
 27 23  2  0  0  0
 15  7  1  0  0  0
 15 11  2  0  0  0
 19 22  1  0  0  0
 26 28  1  0  0  0
  3  6  1  0  0  0
 12 16  1  0  0  0
M  END
> <minimizedAffinity>
-4.77561

> <minimizedRMSD>
2.02710

$$$$
C40527-P76


 29 31  0  0  0  0  0  0  0  0999 V2000
   16.7480   16.2598    1.6628 C   0  0  0  0  0  0  0  0  0  0  0  0
   16.2969   15.9236    0.6444 O   0  0  0  0  0  0  0  0  0  0  0  0
   16.0581   16.6208    2.9861 N   0  0  0  0  0  0  0  0  0  0  0  0
   16.6627   16.9519    3.6891 H   0  0  0  0  0  0  0  0  0  0  0  0
   18.0043   18.7810    0.7651 C   0  0  0  0  0  0  0  0  0  0  0  0
   18.8252   17.6309    1.2853 C   0  0  0  0  0  0  0  0  0  0  0  0
   20.2237   17.7212    1.2415 C   0  0  0  0  0  0  0  0  0  0  0  0
   21.0423   16.6674    1.6596 C   0  0  0  0  0  0  0  0  0  0  0  0
   20.4143   15.5221    2.1561 C   0  0  0  0  0  0  0  0  0  0  0  0
   20.9282   14.3412    2.6311 N   0  0  0  0  0  0  0  0  0  0  0  0
   19.9910   13.4754    3.0652 N   0  0  0  0  0  0  0  0  0  0  0  0
   18.8426   14.0926    2.7723 C   0  0  0  0  0  0  0  0  0  0  0  0
   19.0314   15.3864    2.2299 C   0  0  0  0  0  0  0  0  0  0  0  0
   18.2204   16.4406    1.7547 C   0  0  0  0  0  0  0  0  0  0  0  0
   21.8926   14.1448    2.6527 H   0  0  0  0  0  0  0  0  0  0  0  0
   14.6610   16.5535    3.3693 C   0  0  0  0  0  0  0  0  0  0  0  0
   14.4387   15.3715    4.3015 C   0  0  0  0  0  0  0  0  0  0  0  0
   14.2209   17.8950    3.9796 C   0  0  0  0  0  0  0  0  0  0  0  0
   13.1204   18.6009    3.1866 C   0  0  0  0  0  0  0  0  0  0  0  0
   11.8433   17.9485    3.2556 N   0  0  0  0  0  0  0  0  0  0  0  0
   10.8802   17.7616    4.4384 C   0  0  0  0  0  0  0  0  0  0  0  0
   10.9327   18.1727    5.5269 O   0  0  0  0  0  0  0  0  0  0  0  0
   11.5342   17.5571    2.4068 H   0  0  0  0  0  0  0  0  0  0  0  0
    9.7888   16.8580    4.0065 C   0  0  0  0  0  0  0  0  0  0  0  0
    8.4987   16.7147    4.5814 C   0  0  0  0  0  0  0  0  0  0  0  0
    7.9019   15.6946    3.8825 C   0  0  0  0  0  0  0  0  0  0  0  0
    8.8128   15.2902    2.9558 N   0  0  0  0  0  0  0  0  0  0  0  0
    9.9657   15.9825    2.9937 N   0  0  0  0  0  0  0  0  0  0  0  0
    8.6439   14.5597    2.3177 H   0  0  0  0  0  0  0  0  0  0  0  0
  5  6  1  0  0  0
  6  7  2  0  0  0
  7  8  1  0  0  0
  8  9  2  0  0  0
  9 10  1  0  0  0
 10 11  1  0  0  0
 11 12  2  0  0  0
 12 13  1  0  0  0
 13 14  2  0  0  0
 14  1  1  0  0  0
  1  2  2  0  0  0
  1  3  1  0  0  0
  3 16  1  0  0  0
 16 17  1  0  0  0
 16 18  1  0  0  0
 18 19  1  0  0  0
 19 20  1  0  0  0
 20 21  1  0  0  0
 21 22  2  0  0  0
 21 24  1  0  0  0
 24 25  1  0  0  0
 25 26  2  0  0  0
 26 27  1  0  0  0
 27 28  1  0  0  0
 14  6  1  0  0  0
 28 24  2  0  0  0
 13  9  1  0  0  0
 10 15  1  0  0  0
  3  4  1  0  0  0
 20 23  1  0  0  0
 27 29  1  0  0  0
M  END
> <minimizedAffinity>
-3.60275

> <minimizedRMSD>
2.10902

$$$$
C102839-P76


 30 32  0  0  0  0  0  0  0  0999 V2000
   15.1249   18.7410    2.5468 O   0  0  0  0  0  0  0  0  0  0  0  0
   15.4407   18.5801    3.6605 C   0  0  0  0  0  0  0  0  0  0  0  0
   14.5898   18.6058    4.9630 N   0  0  0  0  0  0  0  0  0  0  0  0
   15.0805   18.3624    5.7810 H   0  0  0  0  0  0  0  0  0  0  0  0
   16.9059   18.3335    4.0592 C   0  0  0  0  0  0  0  0  0  0  0  0
   17.5658   17.1146    3.4433 C   0  0  0  0  0  0  0  0  0  0  0  0
   18.7852   17.2742    2.7580 C   0  0  0  0  0  0  0  0  0  0  0  0
   19.5086   16.1815    2.2593 C   0  0  0  0  0  0  0  0  0  0  0  0
   18.9678   14.9128    2.4790 C   0  0  0  0  0  0  0  0  0  0  0  0
   19.4276   13.6548    2.1800 N   0  0  0  0  0  0  0  0  0  0  0  0
   18.6027   12.6614    2.5748 N   0  0  0  0  0  0  0  0  0  0  0  0
   17.5848   13.3124    3.1420 C   0  0  0  0  0  0  0  0  0  0  0  0
   17.7585   14.7132    3.1326 C   0  0  0  0  0  0  0  0  0  0  0  0
   17.0456   15.8212    3.6250 C   0  0  0  0  0  0  0  0  0  0  0  0
   20.2820   13.4914    1.7190 H   0  0  0  0  0  0  0  0  0  0  0  0
   13.1913   18.9302    5.1673 C   0  0  0  0  0  0  0  0  0  0  0  0
   12.2753   17.6920    5.1463 C   0  0  0  0  0  0  0  0  0  0  0  0
   12.4826   16.9627    6.3772 O   0  0  0  0  0  0  0  0  0  0  0  0
   12.2677   17.5336    7.1314 H   0  0  0  0  0  0  0  0  0  0  0  0
   10.8000   18.1181    4.9661 C   0  0  0  0  0  0  0  0  0  0  0  0
    9.8753   17.0023    4.9582 N   0  0  0  0  0  0  0  0  0  0  0  0
    8.3427   16.9719    4.7820 C   0  0  0  0  0  0  0  0  0  0  0  0
    7.5748   17.8451    4.6925 O   0  0  0  0  0  0  0  0  0  0  0  0
   10.2930   16.1200    5.0862 H   0  0  0  0  0  0  0  0  0  0  0  0
    7.9020   15.5507    4.7683 C   0  0  0  0  0  0  0  0  0  0  0  0
    6.9271   14.9421    5.6029 C   0  0  0  0  0  0  0  0  0  0  0  0
    6.9300   13.6114    5.2633 C   0  0  0  0  0  0  0  0  0  0  0  0
    7.8492   13.4805    4.2682 N   0  0  0  0  0  0  0  0  0  0  0  0
    8.4746   14.6344    3.9528 N   0  0  0  0  0  0  0  0  0  0  0  0
    8.0401   12.6248    3.8205 H   0  0  0  0  0  0  0  0  0  0  0  0
  1  2  2  0  0  0
  2  5  1  0  0  0
  5  6  1  0  0  0
  6  7  2  0  0  0
  7  8  1  0  0  0
  8  9  2  0  0  0
  9 10  1  0  0  0
 10 11  1  0  0  0
 11 12  2  0  0  0
 12 13  1  0  0  0
 13 14  2  0  0  0
  2  3  1  0  0  0
  3 16  1  0  0  0
 16 17  1  0  0  0
 17 18  1  0  0  0
 17 20  1  0  0  0
 20 21  1  0  0  0
 21 22  1  0  0  0
 22 23  2  0  0  0
 22 25  1  0  0  0
 25 26  1  0  0  0
 26 27  2  0  0  0
 27 28  1  0  0  0
 28 29  1  0  0  0
 14  6  1  0  0  0
 29 25  2  0  0  0
 13  9  1  0  0  0
 10 15  1  0  0  0
  3  4  1  0  0  0
 18 19  1  0  0  0
 21 24  1  0  0  0
 28 30  1  0  0  0
M  END
> <minimizedAffinity>
-5.38522

> <minimizedRMSD>
1.62924

$$$$
C45903-P363


 23 25  0  0  0  0  0  0  0  0999 V2000
   27.1217   20.8813   20.7771 C   0  0  0  0  0  0  0  0  0  0  0  0
   26.4241   21.6686   19.8982 C   0  0  0  0  0  0  0  0  0  0  0  0
   27.1747   22.2855   18.9384 C   0  0  0  0  0  0  0  0  0  0  0  0
   28.5063   22.1526   18.8380 N   0  0  0  0  0  0  0  0  0  0  0  0
   29.1226   21.3379   19.7133 C   0  0  0  0  0  0  0  0  0  0  0  0
   28.4454   20.6735   20.6670 N   0  0  0  0  0  0  0  0  0  0  0  0
   30.5241   21.2266   19.6482 N   0  0  0  0  0  0  0  0  0  0  0  0
   31.1123   20.6271   20.8430 C   0  0  0  0  0  0  0  0  0  0  0  0
   32.6365   20.7092   20.7975 C   0  0  0  0  0  0  0  0  0  0  0  0
   33.1836   20.1134   19.5067 C   0  0  0  0  0  0  0  0  0  0  0  0
   32.5330   20.7843   18.3030 C   0  0  0  0  0  0  0  0  0  0  0  0
   31.0069   20.7060   18.3684 C   0  0  0  0  0  0  0  0  0  0  0  0
   26.4812   20.2378   21.8414 N   0  0  0  0  0  0  0  0  0  0  0  0
   26.9564   19.6260   22.4490 H   0  0  0  0  0  0  0  0  0  0  0  0
   25.0580   20.5361   21.9894 C   0  0  0  0  0  0  0  0  0  0  0  0
   24.2137   19.2691   21.8991 C   0  0  0  0  0  0  0  0  0  0  0  0
   22.9514   20.3841   23.6318 O   0  0  0  0  0  0  0  0  0  0  0  0
   22.8326   19.4756   22.5303 C   0  0  0  0  0  0  0  0  0  0  0  0
   23.5631   20.0170   24.2892 H   0  0  0  0  0  0  0  0  0  0  0  0
   21.8639   20.0791   21.5114 C   0  0  0  0  0  0  0  0  0  0  0  0
   20.8339   19.1166   20.8643 C   0  0  0  0  0  0  0  0  0  0  0  0
   19.8221   19.5578   21.9374 C   0  0  0  0  0  0  0  0  0  0  0  0
   20.6424   20.8502   22.0894 C   0  0  0  0  0  0  0  0  0  0  0  0
 18 17  1  0  0  0
 18 16  1  0  0  0
 16 15  1  0  0  0
 15 13  1  0  0  0
 13  1  1  0  0  0
  1  2  2  0  0  0
  2  3  1  0  0  0
  3  4  2  0  0  0
  4  5  1  0  0  0
  5  7  1  0  0  0
  7  8  1  0  0  0
  8  9  1  0  0  0
  9 10  1  0  0  0
 10 11  1  0  0  0
 11 12  1  0  0  0
  5  6  2  0  0  0
 18 20  1  0  0  0
 20 21  1  0  0  0
 21 22  1  0  0  0
 22 23  1  0  0  0
  6  1  1  0  0  0
 23 20  1  0  0  0
 12  7  1  0  0  0
 17 19  1  0  0  0
 13 14  1  0  0  0
M  END
> <minimizedAffinity>
-4.08507

> <minimizedRMSD>
2.79364

$$$$
C51842-P135


 13 13  0  0  0  0  0  0  0  0999 V2000
    9.0734   10.5699   24.0985 C   0  0  0  0  0  0  0  0  0  0  0  0
    8.2514    9.8717   24.9143 N   0  0  0  0  0  0  0  0  0  0  0  0
    7.2285   10.5544   25.4687 C   0  0  0  0  0  0  0  0  0  0  0  0
    6.9725   11.8877   25.2146 C   0  0  0  0  0  0  0  0  0  0  0  0
    7.8178   12.5727   24.3362 C   0  0  0  0  0  0  0  0  0  0  0  0
    8.9169   11.9007   23.8153 C   0  0  0  0  0  0  0  0  0  0  0  0
    9.8042   12.5019   23.0144 F   0  0  0  0  0  0  0  0  0  0  0  0
    9.9337    8.8011   22.8891 C   0  0  0  0  0  0  0  0  0  0  0  0
   10.2012    9.9999   23.5748 O   0  0  0  0  0  0  0  0  0  0  0  0
    7.5002   13.9807   23.9420 C   0  0  0  0  0  0  0  0  0  0  0  0
    6.1638   14.0975   23.2317 C   0  0  0  0  0  0  0  0  0  0  0  0
    8.5693   14.5817   23.0850 C   0  0  0  0  0  0  0  0  0  0  0  0
    8.9373   15.7368   23.2220 O   0  0  0  0  0  0  0  0  0  0  0  0
  8  9  1  0  0  0
  9  1  1  0  0  0
  1  2  2  0  0  0
  2  3  1  0  0  0
  3  4  2  0  0  0
  4  5  1  0  0  0
  5 10  1  0  0  0
 10 11  1  0  0  0
 10 12  1  0  0  0
 12 13  2  0  0  0
  5  6  2  0  0  0
  6  7  1  0  0  0
  6  1  1  0  0  0
M  END
> <minimizedAffinity>
-5.09526

> <minimizedRMSD>
0.92681

$$$$
C51851-P135


 13 13  0  0  0  0  0  0  0  0999 V2000
    9.4107   10.8398   24.0656 C   0  0  0  0  0  0  0  0  0  0  0  0
    8.3215   10.4952   24.8551 C   0  0  0  0  0  0  0  0  0  0  0  0
    7.4565   11.4893   25.2403 C   0  0  0  0  0  0  0  0  0  0  0  0
    7.5660   12.7505   24.8054 N   0  0  0  0  0  0  0  0  0  0  0  0
    8.6355   13.0574   24.0257 C   0  0  0  0  0  0  0  0  0  0  0  0
    8.4081   14.5852   23.2826 Cl  0  0  0  0  0  0  0  0  0  0  0  0
    9.6510   12.1694   23.6899 C   0  0  0  0  0  0  0  0  0  0  0  0
    9.7990    8.8053   22.9298 C   0  0  0  0  0  0  0  0  0  0  0  0
   10.3200    9.8998   23.6814 O   0  0  0  0  0  0  0  0  0  0  0  0
   10.9931   12.5220   23.0755 C   0  0  0  0  0  0  0  0  0  0  0  0
   12.0287   12.7604   24.1758 C   0  0  0  0  0  0  0  0  0  0  0  0
   11.0548   13.6885   22.1395 C   0  0  0  0  0  0  0  0  0  0  0  0
   11.8412   14.6170   22.3007 O   0  0  0  0  0  0  0  0  0  0  0  0
  8  9  1  0  0  0
  9  1  1  0  0  0
  1  2  2  0  0  0
  2  3  1  0  0  0
  3  4  2  0  0  0
  4  5  1  0  0  0
  5  6  1  0  0  0
  5  7  2  0  0  0
  7 10  1  0  0  0
 10 11  1  0  0  0
 10 12  1  0  0  0
 12 13  2  0  0  0
  7  1  1  0  0  0
M  END
> <minimizedAffinity>
-5.34957

> <minimizedRMSD>
0.34538

$$$$
C51859-P135


 14 14  0  0  0  0  0  0  0  0999 V2000
    9.4931   10.8302   24.0570 C   0  0  0  0  0  0  0  0  0  0  0  0
    8.3910   10.4893   24.8277 C   0  0  0  0  0  0  0  0  0  0  0  0
    7.5817   11.4989   25.2840 C   0  0  0  0  0  0  0  0  0  0  0  0
    7.7660   12.7795   24.9491 N   0  0  0  0  0  0  0  0  0  0  0  0
    8.8432   13.0904   24.1935 C   0  0  0  0  0  0  0  0  0  0  0  0
    8.7764   14.3716   23.7661 O   0  0  0  0  0  0  0  0  0  0  0  0
    9.8020   12.1720   23.7751 C   0  0  0  0  0  0  0  0  0  0  0  0
    8.1037   14.9385   24.0886 H   0  0  0  0  0  0  0  0  0  0  0  0
    9.7401    8.7450   22.9606 C   0  0  0  0  0  0  0  0  0  0  0  0
   10.3431    9.8817   23.5689 O   0  0  0  0  0  0  0  0  0  0  0  0
   11.1369   12.4735   23.1127 C   0  0  0  0  0  0  0  0  0  0  0  0
   12.1987   12.7850   24.1648 C   0  0  0  0  0  0  0  0  0  0  0  0
   11.1956   13.6024   22.1367 C   0  0  0  0  0  0  0  0  0  0  0  0
   11.4873   14.7447   22.4898 O   0  0  0  0  0  0  0  0  0  0  0  0
  9 10  1  0  0  0
 10  1  1  0  0  0
  1  2  2  0  0  0
  2  3  1  0  0  0
  3  4  2  0  0  0
  4  5  1  0  0  0
  5  6  1  0  0  0
  5  7  2  0  0  0
  7 11  1  0  0  0
 11 12  1  0  0  0
 11 13  1  0  0  0
 13 14  2  0  0  0
  7  1  1  0  0  0
  6  8  1  0  0  0
M  END
> <minimizedAffinity>
-5.32459

> <minimizedRMSD>
0.47431

$$$$
C51872-P391


 13 13  0  0  0  0  0  0  0  0999 V2000
    9.1505   10.7228   23.8341 C   0  0  0  0  0  0  0  0  0  0  0  0
    9.3451   12.0066   23.3543 C   0  0  0  0  0  0  0  0  0  0  0  0
    8.5643   13.0456   23.8625 C   0  0  0  0  0  0  0  0  0  0  0  0
    7.6901   12.7374   24.9095 C   0  0  0  0  0  0  0  0  0  0  0  0
    6.8172   13.9389   25.7754 Cl  0  0  0  0  0  0  0  0  0  0  0  0
    7.5317   11.4077   25.2789 C   0  0  0  0  0  0  0  0  0  0  0  0
    8.2460   10.3862   24.7684 N   0  0  0  0  0  0  0  0  0  0  0  0
   10.3857    8.7402   24.1190 C   0  0  0  0  0  0  0  0  0  0  0  0
    9.9576    9.7811   23.2734 O   0  0  0  0  0  0  0  0  0  0  0  0
    8.5180   14.3823   23.1505 C   0  0  0  0  0  0  0  0  0  0  0  0
    7.3541   14.3646   22.1558 C   0  0  0  0  0  0  0  0  0  0  0  0
    9.8109   14.7390   22.4451 C   0  0  0  0  0  0  0  0  0  0  0  0
    9.8811   15.1134   21.2795 O   0  0  0  0  0  0  0  0  0  0  0  0
  8  9  1  0  0  0
  9  1  1  0  0  0
  1  2  2  0  0  0
  2  3  1  0  0  0
  3 10  1  0  0  0
 10 11  1  0  0  0
 10 12  1  0  0  0
 12 13  2  0  0  0
  3  4  2  0  0  0
  4  5  1  0  0  0
  4  6  1  0  0  0
  6  7  2  0  0  0
  7  1  1  0  0  0
M  END
> <minimizedAffinity>
-3.58217

> <minimizedRMSD>
0.48502

$$$$
C51876-P135


 13 13  0  0  0  0  0  0  0  0999 V2000
    9.3337   10.7140   24.0748 C   0  0  0  0  0  0  0  0  0  0  0  0
    8.4999   10.1602   24.9861 N   0  0  0  0  0  0  0  0  0  0  0  0
    7.4951   10.9261   25.4390 C   0  0  0  0  0  0  0  0  0  0  0  0
    7.2277   12.1868   24.9485 C   0  0  0  0  0  0  0  0  0  0  0  0
    8.0552   12.7144   23.9484 C   0  0  0  0  0  0  0  0  0  0  0  0
    9.2194   12.0127   23.6128 C   0  0  0  0  0  0  0  0  0  0  0  0
   10.4726   12.7368   22.6812 Cl  0  0  0  0  0  0  0  0  0  0  0  0
    9.8828    8.8164   22.9050 C   0  0  0  0  0  0  0  0  0  0  0  0
   10.3664    9.9323   23.6441 O   0  0  0  0  0  0  0  0  0  0  0  0
    7.6534   13.9303   23.1473 C   0  0  0  0  0  0  0  0  0  0  0  0
    6.1835   14.3206   23.2511 C   0  0  0  0  0  0  0  0  0  0  0  0
    8.5328   15.1116   23.4026 C   0  0  0  0  0  0  0  0  0  0  0  0
    8.1563   16.2501   23.1440 O   0  0  0  0  0  0  0  0  0  0  0  0
  8  9  1  0  0  0
  9  1  1  0  0  0
  1  2  2  0  0  0
  2  3  1  0  0  0
  3  4  2  0  0  0
  4  5  1  0  0  0
  5 10  1  0  0  0
 10 11  1  0  0  0
 10 12  1  0  0  0
 12 13  2  0  0  0
  5  6  2  0  0  0
  6  7  1  0  0  0
  6  1  1  0  0  0
M  END
> <minimizedAffinity>
-5.32274

> <minimizedRMSD>
0.37881

$$$$
C45780-P328


 20 22  0  0  0  0  0  0  0  0999 V2000
    7.2665   13.4985   22.4210 O   0  0  0  0  0  0  0  0  0  0  0  0
    8.0903   14.3753   23.2304 S   0  0  0  0  0  0  0  0  0  0  0  0
    7.6249   15.6863   23.6284 O   0  0  0  0  0  0  0  0  0  0  0  0
    8.6371   13.5326   24.6421 N   0  0  0  0  0  0  0  0  0  0  0  0
    7.7919   13.8162   25.8607 C   0  0  0  0  0  0  0  0  0  0  0  0
    6.7478   12.6810   25.9018 C   0  0  0  0  0  0  0  0  0  0  0  0
    7.4977   11.5918   25.2083 C   0  0  0  0  0  0  0  0  0  0  0  0
    7.2337   10.2435   25.1532 C   0  0  0  0  0  0  0  0  0  0  0  0
    6.1839    9.7248   25.8017 F   0  0  0  0  0  0  0  0  0  0  0  0
    8.0983    9.4113   24.4477 C   0  0  0  0  0  0  0  0  0  0  0  0
    9.2259    9.9413   23.7989 C   0  0  0  0  0  0  0  0  0  0  0  0
    9.4666   11.3128   23.8076 C   0  0  0  0  0  0  0  0  0  0  0  0
    8.5853   12.1092   24.5112 C   0  0  0  0  0  0  0  0  0  0  0  0
    9.6287   14.5562   22.3641 C   0  0  0  0  0  0  0  0  0  0  0  0
   10.5915   15.5528   22.9995 C   0  0  0  0  0  0  0  0  0  0  0  0
   11.8620   15.5679   22.1655 C   0  0  0  0  0  0  0  0  0  0  0  0
   11.5713   15.9010   20.7055 C   0  0  0  0  0  0  0  0  0  0  0  0
   10.5961   14.9793   20.1175 N   0  0  0  0  0  0  0  0  0  0  0  0
    9.3578   14.9467   20.9115 C   0  0  0  0  0  0  0  0  0  0  0  0
   10.9982   14.0424   20.0877 H   0  0  0  0  0  0  0  0  0  0  0  0
  1  2  2  0  0  0
  2  3  2  0  0  0
 14  2  1  0  0  0
 14 15  1  0  0  0
 15 16  1  0  0  0
 16 17  1  0  0  0
 17 18  1  0  0  0
 18 19  1  0  0  0
  2  4  1  0  0  0
  4  5  1  0  0  0
  5  6  1  0  0  0
  6  7  1  0  0  0
  7  8  2  0  0  0
  8  9  1  0  0  0
  8 10  1  0  0  0
 10 11  2  0  0  0
 11 12  1  0  0  0
 12 13  2  0  0  0
 19 14  1  0  0  0
 13  4  1  0  0  0
 13  7  1  0  0  0
 18 20  1  0  0  0
M  END
> <minimizedAffinity>
-7.06831

> <minimizedRMSD>
1.43733

$$$$
C50807-P183


 22 23  0  0  0  0  0  0  0  0999 V2000
   10.2612   14.3222   25.3968 O   0  0  0  0  0  0  0  0  0  0  0  0
   10.2349   13.7138   24.4032 C   0  0  0  0  0  0  0  0  0  0  0  0
   11.0674   13.8645   23.1205 N   0  0  0  0  0  0  0  0  0  0  0  0
   10.9064   13.1706   22.4410 H   0  0  0  0  0  0  0  0  0  0  0  0
    9.3286   12.5225   24.3553 C   0  0  0  0  0  0  0  0  0  0  0  0
    8.2017   12.4804   25.1680 C   0  0  0  0  0  0  0  0  0  0  0  0
    7.6092   11.2540   25.3979 C   0  0  0  0  0  0  0  0  0  0  0  0
    8.0670   10.0923   24.8788 N   0  0  0  0  0  0  0  0  0  0  0  0
    9.1040   10.1550   23.9937 C   0  0  0  0  0  0  0  0  0  0  0  0
    9.7336   11.3580   23.7142 C   0  0  0  0  0  0  0  0  0  0  0  0
    9.6410    8.9229   23.2657 C   0  0  0  0  0  0  0  0  0  0  0  0
   10.0341    9.2353   22.0014 F   0  0  0  0  0  0  0  0  0  0  0  0
    8.7413    7.9321   23.1338 F   0  0  0  0  0  0  0  0  0  0  0  0
   10.7386    8.3813   23.8539 F   0  0  0  0  0  0  0  0  0  0  0  0
   12.0406   14.8508   22.7518 C   0  0  0  0  0  0  0  0  0  0  0  0
   12.1873   14.9518   21.2414 C   0  0  0  0  0  0  0  0  0  0  0  0
   10.9543   15.4098   20.5563 C   0  0  0  0  0  0  0  0  0  0  0  0
   10.5735   15.1964   19.2187 C   0  0  0  0  0  0  0  0  0  0  0  0
    9.4914   15.9034   18.8860 N   0  0  0  0  0  0  0  0  0  0  0  0
    9.2219   16.6226   19.9817 N   0  0  0  0  0  0  0  0  0  0  0  0
    9.9583   16.2205   21.0441 C   0  0  0  0  0  0  0  0  0  0  0  0
    8.5664   17.3565   20.0117 H   0  0  0  0  0  0  0  0  0  0  0  0
  1  2  2  0  0  0
  2  3  1  0  0  0
  3 15  1  0  0  0
 15 16  1  0  0  0
 16 17  1  0  0  0
 17 18  1  0  0  0
 18 19  2  0  0  0
 19 20  1  0  0  0
 20 21  1  0  0  0
  2  5  1  0  0  0
  5  6  2  0  0  0
  6  7  1  0  0  0
  7  8  2  0  0  0
  8  9  1  0  0  0
  9 11  1  0  0  0
 11 12  1  0  0  0
 11 13  1  0  0  0
 11 14  1  0  0  0
  9 10  2  0  0  0
 21 17  2  0  0  0
 10  5  1  0  0  0
  3  4  1  0  0  0
 20 22  1  0  0  0
M  END
> <minimizedAffinity>
-5.52456

> <minimizedRMSD>
0.26845

$$$$
C50814-P183


 21 22  0  0  0  0  0  0  0  0999 V2000
    9.9900   13.3823   24.3051 C   0  0  0  0  0  0  0  0  0  0  0  0
    9.8565   14.0031   25.2815 O   0  0  0  0  0  0  0  0  0  0  0  0
   10.8935   13.6218   23.0917 N   0  0  0  0  0  0  0  0  0  0  0  0
   10.7664   12.9852   22.3514 H   0  0  0  0  0  0  0  0  0  0  0  0
    6.5588   10.4888   26.1420 N   0  0  0  0  0  0  0  0  0  0  0  0
    7.6695   10.6589   25.3140 C   0  0  0  0  0  0  0  0  0  0  0  0
    8.1788   11.9249   25.1126 C   0  0  0  0  0  0  0  0  0  0  0  0
    9.2397   12.0893   24.2280 C   0  0  0  0  0  0  0  0  0  0  0  0
    9.6645   10.9955   23.4819 C   0  0  0  0  0  0  0  0  0  0  0  0
    9.1283    9.7585   23.7715 C   0  0  0  0  0  0  0  0  0  0  0  0
    8.1616    9.5806   24.6941 N   0  0  0  0  0  0  0  0  0  0  0  0
    6.1725   11.2625   26.6126 H   0  0  0  0  0  0  0  0  0  0  0  0
    6.1616    9.5951   26.2554 H   0  0  0  0  0  0  0  0  0  0  0  0
   11.8955   14.6228   22.8576 C   0  0  0  0  0  0  0  0  0  0  0  0
   12.1464   14.8840   21.3819 C   0  0  0  0  0  0  0  0  0  0  0  0
   10.9465   15.3477   20.6458 C   0  0  0  0  0  0  0  0  0  0  0  0
   10.6584   15.1967   19.2774 C   0  0  0  0  0  0  0  0  0  0  0  0
    9.5675   15.8739   18.9152 N   0  0  0  0  0  0  0  0  0  0  0  0
    9.1934   16.5135   20.0309 N   0  0  0  0  0  0  0  0  0  0  0  0
    9.8928   16.0953   21.1134 C   0  0  0  0  0  0  0  0  0  0  0  0
    8.4936   17.2052   20.0608 H   0  0  0  0  0  0  0  0  0  0  0  0
  5  6  1  0  0  0
  6  7  2  0  0  0
  7  8  1  0  0  0
  8  1  1  0  0  0
  1  2  2  0  0  0
  1  3  1  0  0  0
  3 14  1  0  0  0
 14 15  1  0  0  0
 15 16  1  0  0  0
 16 17  1  0  0  0
 17 18  2  0  0  0
 18 19  1  0  0  0
 19 20  1  0  0  0
  8  9  2  0  0  0
  9 10  1  0  0  0
 10 11  2  0  0  0
 11  6  1  0  0  0
 20 16  2  0  0  0
  5 12  1  0  0  0
  5 13  1  0  0  0
  3  4  1  0  0  0
 19 21  1  0  0  0
M  END
> <minimizedAffinity>
-5.75697

> <minimizedRMSD>
0.25944

$$$$
C66327-P229


 20 22  0  0  0  0  0  0  0  0999 V2000
   10.4171   13.0267   25.1838 O   0  0  0  0  0  0  0  0  0  0  0  0
    9.4450   12.9401   24.5529 C   0  0  0  0  0  0  0  0  0  0  0  0
    9.0686   13.5837   23.2173 N   0  0  0  0  0  0  0  0  0  0  0  0
    8.2053   13.2893   22.8469 H   0  0  0  0  0  0  0  0  0  0  0  0
    9.7787   14.5607   22.4046 C   0  0  0  0  0  0  0  0  0  0  0  0
   11.2785   14.2349   22.3568 C   0  0  0  0  0  0  0  0  0  0  0  0
   12.0132   15.1447   21.3892 C   0  0  0  0  0  0  0  0  0  0  0  0
   11.4159   15.0579   20.0684 N   0  0  0  0  0  0  0  0  0  0  0  0
   10.0306   15.5129   20.0768 C   0  0  0  0  0  0  0  0  0  0  0  0
    9.1916   14.6312   20.9965 C   0  0  0  0  0  0  0  0  0  0  0  0
   11.4441   14.0876   19.7551 H   0  0  0  0  0  0  0  0  0  0  0  0
    8.4182   11.9977   25.0302 C   0  0  0  0  0  0  0  0  0  0  0  0
    7.5468   12.4345   26.0313 C   0  0  0  0  0  0  0  0  0  0  0  0
    6.7195   11.5112   26.6511 C   0  0  0  0  0  0  0  0  0  0  0  0
    6.8094   10.1927   26.2499 C   0  0  0  0  0  0  0  0  0  0  0  0
    7.6437    9.7502   25.2776 N   0  0  0  0  0  0  0  0  0  0  0  0
    8.4577   10.6482   24.6431 C   0  0  0  0  0  0  0  0  0  0  0  0
    9.4020   10.1556   23.5495 C   0  0  0  0  0  0  0  0  0  0  0  0
    9.5525    8.6983   23.1985 C   0  0  0  0  0  0  0  0  0  0  0  0
   10.6499    9.3755   23.8938 C   0  0  0  0  0  0  0  0  0  0  0  0
  1  2  2  0  0  0
  2  3  1  0  0  0
  3  5  1  0  0  0
  5  6  1  0  0  0
  6  7  1  0  0  0
  7  8  1  0  0  0
  8  9  1  0  0  0
  9 10  1  0  0  0
  2 12  1  0  0  0
 12 13  2  0  0  0
 13 14  1  0  0  0
 14 15  2  0  0  0
 15 16  1  0  0  0
 16 17  2  0  0  0
 17 18  1  0  0  0
 18 19  1  0  0  0
 19 20  1  0  0  0
 10  5  1  0  0  0
 17 12  1  0  0  0
 20 18  1  0  0  0
  3  4  1  0  0  0
  8 11  1  0  0  0
M  END
> <minimizedAffinity>
-5.21781

> <minimizedRMSD>
0.61500

$$$$
C51400-P344


 20 20  0  0  0  0  0  0  0  0999 V2000
    9.7076   12.9205   23.6831 N   0  0  0  0  0  0  0  0  0  0  0  0
   10.1482   14.3975   23.5544 C   0  0  0  0  0  0  0  0  0  0  0  0
    9.9276   15.3138   24.2396 O   0  0  0  0  0  0  0  0  0  0  0  0
   10.0919   12.3154   23.0082 H   0  0  0  0  0  0  0  0  0  0  0  0
    8.7128   10.9349   24.4551 C   0  0  0  0  0  0  0  0  0  0  0  0
    7.7592   10.3166   25.2467 C   0  0  0  0  0  0  0  0  0  0  0  0
    6.9653   11.0938   26.0881 C   0  0  0  0  0  0  0  0  0  0  0  0
    7.1872   12.4628   26.1257 C   0  0  0  0  0  0  0  0  0  0  0  0
    6.0576   13.5556   27.1708 Br  0  0  0  0  0  0  0  0  0  0  0  0
    8.1560   13.0773   25.4283 N   0  0  0  0  0  0  0  0  0  0  0  0
    8.8667   12.3153   24.5864 C   0  0  0  0  0  0  0  0  0  0  0  0
    9.4384    8.9365   23.3727 C   0  0  0  0  0  0  0  0  0  0  0  0
    9.5218   10.3394   23.5333 O   0  0  0  0  0  0  0  0  0  0  0  0
   10.8809   14.4316   22.2315 C   0  0  0  0  0  0  0  0  0  0  0  0
   11.0207   15.8349   21.6714 C   0  0  0  0  0  0  0  0  0  0  0  0
   12.4606   16.2964   21.8374 C   0  0  0  0  0  0  0  0  0  0  0  0
   10.5292   15.8329   20.2346 C   0  0  0  0  0  0  0  0  0  0  0  0
   11.4794   15.4385   19.3624 F   0  0  0  0  0  0  0  0  0  0  0  0
   10.0726   17.0354   19.8566 F   0  0  0  0  0  0  0  0  0  0  0  0
    9.4889   14.9778   20.1145 F   0  0  0  0  0  0  0  0  0  0  0  0
 12 13  1  0  0  0
 13  5  1  0  0  0
  5  6  2  0  0  0
  6  7  1  0  0  0
  7  8  2  0  0  0
  8  9  1  0  0  0
  8 10  1  0  0  0
 10 11  2  0  0  0
 11  1  1  0  0  0
  1  2  1  0  0  0
  2  3  2  0  0  0
  2 14  1  0  0  0
 14 15  1  0  0  0
 15 16  1  0  0  0
 15 17  1  0  0  0
 17 18  1  0  0  0
 17 19  1  0  0  0
 17 20  1  0  0  0
 11  5  1  0  0  0
  1  4  1  0  0  0
M  END
> <minimizedAffinity>
-6.48032

> <minimizedRMSD>
0.52267

$$$$
C51401-P344


 22 22  0  0  0  0  0  0  0  0999 V2000
    8.6551   11.0762   24.6079 C   0  0  0  0  0  0  0  0  0  0  0  0
    7.6573   10.5194   25.3977 C   0  0  0  0  0  0  0  0  0  0  0  0
    6.8853   11.3726   26.1957 C   0  0  0  0  0  0  0  0  0  0  0  0
    7.1797   12.7226   26.2478 C   0  0  0  0  0  0  0  0  0  0  0  0
    8.1786   13.2733   25.5277 N   0  0  0  0  0  0  0  0  0  0  0  0
    8.8491   12.4608   24.6877 C   0  0  0  0  0  0  0  0  0  0  0  0
    9.6639   13.0178   23.7291 N   0  0  0  0  0  0  0  0  0  0  0  0
   10.1468   14.4766   23.5451 C   0  0  0  0  0  0  0  0  0  0  0  0
    9.9918   15.4142   24.2195 O   0  0  0  0  0  0  0  0  0  0  0  0
    9.9932   12.3858   23.0500 H   0  0  0  0  0  0  0  0  0  0  0  0
   10.8155   14.4693   22.1847 C   0  0  0  0  0  0  0  0  0  0  0  0
   11.0049   15.8689   21.6200 C   0  0  0  0  0  0  0  0  0  0  0  0
   12.4548   16.2883   21.8012 C   0  0  0  0  0  0  0  0  0  0  0  0
   10.5289   15.8947   20.1779 C   0  0  0  0  0  0  0  0  0  0  0  0
   11.4979   15.5521   19.3044 F   0  0  0  0  0  0  0  0  0  0  0  0
   10.0468   17.0972   19.8277 F   0  0  0  0  0  0  0  0  0  0  0  0
    9.5132   15.0157   20.0246 F   0  0  0  0  0  0  0  0  0  0  0  0
    5.7264   10.8802   26.9155 N   0  0  0  0  0  0  0  0  0  0  0  0
    5.3497   11.5165   27.9089 O   0  0  0  0  0  0  0  0  0  0  0  0
    5.1934    9.8481   26.4992 O   0  0  0  0  0  0  0  0  0  0  0  0
    9.2777    9.0332   23.5216 C   0  0  0  0  0  0  0  0  0  0  0  0
    9.4585   10.4249   23.7130 O   0  0  0  0  0  0  0  0  0  0  0  0
 21 22  1  0  0  0
 22  1  1  0  0  0
  1  2  2  0  0  0
  2  3  1  0  0  0
  3 18  1  0  0  0
 18 19  2  0  0  0
 18 20  1  0  0  0
  3  4  2  0  0  0
  4  5  1  0  0  0
  5  6  2  0  0  0
  6  7  1  0  0  0
  7  8  1  0  0  0
  8  9  2  0  0  0
  8 11  1  0  0  0
 11 12  1  0  0  0
 12 13  1  0  0  0
 12 14  1  0  0  0
 14 15  1  0  0  0
 14 16  1  0  0  0
 14 17  1  0  0  0
  6  1  1  0  0  0
  7 10  1  0  0  0
M  CHG 1  18   1
M  CHG 1  20  -1
M  END
> <minimizedAffinity>
-6.50759

> <minimizedRMSD>
0.50082

$$$$
C52381-P344


 22 24  0  0  0  0  0  0  0  0999 V2000
    7.7052   15.8922   22.4551 O   0  0  0  0  0  0  0  0  0  0  0  0
    6.6269   14.9412   22.6049 S   0  0  0  0  0  0  0  0  0  0  0  0
    6.7191   13.6340   21.9865 O   0  0  0  0  0  0  0  0  0  0  0  0
    5.2405   15.7050   22.0384 N   0  0  0  0  0  0  0  0  0  0  0  0
    5.5300   16.2971   21.2599 H   0  0  0  0  0  0  0  0  0  0  0  0
    4.0870   14.9078   21.5599 C   0  0  0  0  0  0  0  0  0  0  0  0
    4.3204   14.0086   20.3505 C   0  0  0  0  0  0  0  0  0  0  0  0
    3.5538   15.2703   20.1712 C   0  0  0  0  0  0  0  0  0  0  0  0
    2.9779   14.5770   22.5854 C   0  0  0  0  0  0  0  0  0  0  0  0
    2.0463   13.5386   22.4193 C   0  0  0  0  0  0  0  0  0  0  0  0
    1.0415   13.2934   23.3572 C   0  0  0  0  0  0  0  0  0  0  0  0
    0.9774   14.1029   24.4722 C   0  0  0  0  0  0  0  0  0  0  0  0
    1.8366   15.1122   24.6970 N   0  0  0  0  0  0  0  0  0  0  0  0
    2.7977   15.3157   23.7606 C   0  0  0  0  0  0  0  0  0  0  0  0
    6.2806   14.8152   24.3644 C   0  0  0  0  0  0  0  0  0  0  0  0
    7.4901   14.3381   25.1496 C   0  0  0  0  0  0  0  0  0  0  0  0
    7.2043   12.9455   25.7056 C   0  0  0  0  0  0  0  0  0  0  0  0
    8.2596   11.9056   25.4007 C   0  0  0  0  0  0  0  0  0  0  0  0
    7.6711   10.4976   25.3574 C   0  0  0  0  0  0  0  0  0  0  0  0
    8.4596    9.7357   24.3054 C   0  0  0  0  0  0  0  0  0  0  0  0
    9.4852   10.6870   23.7581 C   0  0  0  0  0  0  0  0  0  0  0  0
    8.9736   12.0760   24.0721 C   0  0  0  0  0  0  0  0  0  0  0  0
  1  2  2  0  0  0
  2  3  2  0  0  0
  2 15  1  0  0  0
 15 16  1  0  0  0
 16 17  1  0  0  0
 17 18  1  0  0  0
 18 19  1  0  0  0
 19 20  1  0  0  0
 20 21  1  0  0  0
 21 22  1  0  0  0
  2  4  1  0  0  0
  4  6  1  0  0  0
  6  9  1  0  0  0
  9 10  2  0  0  0
 10 11  1  0  0  0
 11 12  2  0  0  0
 12 13  1  0  0  0
 13 14  2  0  0  0
  6  7  1  0  0  0
  7  8  1  0  0  0
 22 18  1  0  0  0
  8  6  1  0  0  0
 14  9  1  0  0  0
  4  5  1  0  0  0
M  END
> <minimizedAffinity>
-4.84172

> <minimizedRMSD>
1.57223

$$$$
C48046-P344


 22 23  0  0  0  0  0  0  0  0999 V2000
    7.8418   13.0799   25.9654 N   0  0  0  0  0  0  0  0  0  0  0  0
    7.1904   11.8942   25.4360 C   0  0  0  0  0  0  0  0  0  0  0  0
    8.2176   10.8390   25.0660 C   0  0  0  0  0  0  0  0  0  0  0  0
    9.1625   11.3282   23.9786 C   0  0  0  0  0  0  0  0  0  0  0  0
    9.7213   12.7388   24.2264 C   0  0  0  0  0  0  0  0  0  0  0  0
    8.7521   13.6468   24.9800 C   0  0  0  0  0  0  0  0  0  0  0  0
    6.9040   14.1121   26.4286 C   0  0  0  0  0  0  0  0  0  0  0  0
    6.5399   15.2841   25.4896 C   0  0  0  0  0  0  0  0  0  0  0  0
    5.5167   14.9804   24.3973 C   0  0  0  0  0  0  0  0  0  0  0  0
    4.5937   15.3183   21.9219 N   0  0  0  0  0  0  0  0  0  0  0  0
    6.0737   15.1189   22.6899 S   0  0  0  0  0  0  0  0  0  0  0  0
    6.5825   13.8638   22.1792 O   0  0  0  0  0  0  0  0  0  0  0  0
    6.7345   16.3856   22.5118 O   0  0  0  0  0  0  0  0  0  0  0  0
    4.7421   15.4140   20.9173 H   0  0  0  0  0  0  0  0  0  0  0  0
    4.1353   16.1565   22.2792 H   0  0  0  0  0  0  0  0  0  0  0  0
   10.1015   13.4038   22.8702 C   0  0  0  0  0  0  0  0  0  0  0  0
    9.9812   14.8665   22.8807 N   0  0  0  0  0  0  0  0  0  0  0  0
   10.9740   15.5576   23.6890 C   0  0  0  0  0  0  0  0  0  0  0  0
   12.3094   15.5977   22.9889 C   0  0  0  0  0  0  0  0  0  0  0  0
   12.1910   16.2977   21.6489 C   0  0  0  0  0  0  0  0  0  0  0  0
   11.1878   15.5576   20.7807 C   0  0  0  0  0  0  0  0  0  0  0  0
    9.8649   15.4398   21.5252 C   0  0  0  0  0  0  0  0  0  0  0  0
 10 11  1  0  0  0
 11 12  2  0  0  0
 11 13  2  0  0  0
 11  9  1  0  0  0
  9  8  1  0  0  0
  8  7  1  0  0  0
  7  1  1  0  0  0
  1  2  1  0  0  0
  2  3  1  0  0  0
  3  4  1  0  0  0
  4  5  1  0  0  0
  5 16  1  0  0  0
 16 17  1  0  0  0
 17 18  1  0  0  0
 18 19  1  0  0  0
 19 20  1  0  0  0
 20 21  1  0  0  0
 21 22  1  0  0  0
  5  6  1  0  0  0
  6  1  1  0  0  0
 22 17  1  0  0  0
 10 14  1  0  0  0
 10 15  1  0  0  0
M  END
> <minimizedAffinity>
-5.24386

> <minimizedRMSD>
0.33716

$$$$
C52382-P229


 22 24  0  0  0  0  0  0  0  0999 V2000
    8.1002   13.7194   23.9910 N   0  0  0  0  0  0  0  0  0  0  0  0
    7.2573   13.3100   23.5881 H   0  0  0  0  0  0  0  0  0  0  0  0
    7.8224   13.7121   25.4235 C   0  0  0  0  0  0  0  0  0  0  0  0
    7.0013   15.0319   25.6476 C   0  0  0  0  0  0  0  0  0  0  0  0
    7.3177   15.5373   27.0563 C   0  0  0  0  0  0  0  0  0  0  0  0
    8.5404   14.7558   27.5076 C   0  0  0  0  0  0  0  0  0  0  0  0
    9.0649   14.1039   26.2335 C   0  0  0  0  0  0  0  0  0  0  0  0
    7.0868   12.4617   25.9396 C   0  0  0  0  0  0  0  0  0  0  0  0
    5.8543   12.5302   26.6116 C   0  0  0  0  0  0  0  0  0  0  0  0
    5.1911   11.3885   27.0635 C   0  0  0  0  0  0  0  0  0  0  0  0
    5.7645   10.1630   26.8274 C   0  0  0  0  0  0  0  0  0  0  0  0
    6.9504   10.0240   26.2185 N   0  0  0  0  0  0  0  0  0  0  0  0
    7.5749   11.1627   25.8010 C   0  0  0  0  0  0  0  0  0  0  0  0
    8.9527   13.6345   21.7913 O   0  0  0  0  0  0  0  0  0  0  0  0
    9.2985   13.0848   23.0758 S   0  0  0  0  0  0  0  0  0  0  0  0
    9.3369   11.6603   23.2765 O   0  0  0  0  0  0  0  0  0  0  0  0
   10.8749   13.7405   23.6013 C   0  0  0  0  0  0  0  0  0  0  0  0
   11.0680   15.1919   23.2354 C   0  0  0  0  0  0  0  0  0  0  0  0
   12.0078   15.3215   22.0384 C   0  0  0  0  0  0  0  0  0  0  0  0
   11.4898   16.2850   21.0410 C   0  0  0  0  0  0  0  0  0  0  0  0
   10.0651   16.6233   20.7024 C   0  0  0  0  0  0  0  0  0  0  0  0
   10.8402   15.7228   19.7946 C   0  0  0  0  0  0  0  0  0  0  0  0
 14 15  2  0  0  0
 15 16  2  0  0  0
 15 17  1  0  0  0
 17 18  1  0  0  0
 18 19  1  0  0  0
 19 20  1  0  0  0
 20 21  1  0  0  0
 21 22  1  0  0  0
 15  1  1  0  0  0
  1  3  1  0  0  0
  3  8  1  0  0  0
  8  9  2  0  0  0
  9 10  1  0  0  0
 10 11  2  0  0  0
 11 12  1  0  0  0
 12 13  2  0  0  0
  3  4  1  0  0  0
  4  5  1  0  0  0
  5  6  1  0  0  0
  6  7  1  0  0  0
 22 20  1  0  0  0
  7  3  1  0  0  0
 13  8  1  0  0  0
  1  2  1  0  0  0
M  END
> <minimizedAffinity>
-5.56406

> <minimizedRMSD>
0.59867

$$$$
C45790-P228


 19 21  0  0  0  0  0  0  0  0999 V2000
   10.6697   12.7851   24.6949 O   0  0  0  0  0  0  0  0  0  0  0  0
    9.9586   13.9891   24.3041 S   0  0  0  0  0  0  0  0  0  0  0  0
    9.8519   15.0919   25.2367 O   0  0  0  0  0  0  0  0  0  0  0  0
    8.3721   13.5856   23.7989 N   0  0  0  0  0  0  0  0  0  0  0  0
    7.3192   14.6257   24.1313 C   0  0  0  0  0  0  0  0  0  0  0  0
    6.6165   14.1293   25.4070 C   0  0  0  0  0  0  0  0  0  0  0  0
    6.8837   12.6637   25.3326 C   0  0  0  0  0  0  0  0  0  0  0  0
    6.2928   11.6442   26.0503 C   0  0  0  0  0  0  0  0  0  0  0  0
    6.6676   10.3364   25.7452 C   0  0  0  0  0  0  0  0  0  0  0  0
    7.6475   10.0762   24.7703 C   0  0  0  0  0  0  0  0  0  0  0  0
    8.2914   11.1105   24.1087 C   0  0  0  0  0  0  0  0  0  0  0  0
    7.8814   12.3905   24.4002 C   0  0  0  0  0  0  0  0  0  0  0  0
   10.7205   14.5116   22.7700 C   0  0  0  0  0  0  0  0  0  0  0  0
   11.4996   15.8119   22.9645 C   0  0  0  0  0  0  0  0  0  0  0  0
   12.1948   16.1678   21.6588 C   0  0  0  0  0  0  0  0  0  0  0  0
   11.2253   16.2161   20.4887 C   0  0  0  0  0  0  0  0  0  0  0  0
   10.4925   14.9609   20.3441 N   0  0  0  0  0  0  0  0  0  0  0  0
    9.7729   14.6358   21.5826 C   0  0  0  0  0  0  0  0  0  0  0  0
   11.1507   14.2111   20.1323 H   0  0  0  0  0  0  0  0  0  0  0  0
  1  2  2  0  0  0
  2  3  2  0  0  0
 13  2  1  0  0  0
 13 14  1  0  0  0
 14 15  1  0  0  0
 15 16  1  0  0  0
 16 17  1  0  0  0
 17 18  1  0  0  0
  2  4  1  0  0  0
  4  5  1  0  0  0
  5  6  1  0  0  0
  6  7  1  0  0  0
  7  8  2  0  0  0
  8  9  1  0  0  0
  9 10  2  0  0  0
 10 11  1  0  0  0
 11 12  2  0  0  0
 18 13  1  0  0  0
 12  4  1  0  0  0
 12  7  1  0  0  0
 17 19  1  0  0  0
M  END
> <minimizedAffinity>
-6.28829

> <minimizedRMSD>
0.60475

$$$$
C45958-P228


 22 24  0  0  0  0  0  0  0  0999 V2000
    8.0530   14.9875   25.4100 S   0  0  0  0  0  0  0  0  0  0  0  0
    8.4629   14.1457   26.5199 O   0  0  0  0  0  0  0  0  0  0  0  0
    7.6612   16.3593   25.6509 O   0  0  0  0  0  0  0  0  0  0  0  0
    6.8171   14.2056   24.5106 N   0  0  0  0  0  0  0  0  0  0  0  0
    5.4213   14.7104   24.8294 C   0  0  0  0  0  0  0  0  0  0  0  0
    4.9079   13.8146   25.9781 C   0  0  0  0  0  0  0  0  0  0  0  0
    5.7431   12.5894   25.7884 C   0  0  0  0  0  0  0  0  0  0  0  0
    5.6366   11.3586   26.4009 C   0  0  0  0  0  0  0  0  0  0  0  0
    6.5152   10.3517   25.9948 C   0  0  0  0  0  0  0  0  0  0  0  0
    7.4917   10.5986   25.0137 C   0  0  0  0  0  0  0  0  0  0  0  0
    7.6514   11.8596   24.4681 C   0  0  0  0  0  0  0  0  0  0  0  0
    6.7626   12.8282   24.8716 C   0  0  0  0  0  0  0  0  0  0  0  0
   10.5428   15.4636   22.2244 N   0  0  0  0  0  0  0  0  0  0  0  0
   11.8162   15.7502   22.9096 C   0  0  0  0  0  0  0  0  0  0  0  0
   11.8312   14.9205   24.1707 C   0  0  0  0  0  0  0  0  0  0  0  0
   10.6861   15.2579   25.0850 C   0  0  0  0  0  0  0  0  0  0  0  0
    9.4165   14.9321   24.3111 C   0  0  0  0  0  0  0  0  0  0  0  0
    9.3419   15.7843   23.0652 C   0  0  0  0  0  0  0  0  0  0  0  0
   12.0111   15.5016   19.9467 C   0  0  0  0  0  0  0  0  0  0  0  0
   10.4691   16.0407   20.6515 S   0  0  0  0  0  0  0  0  0  0  0  0
    9.4158   15.3032   20.0242 O   0  0  0  0  0  0  0  0  0  0  0  0
   10.3753   17.4725   20.7303 O   0  0  0  0  0  0  0  0  0  0  0  0
 19 20  1  0  0  0
 20 21  2  0  0  0
 20 22  2  0  0  0
 20 13  1  0  0  0
 13 14  1  0  0  0
 14 15  1  0  0  0
 15 16  1  0  0  0
 16 17  1  0  0  0
 17  1  1  0  0  0
  1  2  2  0  0  0
  1  3  2  0  0  0
  1  4  1  0  0  0
  4  5  1  0  0  0
  5  6  1  0  0  0
  6  7  1  0  0  0
  7  8  2  0  0  0
  8  9  1  0  0  0
  9 10  2  0  0  0
 10 11  1  0  0  0
 11 12  2  0  0  0
 17 18  1  0  0  0
 18 13  1  0  0  0
 12  4  1  0  0  0
 12  7  1  0  0  0
M  END
> <minimizedAffinity>
-6.44741

> <minimizedRMSD>
1.28455

$$$$
C45959-P228


 22 24  0  0  0  0  0  0  0  0999 V2000
    9.0344   13.3213   24.2399 S   0  0  0  0  0  0  0  0  0  0  0  0
    9.6124   12.7058   23.0633 O   0  0  0  0  0  0  0  0  0  0  0  0
    9.3398   12.7664   25.5490 O   0  0  0  0  0  0  0  0  0  0  0  0
    7.3318   13.3033   24.0855 N   0  0  0  0  0  0  0  0  0  0  0  0
    6.6071   14.5673   24.4882 C   0  0  0  0  0  0  0  0  0  0  0  0
    6.1976   14.4064   25.9570 C   0  0  0  0  0  0  0  0  0  0  0  0
    6.1954   12.9244   26.0919 C   0  0  0  0  0  0  0  0  0  0  0  0
    5.7399   12.1721   27.1522 C   0  0  0  0  0  0  0  0  0  0  0  0
    5.8421   10.7871   27.0533 C   0  0  0  0  0  0  0  0  0  0  0  0
    6.4519   10.1816   25.9395 C   0  0  0  0  0  0  0  0  0  0  0  0
    6.9653   10.9527   24.9043 C   0  0  0  0  0  0  0  0  0  0  0  0
    6.8050   12.3193   24.9934 C   0  0  0  0  0  0  0  0  0  0  0  0
   10.6624   15.7288   22.2538 N   0  0  0  0  0  0  0  0  0  0  0  0
   11.8505   16.1023   23.0274 C   0  0  0  0  0  0  0  0  0  0  0  0
   12.0239   15.0283   24.0806 C   0  0  0  0  0  0  0  0  0  0  0  0
   10.8787   15.1240   25.0711 C   0  0  0  0  0  0  0  0  0  0  0  0
    9.5234   15.0358   24.3594 C   0  0  0  0  0  0  0  0  0  0  0  0
    9.4527   15.8184   23.0576 C   0  0  0  0  0  0  0  0  0  0  0  0
   10.5137   16.5608   21.0581 C   0  0  0  0  0  0  0  0  0  0  0  0
   11.9948   15.1890   19.5744 C   0  0  0  0  0  0  0  0  0  0  0  0
   10.8646   15.8438   19.8100 C   0  0  0  0  0  0  0  0  0  0  0  0
    9.7800   16.0843   18.5472 Cl  0  0  0  0  0  0  0  0  0  0  0  0
 20 21  2  0  0  0
 21 22  1  0  0  0
 21 19  1  0  0  0
 19 13  1  0  0  0
 13 14  1  0  0  0
 14 15  1  0  0  0
 15 16  1  0  0  0
 16 17  1  0  0  0
 17  1  1  0  0  0
  1  2  2  0  0  0
  1  3  2  0  0  0
  1  4  1  0  0  0
  4  5  1  0  0  0
  5  6  1  0  0  0
  6  7  1  0  0  0
  7  8  2  0  0  0
  8  9  1  0  0  0
  9 10  2  0  0  0
 10 11  1  0  0  0
 11 12  2  0  0  0
 17 18  1  0  0  0
 18 13  1  0  0  0
 12  4  1  0  0  0
 12  7  1  0  0  0
M  END
> <minimizedAffinity>
-5.69999

> <minimizedRMSD>
0.93803

$$$$
C45966-P228


 20 22  0  0  0  0  0  0  0  0999 V2000
    9.2633   13.7114   24.1051 S   0  0  0  0  0  0  0  0  0  0  0  0
   10.1340   12.7310   23.4883 O   0  0  0  0  0  0  0  0  0  0  0  0
    9.2834   13.8551   25.5532 O   0  0  0  0  0  0  0  0  0  0  0  0
    7.6443   13.3495   23.6743 N   0  0  0  0  0  0  0  0  0  0  0  0
    6.6571   14.4835   23.8241 C   0  0  0  0  0  0  0  0  0  0  0  0
    6.0044   14.3269   25.2057 C   0  0  0  0  0  0  0  0  0  0  0  0
    6.2133   12.8737   25.4611 C   0  0  0  0  0  0  0  0  0  0  0  0
    5.6581   12.0933   26.4544 C   0  0  0  0  0  0  0  0  0  0  0  0
    5.9847   10.7386   26.4745 C   0  0  0  0  0  0  0  0  0  0  0  0
    6.9008   10.2015   25.5520 C   0  0  0  0  0  0  0  0  0  0  0  0
    7.5051   11.0113   24.5963 C   0  0  0  0  0  0  0  0  0  0  0  0
    7.1284   12.3371   24.5565 C   0  0  0  0  0  0  0  0  0  0  0  0
   10.7764   15.4221   21.1457 N   0  0  0  0  0  0  0  0  0  0  0  0
   11.8820   16.1139   21.8122 C   0  0  0  0  0  0  0  0  0  0  0  0
   12.0566   15.5681   23.2172 C   0  0  0  0  0  0  0  0  0  0  0  0
   10.8484   15.9144   24.0575 C   0  0  0  0  0  0  0  0  0  0  0  0
    9.5783   15.3508   23.4330 C   0  0  0  0  0  0  0  0  0  0  0  0
    9.5162   15.5097   21.9055 C   0  0  0  0  0  0  0  0  0  0  0  0
   11.5004   15.3498   18.7427 C   0  0  0  0  0  0  0  0  0  0  0  0
   10.5928   15.9763   19.7888 C   0  0  0  0  0  0  0  0  0  0  0  0
 19 20  1  0  0  0
 20 13  1  0  0  0
 13 14  1  0  0  0
 14 15  1  0  0  0
 15 16  1  0  0  0
 16 17  1  0  0  0
 17  1  1  0  0  0
  1  2  2  0  0  0
  1  3  2  0  0  0
  1  4  1  0  0  0
  4  5  1  0  0  0
  5  6  1  0  0  0
  6  7  1  0  0  0
  7  8  2  0  0  0
  8  9  1  0  0  0
  9 10  2  0  0  0
 10 11  1  0  0  0
 11 12  2  0  0  0
 17 18  1  0  0  0
 18 13  1  0  0  0
 12  4  1  0  0  0
 12  7  1  0  0  0
M  END
> <minimizedAffinity>
-6.36261

> <minimizedRMSD>
0.44952

$$$$
C45979-P228


 23 25  0  0  0  0  0  0  0  0999 V2000
    8.9500   14.3522   25.4733 S   0  0  0  0  0  0  0  0  0  0  0  0
    9.9856   13.3874   25.7812 O   0  0  0  0  0  0  0  0  0  0  0  0
    8.2300   14.9973   26.5579 O   0  0  0  0  0  0  0  0  0  0  0  0
    7.7691   13.6020   24.4836 N   0  0  0  0  0  0  0  0  0  0  0  0
    6.3693   13.5474   25.0547 C   0  0  0  0  0  0  0  0  0  0  0  0
    6.1956   12.1650   25.6927 C   0  0  0  0  0  0  0  0  0  0  0  0
    7.2317   11.3832   24.9657 C   0  0  0  0  0  0  0  0  0  0  0  0
    7.4170   10.0184   24.9706 C   0  0  0  0  0  0  0  0  0  0  0  0
    8.4562    9.5054   24.1997 C   0  0  0  0  0  0  0  0  0  0  0  0
    9.3257   10.3558   23.4927 C   0  0  0  0  0  0  0  0  0  0  0  0
    9.1648   11.7354   23.5421 C   0  0  0  0  0  0  0  0  0  0  0  0
    8.1011   12.2226   24.2706 C   0  0  0  0  0  0  0  0  0  0  0  0
   10.1665   14.9028   22.1145 N   0  0  0  0  0  0  0  0  0  0  0  0
   11.5562   15.3180   22.3091 C   0  0  0  0  0  0  0  0  0  0  0  0
   11.9442   15.0452   23.7560 C   0  0  0  0  0  0  0  0  0  0  0  0
   11.1061   15.8660   24.7200 C   0  0  0  0  0  0  0  0  0  0  0  0
    9.6151   15.6775   24.4770 C   0  0  0  0  0  0  0  0  0  0  0  0
    9.2585   15.6422   23.0024 C   0  0  0  0  0  0  0  0  0  0  0  0
    9.6865   15.1556   20.7391 C   0  0  0  0  0  0  0  0  0  0  0  0
   11.8390   15.3551   19.3283 C   0  0  0  0  0  0  0  0  0  0  0  0
   10.5107   15.8925   19.7079 C   0  0  0  0  0  0  0  0  0  0  0  0
   10.7067   17.1317   20.1840 F   0  0  0  0  0  0  0  0  0  0  0  0
    9.7382   16.0412   18.6012 F   0  0  0  0  0  0  0  0  0  0  0  0
 20 21  1  0  0  0
 21 22  1  0  0  0
 21 23  1  0  0  0
 21 19  1  0  0  0
 19 13  1  0  0  0
 13 14  1  0  0  0
 14 15  1  0  0  0
 15 16  1  0  0  0
 16 17  1  0  0  0
 17  1  1  0  0  0
  1  2  2  0  0  0
  1  3  2  0  0  0
  1  4  1  0  0  0
  4  5  1  0  0  0
  5  6  1  0  0  0
  6  7  1  0  0  0
  7  8  2  0  0  0
  8  9  1  0  0  0
  9 10  2  0  0  0
 10 11  1  0  0  0
 11 12  2  0  0  0
 17 18  1  0  0  0
 18 13  1  0  0  0
 12  4  1  0  0  0
 12  7  1  0  0  0
M  END
> <minimizedAffinity>
-7.53473

> <minimizedRMSD>
1.41477

$$$$
C52374-P401


 24 26  0  0  0  0  0  0  0  0999 V2000
    9.7159   16.8291   27.7098 N   0  0  0  0  0  0  0  0  0  0  0  0
    8.5000   16.3019   27.0677 C   0  0  0  0  0  0  0  0  0  0  0  0
    7.8231   17.2898   26.1165 C   0  0  0  0  0  0  0  0  0  0  0  0
    7.5368   18.6267   26.7914 C   0  0  0  0  0  0  0  0  0  0  0  0
    8.7744   19.2049   27.5095 C   0  0  0  0  0  0  0  0  0  0  0  0
    9.3972   18.0926   28.4030 C   0  0  0  0  0  0  0  0  0  0  0  0
    8.3520   20.4365   28.2165 N   0  0  0  0  0  0  0  0  0  0  0  0
    8.0518   21.5347   27.2600 C   0  0  0  0  0  0  0  0  0  0  0  0
    8.5603   22.9306   27.6821 C   0  0  0  0  0  0  0  0  0  0  0  0
    9.9804   22.9598   28.0538 N   0  0  0  0  0  0  0  0  0  0  0  0
   10.3817   21.7669   28.8092 C   0  0  0  0  0  0  0  0  0  0  0  0
    9.2138   20.9099   29.3051 C   0  0  0  0  0  0  0  0  0  0  0  0
   10.1526   23.7851   28.6279 H   0  0  0  0  0  0  0  0  0  0  0  0
   10.8319   16.9748   26.7612 C   0  0  0  0  0  0  0  0  0  0  0  0
   11.1554   15.6694   26.0126 C   0  0  0  0  0  0  0  0  0  0  0  0
   11.0586   15.8238   24.4961 C   0  0  0  0  0  0  0  0  0  0  0  0
   10.1301   14.8686   23.9865 O   0  0  0  0  0  0  0  0  0  0  0  0
   10.6572   13.5409   23.9454 C   0  0  0  0  0  0  0  0  0  0  0  0
    7.7427   10.6583   25.2436 C   0  0  0  0  0  0  0  0  0  0  0  0
    7.7920   11.9108   25.8495 C   0  0  0  0  0  0  0  0  0  0  0  0
    8.7483   12.8381   25.4414 C   0  0  0  0  0  0  0  0  0  0  0  0
    9.6520   12.5202   24.4171 C   0  0  0  0  0  0  0  0  0  0  0  0
    9.6037   11.2459   23.8321 C   0  0  0  0  0  0  0  0  0  0  0  0
    8.6536   10.3160   24.2483 C   0  0  0  0  0  0  0  0  0  0  0  0
 19 20  2  0  0  0
 20 21  1  0  0  0
 21 22  2  0  0  0
 22 18  1  0  0  0
 18 17  1  0  0  0
 17 16  1  0  0  0
 16 15  1  0  0  0
 15 14  1  0  0  0
 14  1  1  0  0  0
  1  2  1  0  0  0
  2  3  1  0  0  0
  3  4  1  0  0  0
  4  5  1  0  0  0
  5  7  1  0  0  0
  7  8  1  0  0  0
  8  9  1  0  0  0
  9 10  1  0  0  0
 10 11  1  0  0  0
 11 12  1  0  0  0
  5  6  1  0  0  0
 22 23  1  0  0  0
 23 24  2  0  0  0
 24 19  1  0  0  0
  6  1  1  0  0  0
 12  7  1  0  0  0
 10 13  1  0  0  0
M  END
> <minimizedAffinity>
-4.48573

> <minimizedRMSD>
2.46268

$$$$
C119628-P106


 25 27  0  0  0  0  0  0  0  0999 V2000
   11.7328   12.3747   24.4816 S   0  0  0  0  0  0  0  0  0  0  0  0
   11.7786   13.3642   25.5300 O   0  0  0  0  0  0  0  0  0  0  0  0
   12.7706   11.3747   24.3547 O   0  0  0  0  0  0  0  0  0  0  0  0
   10.2875   11.4677   24.6500 C   0  0  0  0  0  0  0  0  0  0  0  0
   10.1370   10.2355   24.0541 C   0  0  0  0  0  0  0  0  0  0  0  0
    8.8688    9.8349   24.3010 N   0  0  0  0  0  0  0  0  0  0  0  0
    8.1732   10.7564   25.0251 C   0  0  0  0  0  0  0  0  0  0  0  0
    6.8648   10.7101   25.5262 C   0  0  0  0  0  0  0  0  0  0  0  0
    6.3816   11.7833   26.2548 C   0  0  0  0  0  0  0  0  0  0  0  0
    7.2013   12.8701   26.4715 C   0  0  0  0  0  0  0  0  0  0  0  0
    8.5026   12.9108   25.9344 C   0  0  0  0  0  0  0  0  0  0  0  0
    9.2918   13.9586   26.1973 F   0  0  0  0  0  0  0  0  0  0  0  0
    9.0357   11.8254   25.2295 C   0  0  0  0  0  0  0  0  0  0  0  0
    8.4927    8.9786   23.9939 H   0  0  0  0  0  0  0  0  0  0  0  0
   11.6267   13.1096   22.9867 N   0  0  0  0  0  0  0  0  0  0  0  0
   12.5059   13.5997   22.8218 H   0  0  0  0  0  0  0  0  0  0  0  0
   10.5366   14.0772   22.7937 C   0  0  0  0  0  0  0  0  0  0  0  0
    7.8933   13.6573   22.5063 C   0  0  0  0  0  0  0  0  0  0  0  0
    9.3285   13.4304   22.0746 C   0  0  0  0  0  0  0  0  0  0  0  0
   11.0921   15.3446   22.1446 C   0  0  0  0  0  0  0  0  0  0  0  0
    9.9983   16.0533   21.5538 N   0  0  0  0  0  0  0  0  0  0  0  0
   10.3367   16.9366   20.4832 C   0  0  0  0  0  0  0  0  0  0  0  0
    9.0215   17.6914   20.3633 C   0  0  0  0  0  0  0  0  0  0  0  0
    8.2302   17.4738   21.6155 C   0  0  0  0  0  0  0  0  0  0  0  0
    9.2319   16.8240   22.4973 C   0  0  0  0  0  0  0  0  0  0  0  0
 18 19  1  0  0  0
 17 19  1  0  0  0
 17 20  1  0  0  0
 20 21  1  0  0  0
 21 22  1  0  0  0
 22 23  1  0  0  0
 23 24  1  0  0  0
 24 25  1  0  0  0
 17 15  1  0  0  0
 15  1  1  0  0  0
  1  2  2  0  0  0
  1  3  2  0  0  0
  1  4  1  0  0  0
  4  5  2  0  0  0
  5  6  1  0  0  0
  6  7  1  0  0  0
  7  8  2  0  0  0
  8  9  1  0  0  0
  9 10  2  0  0  0
 10 11  1  0  0  0
 11 12  1  0  0  0
 11 13  2  0  0  0
 25 21  1  0  0  0
 13  4  1  0  0  0
 13  7  1  0  0  0
 15 16  1  0  0  0
  6 14  1  0  0  0
M  END
> <minimizedAffinity>
-5.14846

> <minimizedRMSD>
0.78988

$$$$
C55786-P322


 24 26  0  0  0  0  0  0  0  0999 V2000
   -1.1556   15.6824   16.3030 C   0  0  0  0  0  0  0  0  0  0  0  0
   -0.9951   15.1787   14.9480 N   0  0  0  0  0  0  0  0  0  0  0  0
   -1.2821   13.9444   14.4435 C   0  0  0  0  0  0  0  0  0  0  0  0
   -1.1942   14.0637   13.0756 C   0  0  0  0  0  0  0  0  0  0  0  0
   -0.8105   15.4052   12.8352 C   0  0  0  0  0  0  0  0  0  0  0  0
   -0.6089   16.0590   13.9899 N   0  0  0  0  0  0  0  0  0  0  0  0
   -0.6010   16.1321   11.5313 C   0  0  0  0  0  0  0  0  0  0  0  0
   -1.1604   17.5702   11.5825 C   0  0  0  0  0  0  0  0  0  0  0  0
   -1.4905   18.1266   10.1950 C   0  0  0  0  0  0  0  0  0  0  0  0
   -0.6216   17.4938    9.1137 C   0  0  0  0  0  0  0  0  0  0  0  0
   -0.7889   16.0391    9.0237 N   0  0  0  0  0  0  0  0  0  0  0  0
   -1.1688   15.4112   10.2979 C   0  0  0  0  0  0  0  0  0  0  0  0
    0.0932   15.6315    8.7136 H   0  0  0  0  0  0  0  0  0  0  0  0
   -2.5080   14.2833   17.6305 O   0  0  0  0  0  0  0  0  0  0  0  0
   -1.4212   14.6147   17.3547 C   0  0  0  0  0  0  0  0  0  0  0  0
   -0.0522   14.1566   17.9311 N   0  0  0  0  0  0  0  0  0  0  0  0
    0.7344   14.5329   17.4740 H   0  0  0  0  0  0  0  0  0  0  0  0
    0.2527   13.2697   19.0268 C   0  0  0  0  0  0  0  0  0  0  0  0
    1.6647   12.6961   18.9073 C   0  0  0  0  0  0  0  0  0  0  0  0
    2.7015   13.7826   19.2006 C   0  0  0  0  0  0  0  0  0  0  0  0
    4.0964   13.1996   19.2047 C   0  0  0  0  0  0  0  0  0  0  0  0
    4.2063   12.1304   20.1456 O   0  0  0  0  0  0  0  0  0  0  0  0
    3.3344   11.0526   19.8144 C   0  0  0  0  0  0  0  0  0  0  0  0
    1.8820   11.5124   19.8617 C   0  0  0  0  0  0  0  0  0  0  0  0
 14 15  2  0  0  0
 15  1  1  0  0  0
  1  2  1  0  0  0
  2  3  1  0  0  0
  3  4  2  0  0  0
  4  5  1  0  0  0
  7  5  1  0  0  0
  7  8  1  0  0  0
  8  9  1  0  0  0
  9 10  1  0  0  0
 10 11  1  0  0  0
 11 12  1  0  0  0
  5  6  2  0  0  0
 15 16  1  0  0  0
 16 18  1  0  0  0
 18 19  1  0  0  0
 19 20  1  0  0  0
 20 21  1  0  0  0
 21 22  1  0  0  0
 22 23  1  0  0  0
 23 24  1  0  0  0
  6  2  1  0  0  0
 24 19  1  0  0  0
 12  7  1  0  0  0
 11 13  1  0  0  0
 16 17  1  0  0  0
M  END
> <minimizedAffinity>
-5.59638

> <minimizedRMSD>
0.86429

$$$$
C63883-P224


 15 16  0  0  0  0  0  0  0  0999 V2000
   10.0619   13.4578   24.3296 N   0  0  0  0  0  0  0  0  0  0  0  0
    9.2411   13.9844   24.4649 H   0  0  0  0  0  0  0  0  0  0  0  0
    9.6426   15.6234   26.3934 Cl  0  0  0  0  0  0  0  0  0  0  0  0
   11.1151   14.7944   26.0372 C   0  0  0  0  0  0  0  0  0  0  0  0
   12.2288   15.0468   26.8093 C   0  0  0  0  0  0  0  0  0  0  0  0
   13.4206   14.4512   26.6024 N   0  0  0  0  0  0  0  0  0  0  0  0
   13.5145   13.5822   25.5769 C   0  0  0  0  0  0  0  0  0  0  0  0
   12.4476   13.2454   24.7722 C   0  0  0  0  0  0  0  0  0  0  0  0
   11.2107   13.8569   24.9933 C   0  0  0  0  0  0  0  0  0  0  0  0
    9.9998   12.3123   23.4499 C   0  0  0  0  0  0  0  0  0  0  0  0
    9.2013   11.2254   24.0488 C   0  0  0  0  0  0  0  0  0  0  0  0
    9.1801    9.8616   23.9042 C   0  0  0  0  0  0  0  0  0  0  0  0
    8.1983    9.3324   24.7024 N   0  0  0  0  0  0  0  0  0  0  0  0
    7.6982   10.3776   25.3228 C   0  0  0  0  0  0  0  0  0  0  0  0
    8.2613   11.5668   24.9864 O   0  0  0  0  0  0  0  0  0  0  0  0
  3  4  1  0  0  0
  4  5  2  0  0  0
  5  6  1  0  0  0
  6  7  2  0  0  0
  7  8  1  0  0  0
  8  9  2  0  0  0
  9  1  1  0  0  0
  1 10  1  0  0  0
 10 11  1  0  0  0
 11 12  2  0  0  0
 12 13  1  0  0  0
 13 14  2  0  0  0
 14 15  1  0  0  0
  9  4  1  0  0  0
 15 11  1  0  0  0
  1  2  1  0  0  0
M  END
> <minimizedAffinity>
-4.65968

> <minimizedRMSD>
1.81061

$$$$
C105131-P135


 23 25  0  0  0  0  0  0  0  0999 V2000
   11.9570   14.0950   21.2241 N   0  0  0  0  0  0  0  0  0  0  0  0
   10.9078   13.9415   22.3752 C   0  0  0  0  0  0  0  0  0  0  0  0
   10.2895   14.7320   22.9180 O   0  0  0  0  0  0  0  0  0  0  0  0
   10.9497   12.3957   22.5606 N   0  0  0  0  0  0  0  0  0  0  0  0
   12.4185   13.2629   20.9713 H   0  0  0  0  0  0  0  0  0  0  0  0
   11.6288   11.9325   22.0188 H   0  0  0  0  0  0  0  0  0  0  0  0
   14.6276   18.2060   18.6216 O   0  0  0  0  0  0  0  0  0  0  0  0
   13.9465   17.3273   19.1496 C   0  0  0  0  0  0  0  0  0  0  0  0
   13.0945   16.3763   18.3411 C   0  0  0  0  0  0  0  0  0  0  0  0
   12.7638   15.0581   19.0323 C   0  0  0  0  0  0  0  0  0  0  0  0
   12.3593   15.2717   20.4676 C   0  0  0  0  0  0  0  0  0  0  0  0
   13.2911   16.1739   21.2592 C   0  0  0  0  0  0  0  0  0  0  0  0
   13.8634   17.2664   20.5049 N   0  0  0  0  0  0  0  0  0  0  0  0
   14.2224   18.0284   21.0145 H   0  0  0  0  0  0  0  0  0  0  0  0
   10.1832   11.5670   23.3670 C   0  0  0  0  0  0  0  0  0  0  0  0
   10.0634   10.2333   23.0315 C   0  0  0  0  0  0  0  0  0  0  0  0
    9.2118    9.4340   23.7737 C   0  0  0  0  0  0  0  0  0  0  0  0
    8.4819    9.9981   24.8085 C   0  0  0  0  0  0  0  0  0  0  0  0
    8.6414   11.3418   25.1173 C   0  0  0  0  0  0  0  0  0  0  0  0
    9.5106   12.1034   24.4069 N   0  0  0  0  0  0  0  0  0  0  0  0
    7.8385   12.0250   26.1966 C   0  0  0  0  0  0  0  0  0  0  0  0
    6.9094   11.3195   27.1589 C   0  0  0  0  0  0  0  0  0  0  0  0
    6.3375   12.1304   26.0402 C   0  0  0  0  0  0  0  0  0  0  0  0
  7  8  2  0  0  0
  8  9  1  0  0  0
  9 10  1  0  0  0
 10 11  1  0  0  0
 11  1  1  0  0  0
  1  2  1  0  0  0
  2  3  2  0  0  0
  2  4  1  0  0  0
  4 15  1  0  0  0
 15 16  2  0  0  0
 16 17  1  0  0  0
 17 18  2  0  0  0
 18 19  1  0  0  0
 19 21  1  0  0  0
 21 22  1  0  0  0
 22 23  1  0  0  0
 19 20  2  0  0  0
 11 12  1  0  0  0
 12 13  1  0  0  0
 13  8  1  0  0  0
 20 15  1  0  0  0
 23 21  1  0  0  0
  1  5  1  0  0  0
  4  6  1  0  0  0
 13 14  1  0  0  0
M  END
> <minimizedAffinity>
-6.79815

> <minimizedRMSD>
0.36714

$$$$
C51401-P213


 22 22  0  0  0  0  0  0  0  0999 V2000
    8.4206   10.6081   24.3635 C   0  0  0  0  0  0  0  0  0  0  0  0
    9.1028   11.6256   23.6897 C   0  0  0  0  0  0  0  0  0  0  0  0
    8.9937   12.9302   24.1337 C   0  0  0  0  0  0  0  0  0  0  0  0
    8.2551   13.2265   25.2408 C   0  0  0  0  0  0  0  0  0  0  0  0
    7.5582   12.2772   25.8794 N   0  0  0  0  0  0  0  0  0  0  0  0
    7.5759   11.0029   25.4091 C   0  0  0  0  0  0  0  0  0  0  0  0
    6.5375   10.2780   25.9719 N   0  0  0  0  0  0  0  0  0  0  0  0
    5.9058   10.3547   27.3952 C   0  0  0  0  0  0  0  0  0  0  0  0
    6.2176   10.9854   28.3292 O   0  0  0  0  0  0  0  0  0  0  0  0
    6.1334    9.6060   25.3767 H   0  0  0  0  0  0  0  0  0  0  0  0
    4.6318    9.5048   27.4261 C   0  0  0  0  0  0  0  0  0  0  0  0
    3.7118    9.7982   28.6605 C   0  0  0  0  0  0  0  0  0  0  0  0
    2.6372   10.8821   28.4526 C   0  0  0  0  0  0  0  0  0  0  0  0
    2.9650    8.5480   29.1130 C   0  0  0  0  0  0  0  0  0  0  0  0
    2.2750    8.7774   30.2519 F   0  0  0  0  0  0  0  0  0  0  0  0
    3.8031    7.5182   29.3486 F   0  0  0  0  0  0  0  0  0  0  0  0
    2.0848    8.1335   28.1716 F   0  0  0  0  0  0  0  0  0  0  0  0
    9.7002   13.9683   23.4637 N   0  0  0  0  0  0  0  0  0  0  0  0
   10.2761   14.7863   24.1850 O   0  0  0  0  0  0  0  0  0  0  0  0
    9.6822   13.9403   22.2273 O   0  0  0  0  0  0  0  0  0  0  0  0
    9.8099    9.1233   23.1853 C   0  0  0  0  0  0  0  0  0  0  0  0
    8.6569    9.2913   24.0523 O   0  0  0  0  0  0  0  0  0  0  0  0
 21 22  1  0  0  0
 22  1  1  0  0  0
  1  2  2  0  0  0
  2  3  1  0  0  0
  3 18  1  0  0  0
 18 19  2  0  0  0
 18 20  1  0  0  0
  3  4  2  0  0  0
  4  5  1  0  0  0
  5  6  2  0  0  0
  6  7  1  0  0  0
  7  8  1  0  0  0
  8  9  2  0  0  0
  8 11  1  0  0  0
 11 12  1  0  0  0
 12 13  1  0  0  0
 12 14  1  0  0  0
 14 15  1  0  0  0
 14 16  1  0  0  0
 14 17  1  0  0  0
  6  1  1  0  0  0
  7 10  1  0  0  0
M  CHG 1  18   1
M  CHG 1  20  -1
M  END
> <minimizedAffinity>
-4.96503

> <minimizedRMSD>
1.33217

$$$$
C107104-P174


 21 22  0  0  0  0  0  0  0  0999 V2000
    9.7527   13.3728   23.5920 N   0  0  0  0  0  0  0  0  0  0  0  0
    9.5073   14.2230   22.3172 C   0  0  0  0  0  0  0  0  0  0  0  0
    8.7120   14.1048   21.4708 O   0  0  0  0  0  0  0  0  0  0  0  0
   10.4453   13.7257   24.1961 H   0  0  0  0  0  0  0  0  0  0  0  0
    7.9750   10.7476   24.9183 C   0  0  0  0  0  0  0  0  0  0  0  0
    8.6119   10.1623   23.8518 C   0  0  0  0  0  0  0  0  0  0  0  0
    9.3086   11.1367   23.2087 O   0  0  0  0  0  0  0  0  0  0  0  0
    9.1720   12.2307   24.0058 C   0  0  0  0  0  0  0  0  0  0  0  0
    8.5036   12.0110   25.1175 N   0  0  0  0  0  0  0  0  0  0  0  0
    6.8458   10.1861   25.7100 C   0  0  0  0  0  0  0  0  0  0  0  0
    5.3573   12.0788   26.5829 C   0  0  0  0  0  0  0  0  0  0  0  0
    6.4155   11.0335   26.9174 C   0  0  0  0  0  0  0  0  0  0  0  0
    5.9041   10.1572   28.0639 C   0  0  0  0  0  0  0  0  0  0  0  0
   10.5823   15.2885   22.2592 C   0  0  0  0  0  0  0  0  0  0  0  0
   11.9395   14.7021   21.8728 C   0  0  0  0  0  0  0  0  0  0  0  0
   12.6952   15.6057   20.9677 C   0  0  0  0  0  0  0  0  0  0  0  0
   13.5032   16.6840   21.2545 C   0  0  0  0  0  0  0  0  0  0  0  0
   13.9099   17.1611   20.0408 N   0  0  0  0  0  0  0  0  0  0  0  0
   13.3562   16.3678   19.0829 C   0  0  0  0  0  0  0  0  0  0  0  0
   12.6252   15.4168   19.6127 N   0  0  0  0  0  0  0  0  0  0  0  0
   14.4963   17.9368   19.8869 H   0  0  0  0  0  0  0  0  0  0  0  0
 11 12  1  0  0  0
 12 13  1  0  0  0
 12 10  1  0  0  0
 10  5  1  0  0  0
  5  6  2  0  0  0
  6  7  1  0  0  0
  7  8  1  0  0  0
  8  1  1  0  0  0
  1  2  1  0  0  0
  2  3  2  0  0  0
  2 14  1  0  0  0
 14 15  1  0  0  0
 15 16  1  0  0  0
 16 17  2  0  0  0
 17 18  1  0  0  0
 18 19  1  0  0  0
 19 20  2  0  0  0
  8  9  2  0  0  0
  9  5  1  0  0  0
 20 16  1  0  0  0
  1  4  1  0  0  0
 18 21  1  0  0  0
M  END
> <minimizedAffinity>
-6.13466

> <minimizedRMSD>
0.33798

$$$$
C52375-P405


 24 26  0  0  0  0  0  0  0  0999 V2000
    5.3710   17.2428   26.9574 N   0  0  0  0  0  0  0  0  0  0  0  0
    5.1939   18.5508   26.3187 C   0  0  0  0  0  0  0  0  0  0  0  0
    5.7104   19.6723   27.2131 C   0  0  0  0  0  0  0  0  0  0  0  0
    7.1967   19.4703   27.5694 C   0  0  0  0  0  0  0  0  0  0  0  0
    7.3539   18.0667   28.1851 C   0  0  0  0  0  0  0  0  0  0  0  0
    6.7766   16.9862   27.2690 C   0  0  0  0  0  0  0  0  0  0  0  0
    7.6400   20.5804   28.4438 N   0  0  0  0  0  0  0  0  0  0  0  0
    8.1142   21.7364   27.6348 C   0  0  0  0  0  0  0  0  0  0  0  0
    9.4691   22.3347   28.0630 C   0  0  0  0  0  0  0  0  0  0  0  0
   10.5164   21.3206   28.2202 N   0  0  0  0  0  0  0  0  0  0  0  0
   10.0631   20.1517   28.9776 C   0  0  0  0  0  0  0  0  0  0  0  0
    8.6168   20.2378   29.4831 C   0  0  0  0  0  0  0  0  0  0  0  0
   11.3063   21.7406   28.7103 H   0  0  0  0  0  0  0  0  0  0  0  0
    4.7375   16.1558   26.1971 C   0  0  0  0  0  0  0  0  0  0  0  0
    5.6233   14.9515   25.8678 C   0  0  0  0  0  0  0  0  0  0  0  0
    5.1866   13.7086   26.6333 C   0  0  0  0  0  0  0  0  0  0  0  0
    5.2940   12.6053   25.7374 O   0  0  0  0  0  0  0  0  0  0  0  0
    6.1931   11.6036   26.2042 C   0  0  0  0  0  0  0  0  0  0  0  0
    9.9834   10.4398   24.4867 C   0  0  0  0  0  0  0  0  0  0  0  0
    9.7220   11.9310   24.6135 C   0  0  0  0  0  0  0  0  0  0  0  0
    8.5885   12.2029   25.5857 C   0  0  0  0  0  0  0  0  0  0  0  0
    7.3456   11.3984   25.2078 C   0  0  0  0  0  0  0  0  0  0  0  0
    7.6559    9.9979   25.1488 O   0  0  0  0  0  0  0  0  0  0  0  0
    8.7024    9.6807   24.2318 C   0  0  0  0  0  0  0  0  0  0  0  0
 19 20  1  0  0  0
 20 21  1  0  0  0
 21 22  1  0  0  0
 22 18  1  0  0  0
 18 17  1  0  0  0
 17 16  1  0  0  0
 16 15  1  0  0  0
 15 14  1  0  0  0
 14  1  1  0  0  0
  1  2  1  0  0  0
  2  3  1  0  0  0
  3  4  1  0  0  0
  4  7  1  0  0  0
  7  8  1  0  0  0
  8  9  1  0  0  0
  9 10  1  0  0  0
 10 11  1  0  0  0
 11 12  1  0  0  0
  4  5  1  0  0  0
  5  6  1  0  0  0
 22 23  1  0  0  0
 23 24  1  0  0  0
 24 19  1  0  0  0
  6  1  1  0  0  0
 12  7  1  0  0  0
 10 13  1  0  0  0
M  END
> <minimizedAffinity>
-4.12995

> <minimizedRMSD>
1.51772

$$$$
C50753-P248


 17 17  0  0  0  0  0  0  0  0999 V2000
    9.4850   14.8832   25.9242 C   0  0  0  0  0  0  0  0  0  0  0  0
    8.9769   14.3301   24.5886 C   0  0  0  0  0  0  0  0  0  0  0  0
    8.8552   12.8747   24.6184 N   0  0  0  0  0  0  0  0  0  0  0  0
    9.6786   12.0041   23.8123 C   0  0  0  0  0  0  0  0  0  0  0  0
    8.8745   10.7153   23.7025 C   0  0  0  0  0  0  0  0  0  0  0  0
    9.6449    9.5475   23.8660 O   0  0  0  0  0  0  0  0  0  0  0  0
    7.8212   10.7720   24.7927 C   0  0  0  0  0  0  0  0  0  0  0  0
    7.7886   12.2100   25.1864 C   0  0  0  0  0  0  0  0  0  0  0  0
    6.9577   12.7117   25.9239 O   0  0  0  0  0  0  0  0  0  0  0  0
   10.0474    9.5466   24.7485 H   0  0  0  0  0  0  0  0  0  0  0  0
    7.6606   15.0155   24.2291 C   0  0  0  0  0  0  0  0  0  0  0  0
    7.4024   15.0261   22.4694 S   0  0  0  0  0  0  0  0  0  0  0  0
    6.1127   16.0868   22.3663 N   0  0  0  0  0  0  0  0  0  0  0  0
    8.5124   15.6795   21.8221 O   0  0  0  0  0  0  0  0  0  0  0  0
    6.9134   13.7448   22.0045 O   0  0  0  0  0  0  0  0  0  0  0  0
    6.4059   17.0105   22.6844 H   0  0  0  0  0  0  0  0  0  0  0  0
    5.3490   15.7516   22.9534 H   0  0  0  0  0  0  0  0  0  0  0  0
  2  1  1  0  0  0
  2 11  1  0  0  0
 11 12  1  0  0  0
 12 13  1  0  0  0
 12 14  2  0  0  0
 12 15  2  0  0  0
  2  3  1  0  0  0
  3  4  1  0  0  0
  4  5  1  0  0  0
  5  6  1  0  0  0
  5  7  1  0  0  0
  7  8  1  0  0  0
  8  9  2  0  0  0
  8  3  1  0  0  0
 13 16  1  0  0  0
 13 17  1  0  0  0
  6 10  1  0  0  0
M  END
> <minimizedAffinity>
-5.07365

> <minimizedRMSD>
0.57167

$$$$
C74114-P9


 27 29  0  0  0  0  0  0  0  0999 V2000
   14.0832   15.4466    2.5933 N   0  0  0  0  0  0  0  0  0  0  0  0
   15.2869   14.8798    3.4172 C   0  0  0  0  0  0  0  0  0  0  0  0
   15.5503   14.9964    4.5528 O   0  0  0  0  0  0  0  0  0  0  0  0
   14.0436   15.1418    1.6580 H   0  0  0  0  0  0  0  0  0  0  0  0
   13.0110   16.3531    2.9864 C   0  0  0  0  0  0  0  0  0  0  0  0
   11.8742   16.8018    0.7663 C   0  0  0  0  0  0  0  0  0  0  0  0
   11.7313   16.1508    2.1454 C   0  0  0  0  0  0  0  0  0  0  0  0
   10.4467   16.6587    2.8765 C   0  0  0  0  0  0  0  0  0  0  0  0
    9.4488   15.5808    2.8921 N   0  0  0  0  0  0  0  0  0  0  0  0
    9.9259   14.7156    3.1456 H   0  0  0  0  0  0  0  0  0  0  0  0
    8.3140   15.7680    3.8310 C   0  0  0  0  0  0  0  0  0  0  0  0
    7.8106   14.4213    4.2878 C   0  0  0  0  0  0  0  0  0  0  0  0
    7.6813   13.2221    3.5405 C   0  0  0  0  0  0  0  0  0  0  0  0
    7.2892   12.2842    4.4562 C   0  0  0  0  0  0  0  0  0  0  0  0
    7.1495   12.8718    5.6668 O   0  0  0  0  0  0  0  0  0  0  0  0
    7.4435   14.2213    5.5663 N   0  0  0  0  0  0  0  0  0  0  0  0
   16.1340   13.9847    2.4838 C   0  0  0  0  0  0  0  0  0  0  0  0
   17.6074   14.2798    2.5209 C   0  0  0  0  0  0  0  0  0  0  0  0
   18.5052   13.2972    2.7227 N   0  0  0  0  0  0  0  0  0  0  0  0
   19.6991   13.9126    2.5994 N   0  0  0  0  0  0  0  0  0  0  0  0
   19.6109   15.2300    2.2407 C   0  0  0  0  0  0  0  0  0  0  0  0
   20.5978   16.1782    1.9539 C   0  0  0  0  0  0  0  0  0  0  0  0
   20.1665   17.4713    1.6488 C   0  0  0  0  0  0  0  0  0  0  0  0
   18.8098   17.7921    1.6337 C   0  0  0  0  0  0  0  0  0  0  0  0
   17.8389   16.8238    1.9170 C   0  0  0  0  0  0  0  0  0  0  0  0
   18.2509   15.5155    2.2256 C   0  0  0  0  0  0  0  0  0  0  0  0
   20.5570   13.4549    2.7537 H   0  0  0  0  0  0  0  0  0  0  0  0
  7  6  1  0  0  0
  7  8  1  0  0  0
  8  9  1  0  0  0
  9 11  1  0  0  0
 11 12  1  0  0  0
 12 13  1  0  0  0
 13 14  2  0  0  0
 14 15  1  0  0  0
 15 16  1  0  0  0
  7  5  1  0  0  0
  5  1  1  0  0  0
  1  2  1  0  0  0
  2  3  2  0  0  0
  2 17  1  0  0  0
 17 18  1  0  0  0
 18 19  2  0  0  0
 19 20  1  0  0  0
 20 21  1  0  0  0
 21 22  2  0  0  0
 22 23  1  0  0  0
 23 24  2  0  0  0
 24 25  1  0  0  0
 25 26  2  0  0  0
 16 12  2  0  0  0
 26 18  1  0  0  0
 26 21  1  0  0  0
  9 10  1  0  0  0
  1  4  1  0  0  0
 20 27  1  0  0  0
M  END
> <minimizedAffinity>
-4.36761

> <minimizedRMSD>
0.33968

$$$$
C74115-P9


 27 29  0  0  0  0  0  0  0  0999 V2000
   13.6788   16.4757    3.6474 N   0  0  0  0  0  0  0  0  0  0  0  0
   14.9000   15.5056    3.8111 C   0  0  0  0  0  0  0  0  0  0  0  0
   15.2858   14.9232    4.7531 O   0  0  0  0  0  0  0  0  0  0  0  0
   13.5164   16.7827    2.7262 H   0  0  0  0  0  0  0  0  0  0  0  0
   12.7429   16.9976    4.6408 C   0  0  0  0  0  0  0  0  0  0  0  0
   11.6127   19.1659    3.9634 C   0  0  0  0  0  0  0  0  0  0  0  0
   11.4735   17.6425    4.0311 C   0  0  0  0  0  0  0  0  0  0  0  0
   10.1729   17.2320    4.8075 C   0  0  0  0  0  0  0  0  0  0  0  0
    9.3926   16.2208    4.0695 N   0  0  0  0  0  0  0  0  0  0  0  0
    9.8704   15.3241    4.1597 H   0  0  0  0  0  0  0  0  0  0  0  0
    7.9869   16.0465    4.5389 C   0  0  0  0  0  0  0  0  0  0  0  0
    7.6448   14.5780    4.6227 C   0  0  0  0  0  0  0  0  0  0  0  0
    7.6847   13.6028    3.5943 C   0  0  0  0  0  0  0  0  0  0  0  0
    7.4259   12.4198    4.2324 C   0  0  0  0  0  0  0  0  0  0  0  0
    7.1915   12.6585    5.5441 O   0  0  0  0  0  0  0  0  0  0  0  0
    7.2928   14.0167    5.7926 N   0  0  0  0  0  0  0  0  0  0  0  0
   15.5953   15.3450    2.4327 C   0  0  0  0  0  0  0  0  0  0  0  0
   17.0876   15.5720    2.4506 C   0  0  0  0  0  0  0  0  0  0  0  0
   17.9495   14.5683    2.1859 N   0  0  0  0  0  0  0  0  0  0  0  0
   19.1665   15.1698    2.1669 N   0  0  0  0  0  0  0  0  0  0  0  0
   20.3643   14.3905    1.9354 C   0  0  0  0  0  0  0  0  0  0  0  0
   19.1160   16.5260    2.3643 C   0  0  0  0  0  0  0  0  0  0  0  0
   20.1136   17.5122    2.3693 C   0  0  0  0  0  0  0  0  0  0  0  0
   19.7193   18.8287    2.6088 C   0  0  0  0  0  0  0  0  0  0  0  0
   18.3832   19.1440    2.8361 C   0  0  0  0  0  0  0  0  0  0  0  0
   17.3990   18.1494    2.8244 C   0  0  0  0  0  0  0  0  0  0  0  0
   17.7719   16.8146    2.5836 C   0  0  0  0  0  0  0  0  0  0  0  0
  7  6  1  0  0  0
  7  8  1  0  0  0
  8  9  1  0  0  0
  9 11  1  0  0  0
 11 12  1  0  0  0
 12 13  1  0  0  0
 13 14  2  0  0  0
 14 15  1  0  0  0
 15 16  1  0  0  0
  7  5  1  0  0  0
  5  1  1  0  0  0
  1  2  1  0  0  0
  2  3  2  0  0  0
  2 17  1  0  0  0
 17 18  1  0  0  0
 18 19  2  0  0  0
 19 20  1  0  0  0
 20 21  1  0  0  0
 20 22  1  0  0  0
 22 23  2  0  0  0
 23 24  1  0  0  0
 24 25  2  0  0  0
 25 26  1  0  0  0
 26 27  2  0  0  0
 16 12  2  0  0  0
 27 18  1  0  0  0
 27 22  1  0  0  0
  9 10  1  0  0  0
  1  4  1  0  0  0
M  END
> <minimizedAffinity>
-4.55315

> <minimizedRMSD>
1.74519

$$$$
C106645-P363


 15 17  0  0  0  0  0  0  0  0999 V2000
   10.0724   13.9789   23.3534 C   0  0  0  0  0  0  0  0  0  0  0  0
   12.3165   14.8979   23.3218 O   0  0  0  0  0  0  0  0  0  0  0  0
   11.2633   14.6826   22.7340 C   0  0  0  0  0  0  0  0  0  0  0  0
   11.0175   15.1152   21.3788 C   0  0  0  0  0  0  0  0  0  0  0  0
    9.7829   15.5629   20.9591 C   0  0  0  0  0  0  0  0  0  0  0  0
    9.7901   15.6661   19.2633 S   0  0  0  0  0  0  0  0  0  0  0  0
   11.4255   15.2183   19.2259 C   0  0  0  0  0  0  0  0  0  0  0  0
   11.9636   14.9189   20.3821 N   0  0  0  0  0  0  0  0  0  0  0  0
   10.1498   13.8100   24.8708 C   0  0  0  0  0  0  0  0  0  0  0  0
    9.7080   12.4480   25.3752 C   0  0  0  0  0  0  0  0  0  0  0  0
   10.2909   11.1210   24.9344 C   0  0  0  0  0  0  0  0  0  0  0  0
    8.8935   11.4781   24.5456 C   0  0  0  0  0  0  0  0  0  0  0  0
    9.4372   14.9404   25.5919 C   0  0  0  0  0  0  0  0  0  0  0  0
    8.0845   14.8655   26.2606 C   0  0  0  0  0  0  0  0  0  0  0  0
    8.2323   15.5737   24.9485 C   0  0  0  0  0  0  0  0  0  0  0  0
  2  3  2  0  0  0
  3  1  1  0  0  0
  1  9  1  0  0  0
  9 10  1  0  0  0
 10 11  1  0  0  0
 11 12  1  0  0  0
  9 13  1  0  0  0
 13 14  1  0  0  0
 14 15  1  0  0  0
  3  4  1  0  0  0
  4  5  2  0  0  0
  5  6  1  0  0  0
  6  7  1  0  0  0
  7  8  2  0  0  0
 12 10  1  0  0  0
 15 13  1  0  0  0
  8  4  1  0  0  0
M  END
> <minimizedAffinity>
-4.54657

> <minimizedRMSD>
0.95067

$$$$
C52382-P224


 22 24  0  0  0  0  0  0  0  0999 V2000
    8.3425   13.2936   23.7442 N   0  0  0  0  0  0  0  0  0  0  0  0
    8.9639   12.4855   23.7102 H   0  0  0  0  0  0  0  0  0  0  0  0
    8.0163   13.5002   25.1698 C   0  0  0  0  0  0  0  0  0  0  0  0
    9.2495   14.0176   25.9302 C   0  0  0  0  0  0  0  0  0  0  0  0
    8.6840   14.7816   27.1135 C   0  0  0  0  0  0  0  0  0  0  0  0
    7.4665   15.4896   26.5309 C   0  0  0  0  0  0  0  0  0  0  0  0
    6.9695   14.6352   25.3550 C   0  0  0  0  0  0  0  0  0  0  0  0
    7.4464   12.1837   25.7441 C   0  0  0  0  0  0  0  0  0  0  0  0
    6.3858   12.1682   26.6663 C   0  0  0  0  0  0  0  0  0  0  0  0
    5.7393   10.9855   26.9991 C   0  0  0  0  0  0  0  0  0  0  0  0
    6.1889    9.8213   26.4216 C   0  0  0  0  0  0  0  0  0  0  0  0
    7.2585    9.7562   25.6055 N   0  0  0  0  0  0  0  0  0  0  0  0
    7.8610   10.9298   25.2873 C   0  0  0  0  0  0  0  0  0  0  0  0
    8.3890   14.2806   21.5467 O   0  0  0  0  0  0  0  0  0  0  0  0
    9.0657   14.4752   22.8065 S   0  0  0  0  0  0  0  0  0  0  0  0
    8.9985   15.7305   23.5139 O   0  0  0  0  0  0  0  0  0  0  0  0
   10.7849   13.9308   22.7275 C   0  0  0  0  0  0  0  0  0  0  0  0
   11.7524   15.1149   22.6414 C   0  0  0  0  0  0  0  0  0  0  0  0
   12.0467   15.6912   21.2470 C   0  0  0  0  0  0  0  0  0  0  0  0
   11.0808   15.2646   20.1966 C   0  0  0  0  0  0  0  0  0  0  0  0
   10.3193   16.0978   19.1848 C   0  0  0  0  0  0  0  0  0  0  0  0
   11.5839   15.4471   18.7917 C   0  0  0  0  0  0  0  0  0  0  0  0
 14 15  2  0  0  0
 15 16  2  0  0  0
 15 17  1  0  0  0
 17 18  1  0  0  0
 18 19  1  0  0  0
 19 20  1  0  0  0
 20 21  1  0  0  0
 21 22  1  0  0  0
 15  1  1  0  0  0
  1  3  1  0  0  0
  3  8  1  0  0  0
  8  9  2  0  0  0
  9 10  1  0  0  0
 10 11  2  0  0  0
 11 12  1  0  0  0
 12 13  2  0  0  0
  3  4  1  0  0  0
  4  5  1  0  0  0
  5  6  1  0  0  0
  6  7  1  0  0  0
 22 20  1  0  0  0
  7  3  1  0  0  0
 13  8  1  0  0  0
  1  2  1  0  0  0
M  END
> <minimizedAffinity>
-5.98568

> <minimizedRMSD>
0.47966

$$$$
C52408-P224


 26 28  0  0  0  0  0  0  0  0999 V2000
    6.0230   15.9494   22.5224 N   0  0  0  0  0  0  0  0  0  0  0  0
    5.9696   16.9152   22.7057 H   0  0  0  0  0  0  0  0  0  0  0  0
    4.8434   15.1921   22.1290 C   0  0  0  0  0  0  0  0  0  0  0  0
    4.4843   14.7829   20.8713 C   0  0  0  0  0  0  0  0  0  0  0  0
    3.2132   14.1497   21.0203 C   0  0  0  0  0  0  0  0  0  0  0  0
    2.8187   14.1939   22.3043 N   0  0  0  0  0  0  0  0  0  0  0  0
    3.8617   14.7332   22.9535 N   0  0  0  0  0  0  0  0  0  0  0  0
    3.9125   14.7918   23.9350 H   0  0  0  0  0  0  0  0  0  0  0  0
    2.3746   13.5201   20.0027 C   0  0  0  0  0  0  0  0  0  0  0  0
    2.8666   13.1466   18.7520 C   0  0  0  0  0  0  0  0  0  0  0  0
    2.0139   12.5613   17.8159 C   0  0  0  0  0  0  0  0  0  0  0  0
    0.6908   12.3496   18.1631 C   0  0  0  0  0  0  0  0  0  0  0  0
    0.1718   12.6829   19.3619 N   0  0  0  0  0  0  0  0  0  0  0  0
    1.0246   13.2641   20.2456 C   0  0  0  0  0  0  0  0  0  0  0  0
    7.4888   15.1141   22.6541 S   0  0  0  0  0  0  0  0  0  0  0  0
    8.5277   16.0641   22.3281 O   0  0  0  0  0  0  0  0  0  0  0  0
    7.3868   13.8539   21.9508 O   0  0  0  0  0  0  0  0  0  0  0  0
    7.4923   14.8590   24.4194 C   0  0  0  0  0  0  0  0  0  0  0  0
    9.0757   14.7561   26.3405 C   0  0  0  0  0  0  0  0  0  0  0  0
    8.7853   14.2282   24.9297 C   0  0  0  0  0  0  0  0  0  0  0  0
    8.7195   12.7128   24.8767 C   0  0  0  0  0  0  0  0  0  0  0  0
    7.7470   11.9804   25.5752 C   0  0  0  0  0  0  0  0  0  0  0  0
    7.6675   10.5929   25.4453 C   0  0  0  0  0  0  0  0  0  0  0  0
    8.5419    9.9217   24.5975 C   0  0  0  0  0  0  0  0  0  0  0  0
    9.4935   10.6394   23.8818 C   0  0  0  0  0  0  0  0  0  0  0  0
    9.5983   12.0206   24.0316 C   0  0  0  0  0  0  0  0  0  0  0  0
 20 19  1  0  0  0
 20 18  1  0  0  0
 18 15  1  0  0  0
 15 16  2  0  0  0
 15 17  2  0  0  0
 15  1  1  0  0  0
  1  3  1  0  0  0
  3  4  2  0  0  0
  4  5  1  0  0  0
  5  9  1  0  0  0
  9 10  2  0  0  0
 10 11  1  0  0  0
 11 12  2  0  0  0
 12 13  1  0  0  0
 13 14  2  0  0  0
  5  6  2  0  0  0
  6  7  1  0  0  0
 20 21  1  0  0  0
 21 22  2  0  0  0
 22 23  1  0  0  0
 23 24  2  0  0  0
 24 25  1  0  0  0
 25 26  2  0  0  0
  7  3  1  0  0  0
 26 21  1  0  0  0
 14  9  1  0  0  0
  1  2  1  0  0  0
  7  8  1  0  0  0
M  END
> <minimizedAffinity>
-6.64471

> <minimizedRMSD>
0.73087

$$$$
C66854-P120


 20 20  0  0  0  0  0  0  0  0999 V2000
    5.3489   11.1265   26.5946 N   0  0  0  0  0  0  0  0  0  0  0  0
    5.0153   10.4984   27.9687 C   0  0  0  0  0  0  0  0  0  0  0  0
    5.7165   10.0356   28.7788 O   0  0  0  0  0  0  0  0  0  0  0  0
    4.5648   11.3799   26.0559 H   0  0  0  0  0  0  0  0  0  0  0  0
    7.8250   12.6127   24.3732 N   0  0  0  0  0  0  0  0  0  0  0  0
    8.1611   11.2117   24.2250 C   0  0  0  0  0  0  0  0  0  0  0  0
    7.0499   10.4420   24.9045 C   0  0  0  0  0  0  0  0  0  0  0  0
    6.6117   11.3990   25.9796 C   0  0  0  0  0  0  0  0  0  0  0  0
    6.8803   12.7820   25.3973 C   0  0  0  0  0  0  0  0  0  0  0  0
    6.4480   13.8287   25.8505 O   0  0  0  0  0  0  0  0  0  0  0  0
    7.9287   14.8924   23.3431 C   0  0  0  0  0  0  0  0  0  0  0  0
    8.6989   13.6797   23.8555 C   0  0  0  0  0  0  0  0  0  0  0  0
    9.7475   14.1489   24.8530 C   0  0  0  0  0  0  0  0  0  0  0  0
    3.5079   10.5723   28.1490 C   0  0  0  0  0  0  0  0  0  0  0  0
    3.1067   10.1155   29.5602 C   0  0  0  0  0  0  0  0  0  0  0  0
    2.8903   11.3178   30.4844 C   0  0  0  0  0  0  0  0  0  0  0  0
    1.8525    9.2716   29.4910 C   0  0  0  0  0  0  0  0  0  0  0  0
    1.7538    8.4591   30.5644 F   0  0  0  0  0  0  0  0  0  0  0  0
    1.8530    8.4874   28.3884 F   0  0  0  0  0  0  0  0  0  0  0  0
    0.7427   10.0386   29.4402 F   0  0  0  0  0  0  0  0  0  0  0  0
 11 12  1  0  0  0
 12 13  1  0  0  0
 12  5  1  0  0  0
  5  6  1  0  0  0
  6  7  1  0  0  0
  7  8  1  0  0  0
  8  1  1  0  0  0
  1  2  1  0  0  0
  2  3  2  0  0  0
  2 14  1  0  0  0
 14 15  1  0  0  0
 15 16  1  0  0  0
 15 17  1  0  0  0
 17 18  1  0  0  0
 17 19  1  0  0  0
 17 20  1  0  0  0
  8  9  1  0  0  0
  9 10  2  0  0  0
  9  5  1  0  0  0
  1  4  1  0  0  0
M  END
> <minimizedAffinity>
-4.50598

> <minimizedRMSD>
0.85394

$$$$
C2716-P8


 11 12  0  0  0  0  0  0  0  0999 V2000
    2.3634   12.6294   17.9005 C   0  0  0  0  0  0  0  0  0  0  0  0
    1.8361   11.2924   18.4105 C   0  0  0  0  0  0  0  0  0  0  0  0
    2.1415   11.1711   19.8986 C   0  0  0  0  0  0  0  0  0  0  0  0
    3.6505   11.2574   20.0895 C   0  0  0  0  0  0  0  0  0  0  0  0
    4.1685   12.4925   19.6104 O   0  0  0  0  0  0  0  0  0  0  0  0
    3.8477   12.7627   18.2360 C   0  0  0  0  0  0  0  0  0  0  0  0
    1.2756   15.1635   20.0655 C   0  0  0  0  0  0  0  0  0  0  0  0
    0.0547   14.7393   19.8019 N   0  0  0  0  0  0  0  0  0  0  0  0
    0.2236   13.7726   18.8542 C   0  0  0  0  0  0  0  0  0  0  0  0
    1.5592   13.6644   18.5755 C   0  0  0  0  0  0  0  0  0  0  0  0
    2.2332   14.5899   19.3157 O   0  0  0  0  0  0  0  0  0  0  0  0
  7  8  2  0  0  0
  8  9  1  0  0  0
  9 10  2  0  0  0
  1 10  1  0  0  0
  1  2  1  0  0  0
  2  3  1  0  0  0
  3  4  1  0  0  0
  4  5  1  0  0  0
  5  6  1  0  0  0
 10 11  1  0  0  0
 11  7  1  0  0  0
  6  1  1  0  0  0
M  END
> <minimizedAffinity>
-4.61728

> <minimizedRMSD>
1.47101

$$$$
C3806-P190


 13 14  0  0  0  0  0  0  0  0999 V2000
    7.9378   11.9561   24.0825 C   0  0  0  0  0  0  0  0  0  0  0  0
    9.3622   11.5129   23.7559 C   0  0  0  0  0  0  0  0  0  0  0  0
    9.4596   10.0225   23.4254 C   0  0  0  0  0  0  0  0  0  0  0  0
    8.2363    9.1942   23.7822 C   0  0  0  0  0  0  0  0  0  0  0  0
    7.5470    9.6028   24.9940 N   0  0  0  0  0  0  0  0  0  0  0  0
    7.2643   11.0272   25.1046 C   0  0  0  0  0  0  0  0  0  0  0  0
    8.1253    9.3344   25.7901 H   0  0  0  0  0  0  0  0  0  0  0  0
    8.7348   14.1657   25.2823 C   0  0  0  0  0  0  0  0  0  0  0  0
    8.2991   15.4097   25.4926 N   0  0  0  0  0  0  0  0  0  0  0  0
    7.1333   15.4524   24.8289 N   0  0  0  0  0  0  0  0  0  0  0  0
    6.8064   14.2693   24.2374 C   0  0  0  0  0  0  0  0  0  0  0  0
    7.8371   13.3920   24.5093 C   0  0  0  0  0  0  0  0  0  0  0  0
    6.5704   16.2583   24.7749 H   0  0  0  0  0  0  0  0  0  0  0  0
  8  9  2  0  0  0
  9 10  1  0  0  0
 10 11  1  0  0  0
 11 12  2  0  0  0
  1 12  1  0  0  0
  1  2  1  0  0  0
  2  3  1  0  0  0
  3  4  1  0  0  0
  4  5  1  0  0  0
  5  6  1  0  0  0
 12  8  1  0  0  0
  6  1  1  0  0  0
 10 13  1  0  0  0
  5  7  1  0  0  0
M  END
> <minimizedAffinity>
-3.61676

> <minimizedRMSD>
0.41672

$$$$
C46321-P322


 24 26  0  0  0  0  0  0  0  0999 V2000
   23.4179   20.8215   20.5867 C   0  0  0  0  0  0  0  0  0  0  0  0
   23.0518   21.2652   19.3769 N   0  0  0  0  0  0  0  0  0  0  0  0
   24.2104   21.6651   18.8183 N   0  0  0  0  0  0  0  0  0  0  0  0
   25.3047   21.5183   19.6256 C   0  0  0  0  0  0  0  0  0  0  0  0
   26.6583   21.7866   19.4042 C   0  0  0  0  0  0  0  0  0  0  0  0
   27.5278   21.5789   20.4799 C   0  0  0  0  0  0  0  0  0  0  0  0
   27.0568   21.1052   21.7117 C   0  0  0  0  0  0  0  0  0  0  0  0
   25.6992   20.7808   21.8830 C   0  0  0  0  0  0  0  0  0  0  0  0
   24.8112   20.9980   20.8142 C   0  0  0  0  0  0  0  0  0  0  0  0
   24.2649   22.0318   17.9063 H   0  0  0  0  0  0  0  0  0  0  0  0
   27.9916   21.0956   22.8814 C   0  0  0  0  0  0  0  0  0  0  0  0
   28.7021   22.0082   23.0200 O   0  0  0  0  0  0  0  0  0  0  0  0
   27.7595   19.8673   23.7779 N   0  0  0  0  0  0  0  0  0  0  0  0
   27.0417   19.2656   23.4748 H   0  0  0  0  0  0  0  0  0  0  0  0
   28.4257   19.4516   24.9962 C   0  0  0  0  0  0  0  0  0  0  0  0
   28.1128   17.9872   25.3117 C   0  0  0  0  0  0  0  0  0  0  0  0
   28.9084   17.5079   26.5223 C   0  0  0  0  0  0  0  0  0  0  0  0
   30.4014   17.7823   26.3537 C   0  0  0  0  0  0  0  0  0  0  0  0
   30.6589   19.1988   26.1149 N   0  0  0  0  0  0  0  0  0  0  0  0
   29.9459   19.6843   24.9235 C   0  0  0  0  0  0  0  0  0  0  0  0
   31.6607   19.3352   25.9799 H   0  0  0  0  0  0  0  0  0  0  0  0
   22.4126   20.1813   21.4876 C   0  0  0  0  0  0  0  0  0  0  0  0
   20.1340   20.2965   22.5490 C   0  0  0  0  0  0  0  0  0  0  0  0
   21.1717   21.0401   21.7227 C   0  0  0  0  0  0  0  0  0  0  0  0
 23 24  1  0  0  0
 24 22  1  0  0  0
 22  1  1  0  0  0
  1  2  2  0  0  0
  2  3  1  0  0  0
  3  4  1  0  0  0
  4  5  2  0  0  0
  5  6  1  0  0  0
  6  7  2  0  0  0
  7 11  1  0  0  0
 11 12  2  0  0  0
 11 13  1  0  0  0
 15 13  1  0  0  0
 15 16  1  0  0  0
 16 17  1  0  0  0
 17 18  1  0  0  0
 18 19  1  0  0  0
 19 20  1  0  0  0
  7  8  1  0  0  0
  8  9  2  0  0  0
  9  1  1  0  0  0
  9  4  1  0  0  0
 20 15  1  0  0  0
  3 10  1  0  0  0
 13 14  1  0  0  0
 19 21  1  0  0  0
M  END
> <minimizedAffinity>
-2.85717

> <minimizedRMSD>
1.32185

$$$$
C46339-P322


 19 21  0  0  0  0  0  0  0  0999 V2000
   27.9797   21.4550   18.8265 C   0  0  0  0  0  0  0  0  0  0  0  0
   27.3690   22.0316   17.7053 C   0  0  0  0  0  0  0  0  0  0  0  0
   25.9922   22.2341   17.7751 C   0  0  0  0  0  0  0  0  0  0  0  0
   25.0996   22.7437   16.8707 N   0  0  0  0  0  0  0  0  0  0  0  0
   23.8223   22.7676   17.3084 N   0  0  0  0  0  0  0  0  0  0  0  0
   23.9153   22.2453   18.5354 C   0  0  0  0  0  0  0  0  0  0  0  0
   25.2370   21.8893   18.8841 C   0  0  0  0  0  0  0  0  0  0  0  0
   25.8803   21.3331   20.0059 C   0  0  0  0  0  0  0  0  0  0  0  0
   27.2639   21.0942   19.9795 C   0  0  0  0  0  0  0  0  0  0  0  0
   25.3657   23.0647   15.9788 H   0  0  0  0  0  0  0  0  0  0  0  0
   27.9963   20.6591   21.0841 N   0  0  0  0  0  0  0  0  0  0  0  0
   28.9762   20.7522   21.0632 H   0  0  0  0  0  0  0  0  0  0  0  0
   27.3784   20.0719   22.2702 C   0  0  0  0  0  0  0  0  0  0  0  0
   28.3167   20.3053   23.4641 C   0  0  0  0  0  0  0  0  0  0  0  0
   27.7995   19.5865   24.7063 C   0  0  0  0  0  0  0  0  0  0  0  0
   27.5663   18.1039   24.4270 C   0  0  0  0  0  0  0  0  0  0  0  0
   26.6386   17.8875   23.3119 N   0  0  0  0  0  0  0  0  0  0  0  0
   27.1290   18.5584   22.0919 C   0  0  0  0  0  0  0  0  0  0  0  0
   25.7240   18.2660   23.5582 H   0  0  0  0  0  0  0  0  0  0  0  0
  1  2  2  0  0  0
  2  3  1  0  0  0
  3  4  1  0  0  0
  4  5  1  0  0  0
  5  6  2  0  0  0
  6  7  1  0  0  0
  7  8  1  0  0  0
  8  9  2  0  0  0
  9 11  1  0  0  0
 13 11  1  0  0  0
 13 14  1  0  0  0
 14 15  1  0  0  0
 15 16  1  0  0  0
 16 17  1  0  0  0
 17 18  1  0  0  0
  9  1  1  0  0  0
 18 13  1  0  0  0
  7  3  2  0  0  0
  4 10  1  0  0  0
 11 12  1  0  0  0
 17 19  1  0  0  0
M  END
> <minimizedAffinity>
-3.85417

> <minimizedRMSD>
2.11327

$$$$
C46343-P322


 22 24  0  0  0  0  0  0  0  0999 V2000
   23.4247   22.9218   16.8491 N   0  0  0  0  0  0  0  0  0  0  0  0
   22.2045   22.6984   17.3901 N   0  0  0  0  0  0  0  0  0  0  0  0
   22.4884   22.1413   18.5697 C   0  0  0  0  0  0  0  0  0  0  0  0
   23.8740   21.9764   18.7820 C   0  0  0  0  0  0  0  0  0  0  0  0
   24.6872   21.4576   19.8042 C   0  0  0  0  0  0  0  0  0  0  0  0
   26.0790   21.4482   19.6266 C   0  0  0  0  0  0  0  0  0  0  0  0
   26.6527   21.9354   18.4529 C   0  0  0  0  0  0  0  0  0  0  0  0
   25.8564   22.4777   17.4374 C   0  0  0  0  0  0  0  0  0  0  0  0
   24.4671   22.4860   17.6314 C   0  0  0  0  0  0  0  0  0  0  0  0
   28.0229   21.8502   18.2237 N   0  0  0  0  0  0  0  0  0  0  0  0
   29.1408   21.1165   19.0285 C   0  0  0  0  0  0  0  0  0  0  0  0
   29.0882   20.5398   20.0447 O   0  0  0  0  0  0  0  0  0  0  0  0
   28.3379   22.3307   17.4242 H   0  0  0  0  0  0  0  0  0  0  0  0
   30.4296   21.2559   18.2055 C   0  0  0  0  0  0  0  0  0  0  0  0
   31.2783   19.9795   18.2902 C   0  0  0  0  0  0  0  0  0  0  0  0
   32.6124   20.1742   17.5755 C   0  0  0  0  0  0  0  0  0  0  0  0
   33.3333   21.4202   18.0868 C   0  0  0  0  0  0  0  0  0  0  0  0
   32.4998   22.6201   17.9634 N   0  0  0  0  0  0  0  0  0  0  0  0
   31.2393   22.4596   18.7001 C   0  0  0  0  0  0  0  0  0  0  0  0
   32.2925   22.7831   16.9781 H   0  0  0  0  0  0  0  0  0  0  0  0
   23.6574   25.0935   15.7092 C   0  0  0  0  0  0  0  0  0  0  0  0
   23.5160   23.5888   15.5639 C   0  0  0  0  0  0  0  0  0  0  0  0
 21 22  1  0  0  0
 22  1  1  0  0  0
  1  2  1  0  0  0
  2  3  2  0  0  0
  3  4  1  0  0  0
  4  5  2  0  0  0
  5  6  1  0  0  0
  6  7  2  0  0  0
  7 10  1  0  0  0
 10 11  1  0  0  0
 11 12  2  0  0  0
 14 11  1  0  0  0
 14 15  1  0  0  0
 15 16  1  0  0  0
 16 17  1  0  0  0
 17 18  1  0  0  0
 18 19  1  0  0  0
  7  8  1  0  0  0
  8  9  2  0  0  0
  9  1  1  0  0  0
  9  4  1  0  0  0
 19 14  1  0  0  0
 10 13  1  0  0  0
 18 20  1  0  0  0
M  END
> <minimizedAffinity>
-4.23595

> <minimizedRMSD>
1.90731

$$$$
C46353-P322


 20 22  0  0  0  0  0  0  0  0999 V2000
   29.1413   20.5160   20.2437 C   0  0  0  0  0  0  0  0  0  0  0  0
   28.6584   21.3140   19.2026 C   0  0  0  0  0  0  0  0  0  0  0  0
   27.2868   21.6036   19.0541 C   0  0  0  0  0  0  0  0  0  0  0  0
   26.4496   21.0308   20.0269 C   0  0  0  0  0  0  0  0  0  0  0  0
   25.0865   21.0840   20.1731 N   0  0  0  0  0  0  0  0  0  0  0  0
   24.6132   20.4033   21.2382 N   0  0  0  0  0  0  0  0  0  0  0  0
   25.7239   19.9048   21.7896 C   0  0  0  0  0  0  0  0  0  0  0  0
   26.8974   20.2429   21.0773 C   0  0  0  0  0  0  0  0  0  0  0  0
   28.2710   19.9787   21.1985 C   0  0  0  0  0  0  0  0  0  0  0  0
   24.5023   21.5774   19.5529 H   0  0  0  0  0  0  0  0  0  0  0  0
   26.8231   22.5354   17.9559 C   0  0  0  0  0  0  0  0  0  0  0  0
   25.4504   22.2450   17.5099 N   0  0  0  0  0  0  0  0  0  0  0  0
   24.8034   22.4654   18.2670 H   0  0  0  0  0  0  0  0  0  0  0  0
   25.0821   23.0380   16.3202 C   0  0  0  0  0  0  0  0  0  0  0  0
   25.8182   24.3885   16.3227 C   0  0  0  0  0  0  0  0  0  0  0  0
   25.3261   25.2826   15.1853 C   0  0  0  0  0  0  0  0  0  0  0  0
   23.8074   25.4348   15.2080 C   0  0  0  0  0  0  0  0  0  0  0  0
   23.1500   24.1319   15.1550 N   0  0  0  0  0  0  0  0  0  0  0  0
   23.5524   23.2911   16.2879 C   0  0  0  0  0  0  0  0  0  0  0  0
   23.4064   23.6644   14.2855 H   0  0  0  0  0  0  0  0  0  0  0  0
  1  2  2  0  0  0
  2  3  1  0  0  0
  3 11  1  0  0  0
 11 12  1  0  0  0
 14 12  1  0  0  0
 14 15  1  0  0  0
 15 16  1  0  0  0
 16 17  1  0  0  0
 17 18  1  0  0  0
 18 19  1  0  0  0
  3  4  2  0  0  0
  4  5  1  0  0  0
  5  6  1  0  0  0
  6  7  2  0  0  0
  7  8  1  0  0  0
  8  9  2  0  0  0
  9  1  1  0  0  0
 19 14  1  0  0  0
  8  4  1  0  0  0
 12 13  1  0  0  0
 18 20  1  0  0  0
  5 10  1  0  0  0
M  END
> <minimizedAffinity>
-3.26500

> <minimizedRMSD>
1.76952

$$$$
C54664-P617


 23 26  0  0  0  0  0  0  0  0999 V2000
   22.7702   24.3406   16.6329 N   0  0  0  0  0  0  0  0  0  0  0  0
   23.6836   25.1029   17.4872 C   0  0  0  0  0  0  0  0  0  0  0  0
   24.8973   24.2427   17.8414 C   0  0  0  0  0  0  0  0  0  0  0  0
   24.5406   22.7626   18.0943 C   0  0  0  0  0  0  0  0  0  0  0  0
   23.0683   22.6492   18.4894 C   0  0  0  0  0  0  0  0  0  0  0  0
   22.1696   23.2233   17.3869 C   0  0  0  0  0  0  0  0  0  0  0  0
   25.4726   22.1720   19.0525 N   0  0  0  0  0  0  0  0  0  0  0  0
   25.0564   21.7983   20.2890 N   0  0  0  0  0  0  0  0  0  0  0  0
   26.1911   21.4593   20.9066 C   0  0  0  0  0  0  0  0  0  0  0  0
   27.3337   21.6176   20.0947 C   0  0  0  0  0  0  0  0  0  0  0  0
   28.7185   21.4268   20.2479 C   0  0  0  0  0  0  0  0  0  0  0  0
   29.5636   21.7046   19.1667 C   0  0  0  0  0  0  0  0  0  0  0  0
   29.0456   22.1545   17.9536 C   0  0  0  0  0  0  0  0  0  0  0  0
   27.6710   22.3426   17.7819 C   0  0  0  0  0  0  0  0  0  0  0  0
   26.8372   22.0711   18.8771 C   0  0  0  0  0  0  0  0  0  0  0  0
   22.0633   28.5049   14.6234 O   0  0  0  0  0  0  0  0  0  0  0  0
   22.0678   27.3082   14.8618 C   0  0  0  0  0  0  0  0  0  0  0  0
   22.0467   26.6992   16.2296 C   0  0  0  0  0  0  0  0  0  0  0  0
   21.7576   25.2103   15.9864 C   0  0  0  0  0  0  0  0  0  0  0  0
   21.7445   25.1204   14.4609 C   0  0  0  0  0  0  0  0  0  0  0  0
   21.4100   24.1488   13.7980 O   0  0  0  0  0  0  0  0  0  0  0  0
   22.0669   26.3259   13.9338 N   0  0  0  0  0  0  0  0  0  0  0  0
   22.2766   26.4700   12.9828 H   0  0  0  0  0  0  0  0  0  0  0  0
 16 17  2  0  0  0
 17 18  1  0  0  0
 18 19  1  0  0  0
 19  1  1  0  0  0
  1  2  1  0  0  0
  2  3  1  0  0  0
  3  4  1  0  0  0
  4  7  1  0  0  0
  7  8  1  0  0  0
  8  9  2  0  0  0
  9 10  1  0  0  0
 10 11  2  0  0  0
 11 12  1  0  0  0
 12 13  2  0  0  0
 13 14  1  0  0  0
 14 15  2  0  0  0
  4  5  1  0  0  0
  5  6  1  0  0  0
 19 20  1  0  0  0
 20 21  2  0  0  0
 20 22  1  0  0  0
 22 17  1  0  0  0
  6  1  1  0  0  0
 15  7  1  0  0  0
 15 10  1  0  0  0
 22 23  1  0  0  0
M  END
> <minimizedAffinity>
-3.92400

> <minimizedRMSD>
1.92656

$$$$
C56883-P444


 23 24  0  0  0  0  0  0  0  0999 V2000
    7.5592   11.8826   24.4719 C   0  0  0  0  0  0  0  0  0  0  0  0
    8.9931   11.3918   24.4528 C   0  0  0  0  0  0  0  0  0  0  0  0
    9.9080   12.4402   23.8258 C   0  0  0  0  0  0  0  0  0  0  0  0
    9.8697   13.6468   24.6243 N   0  0  0  0  0  0  0  0  0  0  0  0
    8.5917   14.1368   25.1201 C   0  0  0  0  0  0  0  0  0  0  0  0
    7.3740   13.3891   24.6053 C   0  0  0  0  0  0  0  0  0  0  0  0
    5.9959   11.4424   26.6559 C   0  0  0  0  0  0  0  0  0  0  0  0
    6.1358   12.3638   27.3570 O   0  0  0  0  0  0  0  0  0  0  0  0
    6.6584   11.1062   25.2951 N   0  0  0  0  0  0  0  0  0  0  0  0
    6.4286   10.2203   24.9324 H   0  0  0  0  0  0  0  0  0  0  0  0
    4.9796   10.3177   26.8933 C   0  0  0  0  0  0  0  0  0  0  0  0
    2.6816   11.1422   27.6426 C   0  0  0  0  0  0  0  0  0  0  0  0
    4.0240   10.5419   28.0769 C   0  0  0  0  0  0  0  0  0  0  0  0
    3.7524    9.2121   28.7714 C   0  0  0  0  0  0  0  0  0  0  0  0
    2.8966    9.3706   29.8069 F   0  0  0  0  0  0  0  0  0  0  0  0
    4.8768    8.6551   29.2598 F   0  0  0  0  0  0  0  0  0  0  0  0
    3.1917    8.3204   27.9192 F   0  0  0  0  0  0  0  0  0  0  0  0
   10.9428   14.6193   24.4757 C   0  0  0  0  0  0  0  0  0  0  0  0
   11.1071   15.2361   23.1240 C   0  0  0  0  0  0  0  0  0  0  0  0
   12.2515   15.1291   22.2916 C   0  0  0  0  0  0  0  0  0  0  0  0
   11.9414   15.8779   21.1894 C   0  0  0  0  0  0  0  0  0  0  0  0
   10.7032   16.4101   21.3402 O   0  0  0  0  0  0  0  0  0  0  0  0
   10.1732   16.0129   22.5567 N   0  0  0  0  0  0  0  0  0  0  0  0
 13 12  1  0  0  0
 13 11  1  0  0  0
 11  7  1  0  0  0
  7  8  2  0  0  0
  7  9  1  0  0  0
  9  1  1  0  0  0
  1  2  1  0  0  0
  2  3  1  0  0  0
  3  4  1  0  0  0
  4 18  1  0  0  0
 18 19  1  0  0  0
 19 20  1  0  0  0
 20 21  2  0  0  0
 21 22  1  0  0  0
 22 23  1  0  0  0
  4  5  1  0  0  0
  5  6  1  0  0  0
 13 14  1  0  0  0
 14 15  1  0  0  0
 14 16  1  0  0  0
 14 17  1  0  0  0
  6  1  1  0  0  0
 23 19  2  0  0  0
  9 10  1  0  0  0
M  END
> <minimizedAffinity>
-5.73899

> <minimizedRMSD>
1.88026

$$$$
C57129-P322


 24 26  0  0  0  0  0  0  0  0999 V2000
   17.0930   13.2625    4.0834 O   0  0  0  0  0  0  0  0  0  0  0  0
   17.4680   14.1069    3.3693 C   0  0  0  0  0  0  0  0  0  0  0  0
   18.8829   14.3870    2.8008 N   0  0  0  0  0  0  0  0  0  0  0  0
   18.9590   15.2154    2.2743 H   0  0  0  0  0  0  0  0  0  0  0  0
   16.5545   15.2364    2.8963 C   0  0  0  0  0  0  0  0  0  0  0  0
   16.0219   16.0536    4.0863 C   0  0  0  0  0  0  0  0  0  0  0  0
   14.5906   15.5908    4.4359 C   0  0  0  0  0  0  0  0  0  0  0  0
   13.7290   16.7566    4.9068 C   0  0  0  0  0  0  0  0  0  0  0  0
   13.6740   17.8623    3.8456 C   0  0  0  0  0  0  0  0  0  0  0  0
   14.9208   18.0495    3.0905 N   0  0  0  0  0  0  0  0  0  0  0  0
   16.0762   17.5776    3.8521 C   0  0  0  0  0  0  0  0  0  0  0  0
   15.0400   19.0416    2.8857 H   0  0  0  0  0  0  0  0  0  0  0  0
   20.1055   13.6313    2.9181 C   0  0  0  0  0  0  0  0  0  0  0  0
   20.6996   13.3566    1.5398 C   0  0  0  0  0  0  0  0  0  0  0  0
   22.0356   14.0689    1.3215 C   0  0  0  0  0  0  0  0  0  0  0  0
   23.1676   13.1128    1.2059 C   0  0  0  0  0  0  0  0  0  0  0  0
   23.5080   12.4131    0.1415 N   0  0  0  0  0  0  0  0  0  0  0  0
   24.6488   11.7072    0.4336 N   0  0  0  0  0  0  0  0  0  0  0  0
   24.9858   11.9864    1.6723 C   0  0  0  0  0  0  0  0  0  0  0  0
   24.0658   12.8496    2.2018 N   0  0  0  0  0  0  0  0  0  0  0  0
   24.1512   13.4382    3.5198 C   0  0  0  0  0  0  0  0  0  0  0  0
   25.1934   12.7530    4.4076 C   0  0  0  0  0  0  0  0  0  0  0  0
   26.4636   12.4161    3.6222 C   0  0  0  0  0  0  0  0  0  0  0  0
   26.1478   11.4877    2.4472 C   0  0  0  0  0  0  0  0  0  0  0  0
  1  2  2  0  0  0
  2  5  1  0  0  0
  6  5  1  0  0  0
  6  7  1  0  0  0
  7  8  1  0  0  0
  8  9  1  0  0  0
  9 10  1  0  0  0
 10 11  1  0  0  0
  2  3  1  0  0  0
  3 13  1  0  0  0
 13 14  1  0  0  0
 14 15  1  0  0  0
 15 16  1  0  0  0
 16 17  2  0  0  0
 17 18  1  0  0  0
 18 19  2  0  0  0
 19 20  1  0  0  0
 20 21  1  0  0  0
 21 22  1  0  0  0
 22 23  1  0  0  0
 23 24  1  0  0  0
 11  6  1  0  0  0
 20 16  1  0  0  0
 24 19  1  0  0  0
 10 12  1  0  0  0
  3  4  1  0  0  0
M  END
> <minimizedAffinity>
-4.78655

> <minimizedRMSD>
2.02059

$$$$
C57139-P322


 22 24  0  0  0  0  0  0  0  0999 V2000
   24.1908   12.7563    2.1828 C   0  0  0  0  0  0  0  0  0  0  0  0
   23.8324   12.6830    0.9164 N   0  0  0  0  0  0  0  0  0  0  0  0
   24.7713   11.9428    0.2422 N   0  0  0  0  0  0  0  0  0  0  0  0
   25.7023   11.5880    1.1015 C   0  0  0  0  0  0  0  0  0  0  0  0
   25.3526   12.0536    2.3423 N   0  0  0  0  0  0  0  0  0  0  0  0
   26.1260   11.8604    3.5493 C   0  0  0  0  0  0  0  0  0  0  0  0
   27.2321   10.8167    3.3833 C   0  0  0  0  0  0  0  0  0  0  0  0
   27.9184   10.9463    2.0204 C   0  0  0  0  0  0  0  0  0  0  0  0
   26.9000   10.7201    0.8912 C   0  0  0  0  0  0  0  0  0  0  0  0
   27.5298   10.9214   -0.5008 C   0  0  0  0  0  0  0  0  0  0  0  0
   28.6272   11.2947   -0.6493 O   0  0  0  0  0  0  0  0  0  0  0  0
   26.4795   10.4430   -1.5419 N   0  0  0  0  0  0  0  0  0  0  0  0
   25.6408   10.1024   -1.1549 H   0  0  0  0  0  0  0  0  0  0  0  0
   26.5346   10.4168   -2.9918 C   0  0  0  0  0  0  0  0  0  0  0  0
   25.8337   11.6393   -3.5951 C   0  0  0  0  0  0  0  0  0  0  0  0
   24.3574   11.3904   -3.9212 C   0  0  0  0  0  0  0  0  0  0  0  0
   23.7670   10.2229   -3.1388 C   0  0  0  0  0  0  0  0  0  0  0  0
   24.4675    8.9687   -3.3973 N   0  0  0  0  0  0  0  0  0  0  0  0
   25.9261    9.1116   -3.5459 C   0  0  0  0  0  0  0  0  0  0  0  0
   24.0961    8.5663   -4.2579 H   0  0  0  0  0  0  0  0  0  0  0  0
   22.3887   14.3808    2.7354 C   0  0  0  0  0  0  0  0  0  0  0  0
   23.4788   13.4680    3.2771 C   0  0  0  0  0  0  0  0  0  0  0  0
 21 22  1  0  0  0
 22  1  1  0  0  0
  1  2  2  0  0  0
  2  3  1  0  0  0
  3  4  2  0  0  0
  4  5  1  0  0  0
  5  6  1  0  0  0
  6  7  1  0  0  0
  7  8  1  0  0  0
  8  9  1  0  0  0
  9 10  1  0  0  0
 10 11  2  0  0  0
 10 12  1  0  0  0
 14 12  1  0  0  0
 14 15  1  0  0  0
 15 16  1  0  0  0
 16 17  1  0  0  0
 17 18  1  0  0  0
 18 19  1  0  0  0
  5  1  1  0  0  0
 19 14  1  0  0  0
  9  4  1  0  0  0
 12 13  1  0  0  0
 18 20  1  0  0  0
M  END
> <minimizedAffinity>
-3.86520

> <minimizedRMSD>
2.29476

$$$$
C53768-P257


 15 16  0  0  0  0  0  0  0  0999 V2000
    8.5697   14.4386   22.4405 C   0  0  0  0  0  0  0  0  0  0  0  0
   10.4176   16.0997   22.1399 C   0  0  0  0  0  0  0  0  0  0  0  0
   10.4461   17.0247   20.9168 C   0  0  0  0  0  0  0  0  0  0  0  0
   10.3807   16.0813   19.7402 C   0  0  0  0  0  0  0  0  0  0  0  0
    9.3596   15.0854   20.2412 C   0  0  0  0  0  0  0  0  0  0  0  0
    9.7257   14.8823   21.6503 N   0  0  0  0  0  0  0  0  0  0  0  0
   12.0795   14.9931   24.1061 Cl  0  0  0  0  0  0  0  0  0  0  0  0
   11.8835   15.8083   22.5323 C   0  0  0  0  0  0  0  0  0  0  0  0
    8.8790   14.1424   23.9298 C   0  0  0  0  0  0  0  0  0  0  0  0
    8.8882   12.7419   24.4079 N   0  0  0  0  0  0  0  0  0  0  0  0
    9.5057   11.8125   23.4556 C   0  0  0  0  0  0  0  0  0  0  0  0
    9.6383   10.3969   23.9804 C   0  0  0  0  0  0  0  0  0  0  0  0
    8.4450    9.8913   24.7420 C   0  0  0  0  0  0  0  0  0  0  0  0
    7.6278   10.9577   25.4425 C   0  0  0  0  0  0  0  0  0  0  0  0
    7.5365   12.2879   24.7220 C   0  0  0  0  0  0  0  0  0  0  0  0
  7  8  1  0  0  0
  2  8  1  0  0  0
  2  3  1  0  0  0
  3  4  1  0  0  0
  4  5  1  0  0  0
  5  6  1  0  0  0
  6  1  1  0  0  0
  1  9  1  0  0  0
  9 10  1  0  0  0
 10 11  1  0  0  0
 11 12  1  0  0  0
 12 13  1  0  0  0
 13 14  1  0  0  0
 14 15  1  0  0  0
  6  2  1  0  0  0
 15 10  1  0  0  0
M  END
> <minimizedAffinity>
-5.26554

> <minimizedRMSD>
1.04296

$$$$
C48170-P128


 11 11  0  0  0  0  0  0  0  0999 V2000
   10.5242   11.7604   22.9160 C   0  0  0  0  0  0  0  0  0  0  0  0
    9.4841   11.1226   23.7657 C   0  0  0  0  0  0  0  0  0  0  0  0
    9.3209    9.8047   23.7051 N   0  0  0  0  0  0  0  0  0  0  0  0
    8.3283    9.5172   24.5508 N   0  0  0  0  0  0  0  0  0  0  0  0
    7.8455   10.6216   25.1727 C   0  0  0  0  0  0  0  0  0  0  0  0
    8.5536   11.6952   24.6658 C   0  0  0  0  0  0  0  0  0  0  0  0
    7.9859    8.6072   24.7053 H   0  0  0  0  0  0  0  0  0  0  0  0
    8.2920   13.1167   24.9895 C   0  0  0  0  0  0  0  0  0  0  0  0
    7.6643   13.8918   23.8400 C   0  0  0  0  0  0  0  0  0  0  0  0
    9.4887   13.7754   25.6026 C   0  0  0  0  0  0  0  0  0  0  0  0
    9.3960   14.6111   26.5026 O   0  0  0  0  0  0  0  0  0  0  0  0
  1  2  1  0  0  0
  2  3  2  0  0  0
  3  4  1  0  0  0
  4  5  1  0  0  0
  5  6  2  0  0  0
  6  8  1  0  0  0
  8  9  1  0  0  0
  8 10  1  0  0  0
 10 11  2  0  0  0
  6  2  1  0  0  0
  4  7  1  0  0  0
M  END
> <minimizedAffinity>
-4.23107

> <minimizedRMSD>
1.58825

$$$$
C48181-P128


 19 19  0  0  0  0  0  0  0  0999 V2000
    9.2427   12.2065   24.3188 C   0  0  0  0  0  0  0  0  0  0  0  0
   10.4745   11.9996   23.6580 C   0  0  0  0  0  0  0  0  0  0  0  0
   10.6770   10.7253   23.3766 N   0  0  0  0  0  0  0  0  0  0  0  0
    9.5468   10.1208   23.7503 N   0  0  0  0  0  0  0  0  0  0  0  0
    9.4240    8.7312   23.4125 C   0  0  0  0  0  0  0  0  0  0  0  0
    8.7023   10.9417   24.4674 C   0  0  0  0  0  0  0  0  0  0  0  0
    7.5581   10.5356   25.1099 N   0  0  0  0  0  0  0  0  0  0  0  0
    6.9194   11.0285   26.4143 C   0  0  0  0  0  0  0  0  0  0  0  0
    7.2172   11.9084   27.1146 O   0  0  0  0  0  0  0  0  0  0  0  0
    7.0682    9.8099   24.6597 H   0  0  0  0  0  0  0  0  0  0  0  0
    5.8622   10.2010   26.6402 O   0  0  0  0  0  0  0  0  0  0  0  0
    5.1550   10.2242   27.9120 C   0  0  0  0  0  0  0  0  0  0  0  0
    4.0033    9.2227   27.7417 C   0  0  0  0  0  0  0  0  0  0  0  0
    4.5610   11.6019   28.2359 C   0  0  0  0  0  0  0  0  0  0  0  0
    6.0668    9.7384   29.0438 C   0  0  0  0  0  0  0  0  0  0  0  0
    9.8074   14.4041   25.2866 C   0  0  0  0  0  0  0  0  0  0  0  0
    8.7020   13.5476   24.6703 C   0  0  0  0  0  0  0  0  0  0  0  0
    8.0733   14.2006   23.4398 C   0  0  0  0  0  0  0  0  0  0  0  0
    7.5988   13.5762   22.4883 O   0  0  0  0  0  0  0  0  0  0  0  0
 17 16  1  0  0  0
 17 18  1  0  0  0
 18 19  2  0  0  0
 17  1  1  0  0  0
  1  2  1  0  0  0
  2  3  2  0  0  0
  3  4  1  0  0  0
  4  5  1  0  0  0
  4  6  1  0  0  0
  6  7  1  0  0  0
  7  8  1  0  0  0
  8  9  2  0  0  0
  8 11  1  0  0  0
 11 12  1  0  0  0
 12 13  1  0  0  0
 12 14  1  0  0  0
 12 15  1  0  0  0
  6  1  2  0  0  0
  7 10  1  0  0  0
M  END
> <minimizedAffinity>
-5.38463

> <minimizedRMSD>
0.54061

$$$$
C58995-P337


 15 16  0  0  0  0  0  0  0  0999 V2000
    9.1078   14.6783   24.1416 C   0  0  0  0  0  0  0  0  0  0  0  0
    9.0479   13.1582   24.3826 C   0  0  0  0  0  0  0  0  0  0  0  0
    9.6154   12.2266   23.3100 C   0  0  0  0  0  0  0  0  0  0  0  0
    9.5899   10.7746   23.7752 C   0  0  0  0  0  0  0  0  0  0  0  0
    8.3205   10.3605   24.3364 N   0  0  0  0  0  0  0  0  0  0  0  0
    7.6796   11.2655   25.2615 C   0  0  0  0  0  0  0  0  0  0  0  0
    7.6355   12.6965   24.7532 C   0  0  0  0  0  0  0  0  0  0  0  0
    8.4748    9.4795   24.8267 H   0  0  0  0  0  0  0  0  0  0  0  0
    8.0688   14.5529   21.8724 C   0  0  0  0  0  0  0  0  0  0  0  0
    9.1163   15.0471   22.7435 N   0  0  0  0  0  0  0  0  0  0  0  0
   10.3079   15.4231   22.2207 C   0  0  0  0  0  0  0  0  0  0  0  0
   11.2633   16.1276   22.7974 N   0  0  0  0  0  0  0  0  0  0  0  0
   12.2842   16.1114   21.8817 C   0  0  0  0  0  0  0  0  0  0  0  0
   11.9119   15.3790   20.7838 C   0  0  0  0  0  0  0  0  0  0  0  0
   10.6363   14.9490   20.9813 O   0  0  0  0  0  0  0  0  0  0  0  0
  9 10  1  0  0  0
 10  1  1  0  0  0
  1  2  1  0  0  0
  2  3  1  0  0  0
  3  4  1  0  0  0
  4  5  1  0  0  0
  5  6  1  0  0  0
  6  7  1  0  0  0
 10 11  1  0  0  0
 11 12  2  0  0  0
 12 13  1  0  0  0
 13 14  2  0  0  0
 14 15  1  0  0  0
  7  2  1  0  0  0
 15 11  1  0  0  0
  5  8  1  0  0  0
M  END
> <minimizedAffinity>
-5.56251

> <minimizedRMSD>
0.88382

$$$$
C117753-P445


 15 16  0  0  0  0  0  0  0  0999 V2000
    8.4968   13.2635   25.0510 N   0  0  0  0  0  0  0  0  0  0  0  0
    9.8553   13.8091   24.9168 C   0  0  0  0  0  0  0  0  0  0  0  0
    8.2859   11.9632   24.6870 C   0  0  0  0  0  0  0  0  0  0  0  0
    7.3392   11.0210   25.1456 C   0  0  0  0  0  0  0  0  0  0  0  0
    7.5494    9.7956   24.6677 N   0  0  0  0  0  0  0  0  0  0  0  0
    8.6200    9.9533   23.8735 N   0  0  0  0  0  0  0  0  0  0  0  0
    9.2039    8.8184   23.2117 C   0  0  0  0  0  0  0  0  0  0  0  0
    9.0750   11.2361   23.8235 C   0  0  0  0  0  0  0  0  0  0  0  0
    6.5067   14.1943   26.3397 C   0  0  0  0  0  0  0  0  0  0  0  0
    7.4298   14.3051   25.1286 C   0  0  0  0  0  0  0  0  0  0  0  0
    6.6348   14.3874   23.8090 C   0  0  0  0  0  0  0  0  0  0  0  0
    7.2752   15.3169   22.7419 C   0  0  0  0  0  0  0  0  0  0  0  0
    6.4049   16.4041   23.2465 N   0  0  0  0  0  0  0  0  0  0  0  0
    5.4333   15.3678   23.6589 C   0  0  0  0  0  0  0  0  0  0  0  0
    6.0639   17.0418   22.5271 H   0  0  0  0  0  0  0  0  0  0  0  0
 10  9  1  0  0  0
 10 11  1  0  0  0
 11 12  1  0  0  0
 12 13  1  0  0  0
 13 14  1  0  0  0
 10  1  1  0  0  0
  1  2  1  0  0  0
  1  3  1  0  0  0
  3  4  1  0  0  0
  4  5  2  0  0  0
  5  6  1  0  0  0
  6  7  1  0  0  0
  6  8  1  0  0  0
 14 11  1  0  0  0
  8  3  2  0  0  0
 13 15  1  0  0  0
M  END
> <minimizedAffinity>
-5.13360

> <minimizedRMSD>
1.20712

$$$$
C117762-P445


 15 16  0  0  0  0  0  0  0  0999 V2000
    9.2856    9.5620   23.4050 C   0  0  0  0  0  0  0  0  0  0  0  0
    8.3293   10.2915   24.2057 N   0  0  0  0  0  0  0  0  0  0  0  0
    7.3921    9.5755   24.8746 N   0  0  0  0  0  0  0  0  0  0  0  0
    6.6849   10.4838   25.5379 C   0  0  0  0  0  0  0  0  0  0  0  0
    7.1639   11.7840   25.3370 C   0  0  0  0  0  0  0  0  0  0  0  0
    8.2433   11.6340   24.4800 C   0  0  0  0  0  0  0  0  0  0  0  0
    9.1073   12.8884   24.0998 C   0  0  0  0  0  0  0  0  0  0  0  0
   10.6111   12.8289   23.9159 C   0  0  0  0  0  0  0  0  0  0  0  0
   10.4910   13.5584   22.6398 N   0  0  0  0  0  0  0  0  0  0  0  0
    9.0678   13.2244   22.5853 C   0  0  0  0  0  0  0  0  0  0  0  0
   11.0418   13.1606   21.8791 H   0  0  0  0  0  0  0  0  0  0  0  0
    6.6536   13.0169   25.9626 C   0  0  0  0  0  0  0  0  0  0  0  0
    7.6502   13.6906   26.6018 F   0  0  0  0  0  0  0  0  0  0  0  0
    5.7217   12.7372   26.9047 F   0  0  0  0  0  0  0  0  0  0  0  0
    6.1004   13.8801   25.0835 F   0  0  0  0  0  0  0  0  0  0  0  0
  1  2  1  0  0  0
  2  3  1  0  0  0
  3  4  2  0  0  0
  4  5  1  0  0  0
  5 12  1  0  0  0
 12 13  1  0  0  0
 12 14  1  0  0  0
 12 15  1  0  0  0
  5  6  2  0  0  0
  6  7  1  0  0  0
  7  8  1  0  0  0
  8  9  1  0  0  0
  9 10  1  0  0  0
  6  2  1  0  0  0
 10  7  1  0  0  0
  9 11  1  0  0  0
M  END
> <minimizedAffinity>
-5.41981

> <minimizedRMSD>
0.59544

$$$$
C715-P557


 12 13  0  0  0  0  0  0  0  0999 V2000
    9.3812   11.5053   23.5597 C   0  0  0  0  0  0  0  0  0  0  0  0
    8.5419   11.4044   24.6520 C   0  0  0  0  0  0  0  0  0  0  0  0
    8.1321   12.4659   25.3722 N   0  0  0  0  0  0  0  0  0  0  0  0
    8.5527   13.6851   24.9363 C   0  0  0  0  0  0  0  0  0  0  0  0
    9.3868   13.9129   23.8378 C   0  0  0  0  0  0  0  0  0  0  0  0
    9.8102   12.7734   23.1627 C   0  0  0  0  0  0  0  0  0  0  0  0
    9.7623   15.2066   23.4843 N   0  0  0  0  0  0  0  0  0  0  0  0
   11.1151   15.5990   23.8906 C   0  0  0  0  0  0  0  0  0  0  0  0
   12.1338   15.3504   22.7840 C   0  0  0  0  0  0  0  0  0  0  0  0
   11.7225   16.0509   21.4952 C   0  0  0  0  0  0  0  0  0  0  0  0
   10.3319   15.5977   21.0686 C   0  0  0  0  0  0  0  0  0  0  0  0
    9.3027   15.7429   22.1887 C   0  0  0  0  0  0  0  0  0  0  0  0
  1  2  2  0  0  0
  2  3  1  0  0  0
  3  4  2  0  0  0
  4  5  1  0  0  0
  5  7  1  0  0  0
  7  8  1  0  0  0
  8  9  1  0  0  0
  9 10  1  0  0  0
 10 11  1  0  0  0
 11 12  1  0  0  0
  5  6  2  0  0  0
  6  1  1  0  0  0
 12  7  1  0  0  0
M  END
> <minimizedAffinity>
-4.89302

> <minimizedRMSD>
0.73378

$$$$
C9536-P122


  9  9  0  0  0  0  0  0  0  0999 V2000
   10.3383   12.4734   24.8249 N   0  0  0  0  0  0  0  0  0  0  0  0
    9.0773   12.3310   25.3596 C   0  0  0  0  0  0  0  0  0  0  0  0
    8.6320   11.0799   25.0073 C   0  0  0  0  0  0  0  0  0  0  0  0
    9.6952   10.5222   24.2948 C   0  0  0  0  0  0  0  0  0  0  0  0
   10.7347   11.3547   24.1939 N   0  0  0  0  0  0  0  0  0  0  0  0
   11.5250   14.2308   26.1038 C   0  0  0  0  0  0  0  0  0  0  0  0
   11.1152   13.7095   24.7343 C   0  0  0  0  0  0  0  0  0  0  0  0
   12.3625   13.6137   23.9165 C   0  0  0  0  0  0  0  0  0  0  0  0
   12.5770   14.2587   22.8977 O   0  0  0  0  0  0  0  0  0  0  0  0
  7  6  1  0  0  0
  7  8  1  0  0  0
  8  9  2  0  0  0
  7  1  1  0  0  0
  1  2  1  0  0  0
  2  3  2  0  0  0
  3  4  1  0  0  0
  4  5  2  0  0  0
  5  1  1  0  0  0
M  END
> <minimizedAffinity>
-3.83176

> <minimizedRMSD>
3.71418

$$$$
C46023-P304


 20 22  0  0  0  0  0  0  0  0999 V2000
    8.5615   13.9534   25.6374 C   0  0  0  0  0  0  0  0  0  0  0  0
    8.9866   14.5135   26.6447 O   0  0  0  0  0  0  0  0  0  0  0  0
    7.5616   12.8973   25.8269 C   0  0  0  0  0  0  0  0  0  0  0  0
    7.7838   11.6347   25.2547 C   0  0  0  0  0  0  0  0  0  0  0  0
    6.9522   10.5697   25.6027 C   0  0  0  0  0  0  0  0  0  0  0  0
    5.9356   10.7915   26.5195 C   0  0  0  0  0  0  0  0  0  0  0  0
    5.7138   12.0616   27.0527 C   0  0  0  0  0  0  0  0  0  0  0  0
    6.5075   13.1379   26.7089 C   0  0  0  0  0  0  0  0  0  0  0  0
    4.6634   11.9886   28.1092 C   0  0  0  0  0  0  0  0  0  0  0  0
    4.1673   10.5414   27.9307 C   0  0  0  0  0  0  0  0  0  0  0  0
    5.2122    9.8003   27.2152 N   0  0  0  0  0  0  0  0  0  0  0  0
    5.3724    8.8289   27.2197 H   0  0  0  0  0  0  0  0  0  0  0  0
    9.0473   14.1818   24.2186 C   0  0  0  0  0  0  0  0  0  0  0  0
   12.3393   16.3902   21.5026 C   0  0  0  0  0  0  0  0  0  0  0  0
   11.6757   15.1162   21.9870 C   0  0  0  0  0  0  0  0  0  0  0  0
   11.8967   14.9292   23.4898 C   0  0  0  0  0  0  0  0  0  0  0  0
   10.9392   15.7870   24.3113 C   0  0  0  0  0  0  0  0  0  0  0  0
    9.5235   15.5630   23.9798 N   0  0  0  0  0  0  0  0  0  0  0  0
    9.3151   15.9352   22.5664 C   0  0  0  0  0  0  0  0  0  0  0  0
   10.1893   15.1300   21.6025 C   0  0  0  0  0  0  0  0  0  0  0  0
 14 15  1  0  0  0
 15 16  1  0  0  0
 16 17  1  0  0  0
 17 18  1  0  0  0
 18 13  1  0  0  0
 13  1  1  0  0  0
  1  2  2  0  0  0
  1  3  1  0  0  0
  3  4  2  0  0  0
  4  5  1  0  0  0
  5  6  2  0  0  0
  6  7  1  0  0  0
  7  8  2  0  0  0
  7  9  1  0  0  0
  9 10  1  0  0  0
 10 11  1  0  0  0
 18 19  1  0  0  0
 19 20  1  0  0  0
 20 15  1  0  0  0
  8  3  1  0  0  0
 11  6  1  0  0  0
 11 12  1  0  0  0
M  END
> <minimizedAffinity>
-6.21039

> <minimizedRMSD>
0.74138

$$$$
C46024-P304


 20 22  0  0  0  0  0  0  0  0999 V2000
   10.3839   12.6913   24.2814 C   0  0  0  0  0  0  0  0  0  0  0  0
   11.2992   12.6547   25.1017 O   0  0  0  0  0  0  0  0  0  0  0  0
    9.1611   11.9554   24.6251 C   0  0  0  0  0  0  0  0  0  0  0  0
    9.0713   10.5939   24.2896 C   0  0  0  0  0  0  0  0  0  0  0  0
    7.9846    9.8414   24.7379 C   0  0  0  0  0  0  0  0  0  0  0  0
    7.0526   10.4528   25.5574 C   0  0  0  0  0  0  0  0  0  0  0  0
    7.1348   11.8165   25.8454 C   0  0  0  0  0  0  0  0  0  0  0  0
    8.1812   12.5931   25.3866 C   0  0  0  0  0  0  0  0  0  0  0  0
    5.9651   12.2190   26.6768 C   0  0  0  0  0  0  0  0  0  0  0  0
    5.4532   10.8353   27.1175 C   0  0  0  0  0  0  0  0  0  0  0  0
    5.9037    9.8623   26.1129 N   0  0  0  0  0  0  0  0  0  0  0  0
    5.4954    8.9967   25.8820 H   0  0  0  0  0  0  0  0  0  0  0  0
   10.4565   13.3466   22.9060 C   0  0  0  0  0  0  0  0  0  0  0  0
   10.3910   16.0197   19.2593 C   0  0  0  0  0  0  0  0  0  0  0  0
   10.8282   15.4523   20.6065 C   0  0  0  0  0  0  0  0  0  0  0  0
   11.8395   16.3948   21.2620 C   0  0  0  0  0  0  0  0  0  0  0  0
   12.2070   15.8934   22.6505 C   0  0  0  0  0  0  0  0  0  0  0  0
   10.9402   15.7114   23.4803 C   0  0  0  0  0  0  0  0  0  0  0  0
    9.9874   14.7479   22.9055 N   0  0  0  0  0  0  0  0  0  0  0  0
    9.6238   15.1890   21.5365 C   0  0  0  0  0  0  0  0  0  0  0  0
 15 14  1  0  0  0
 15 16  1  0  0  0
 16 17  1  0  0  0
 17 18  1  0  0  0
 18 19  1  0  0  0
 19 13  1  0  0  0
 13  1  1  0  0  0
  1  2  2  0  0  0
  1  3  1  0  0  0
  3  4  2  0  0  0
  4  5  1  0  0  0
  5  6  2  0  0  0
  6  7  1  0  0  0
  7  8  2  0  0  0
  7  9  1  0  0  0
  9 10  1  0  0  0
 10 11  1  0  0  0
 19 20  1  0  0  0
 20 15  1  0  0  0
  8  3  1  0  0  0
 11  6  1  0  0  0
 11 12  1  0  0  0
M  END
> <minimizedAffinity>
-6.93749

> <minimizedRMSD>
1.10054

$$$$
C46025-P304


 20 22  0  0  0  0  0  0  0  0999 V2000
   10.6348   12.8296   24.3392 C   0  0  0  0  0  0  0  0  0  0  0  0
   11.4858   12.8442   25.2252 O   0  0  0  0  0  0  0  0  0  0  0  0
    9.4217   12.0402   24.5823 C   0  0  0  0  0  0  0  0  0  0  0  0
    9.3872   10.6960   24.1792 C   0  0  0  0  0  0  0  0  0  0  0  0
    8.3019    9.8982   24.5415 C   0  0  0  0  0  0  0  0  0  0  0  0
    7.3181   10.4474   25.3448 C   0  0  0  0  0  0  0  0  0  0  0  0
    7.3399   11.8003   25.6870 C   0  0  0  0  0  0  0  0  0  0  0  0
    8.3817   12.6229   25.3093 C   0  0  0  0  0  0  0  0  0  0  0  0
    6.1274   12.1278   26.4899 C   0  0  0  0  0  0  0  0  0  0  0  0
    5.6526   10.7102   26.8623 C   0  0  0  0  0  0  0  0  0  0  0  0
    6.1781    9.7962   25.8424 N   0  0  0  0  0  0  0  0  0  0  0  0
    5.8138    8.9235   25.5687 H   0  0  0  0  0  0  0  0  0  0  0  0
   10.7491   13.5290   22.9943 C   0  0  0  0  0  0  0  0  0  0  0  0
    8.0907   14.3809   21.9970 C   0  0  0  0  0  0  0  0  0  0  0  0
    9.3199   15.2894   22.0143 C   0  0  0  0  0  0  0  0  0  0  0  0
   10.0141   15.3926   20.6465 C   0  0  0  0  0  0  0  0  0  0  0  0
   11.1665   16.3937   20.7008 C   0  0  0  0  0  0  0  0  0  0  0  0
   12.0967   16.1037   21.8709 C   0  0  0  0  0  0  0  0  0  0  0  0
   11.3258   15.9140   23.1763 C   0  0  0  0  0  0  0  0  0  0  0  0
   10.2483   14.9115   23.0985 N   0  0  0  0  0  0  0  0  0  0  0  0
 15 14  1  0  0  0
 15 16  1  0  0  0
 16 17  1  0  0  0
 17 18  1  0  0  0
 18 19  1  0  0  0
 19 20  1  0  0  0
 20 13  1  0  0  0
 13  1  1  0  0  0
  1  2  2  0  0  0
  1  3  1  0  0  0
  3  4  2  0  0  0
  4  5  1  0  0  0
  5  6  2  0  0  0
  6  7  1  0  0  0
  7  8  2  0  0  0
  7  9  1  0  0  0
  9 10  1  0  0  0
 10 11  1  0  0  0
 20 15  1  0  0  0
  8  3  1  0  0  0
 11  6  1  0  0  0
 11 12  1  0  0  0
M  END
> <minimizedAffinity>
-6.91872

> <minimizedRMSD>
1.35107

$$$$
C45863-P322


 23 25  0  0  0  0  0  0  0  0999 V2000
   25.5692   20.7005   21.0199 C   0  0  0  0  0  0  0  0  0  0  0  0
   26.8352   20.3552   21.4270 C   0  0  0  0  0  0  0  0  0  0  0  0
   27.9396   20.6002   20.6913 N   0  0  0  0  0  0  0  0  0  0  0  0
   27.7626   21.2222   19.5069 C   0  0  0  0  0  0  0  0  0  0  0  0
   26.5609   21.6511   19.0489 N   0  0  0  0  0  0  0  0  0  0  0  0
   25.4903   21.3787   19.8259 C   0  0  0  0  0  0  0  0  0  0  0  0
   28.9935   21.4286   18.6344 C   0  0  0  0  0  0  0  0  0  0  0  0
   30.2318   20.7760   19.2264 C   0  0  0  0  0  0  0  0  0  0  0  0
   31.3493   21.4805   18.4940 C   0  0  0  0  0  0  0  0  0  0  0  0
   30.8579   22.9135   18.4710 C   0  0  0  0  0  0  0  0  0  0  0  0
   29.3925   22.8476   18.3986 N   0  0  0  0  0  0  0  0  0  0  0  0
   29.0757   23.1496   17.4773 H   0  0  0  0  0  0  0  0  0  0  0  0
   24.5594   19.7709   22.8267 O   0  0  0  0  0  0  0  0  0  0  0  0
   24.3955   20.3918   21.8556 C   0  0  0  0  0  0  0  0  0  0  0  0
   23.1080   20.9832   21.2555 N   0  0  0  0  0  0  0  0  0  0  0  0
   23.2444   21.5402   20.4552 H   0  0  0  0  0  0  0  0  0  0  0  0
   21.7232   20.8535   21.6776 C   0  0  0  0  0  0  0  0  0  0  0  0
   21.3986   19.3948   22.0319 C   0  0  0  0  0  0  0  0  0  0  0  0
   20.7251   18.6388   20.8819 C   0  0  0  0  0  0  0  0  0  0  0  0
   21.1257   19.1874   19.5162 C   0  0  0  0  0  0  0  0  0  0  0  0
   20.7797   20.5992   19.3457 N   0  0  0  0  0  0  0  0  0  0  0  0
   20.7669   21.3759   20.5921 C   0  0  0  0  0  0  0  0  0  0  0  0
   19.8508   20.6517   18.9276 H   0  0  0  0  0  0  0  0  0  0  0  0
 13 14  2  0  0  0
 14 15  1  0  0  0
 17 15  1  0  0  0
 17 18  1  0  0  0
 18 19  1  0  0  0
 19 20  1  0  0  0
 20 21  1  0  0  0
 21 22  1  0  0  0
 14  1  1  0  0  0
  1  2  2  0  0  0
  2  3  1  0  0  0
  3  4  2  0  0  0
  7  4  1  0  0  0
  7  8  1  0  0  0
  8  9  1  0  0  0
  9 10  1  0  0  0
 10 11  1  0  0  0
  4  5  1  0  0  0
  5  6  2  0  0  0
 22 17  1  0  0  0
  6  1  1  0  0  0
 11  7  1  0  0  0
 15 16  1  0  0  0
 21 23  1  0  0  0
 11 12  1  0  0  0
M  END
> <minimizedAffinity>
-3.95649

> <minimizedRMSD>
2.79047

$$$$
C47239-P196


 21 23  0  0  0  0  0  0  0  0999 V2000
   -2.7145    3.3163    2.1205 O   0  0  0  0  0  0  0  0  0  0  0  0
   -2.5960    4.0038    3.1182 C   0  0  0  0  0  0  0  0  0  0  0  0
   -1.4004    4.5666    3.5367 N   0  0  0  0  0  0  0  0  0  0  0  0
   -1.5415    5.1546    4.8456 C   0  0  0  0  0  0  0  0  0  0  0  0
   -3.0587    5.3361    4.9709 C   0  0  0  0  0  0  0  0  0  0  0  0
   -3.5861    4.3743    4.0243 N   0  0  0  0  0  0  0  0  0  0  0  0
   -0.5678    4.5651    3.0114 H   0  0  0  0  0  0  0  0  0  0  0  0
   -0.7691    6.4289    5.0513 C   0  0  0  0  0  0  0  0  0  0  0  0
   -0.3484    7.2461    3.9932 C   0  0  0  0  0  0  0  0  0  0  0  0
    0.3644    8.4203    4.2467 C   0  0  0  0  0  0  0  0  0  0  0  0
    0.6552    8.8002    5.5563 C   0  0  0  0  0  0  0  0  0  0  0  0
    0.2273    8.0102    6.6190 C   0  0  0  0  0  0  0  0  0  0  0  0
   -0.4769    6.8383    6.3573 C   0  0  0  0  0  0  0  0  0  0  0  0
   -0.8492    6.0613    7.3872 F   0  0  0  0  0  0  0  0  0  0  0  0
   -5.0233    4.2109    3.8083 C   0  0  0  0  0  0  0  0  0  0  0  0
   -5.5291    5.0408    2.6121 C   0  0  0  0  0  0  0  0  0  0  0  0
   -6.0372    4.1530    1.4807 C   0  0  0  0  0  0  0  0  0  0  0  0
   -7.0887    3.1509    1.9701 C   0  0  0  0  0  0  0  0  0  0  0  0
   -6.8457    2.6014    3.3084 N   0  0  0  0  0  0  0  0  0  0  0  0
   -5.4391    2.7240    3.7004 C   0  0  0  0  0  0  0  0  0  0  0  0
   -7.1045    1.6148    3.3120 H   0  0  0  0  0  0  0  0  0  0  0  0
  1  2  2  0  0  0
  2  3  1  0  0  0
  3  4  1  0  0  0
  4  8  1  0  0  0
  8  9  2  0  0  0
  9 10  1  0  0  0
 10 11  2  0  0  0
 11 12  1  0  0  0
 12 13  2  0  0  0
 13 14  1  0  0  0
  4  5  1  0  0  0
  5  6  1  0  0  0
 15  6  1  0  0  0
 15 16  1  0  0  0
 16 17  1  0  0  0
 17 18  1  0  0  0
 18 19  1  0  0  0
 19 20  1  0  0  0
  6  2  1  0  0  0
 20 15  1  0  0  0
 13  8  1  0  0  0
  3  7  1  0  0  0
 19 21  1  0  0  0
M  END
> <minimizedAffinity>
-2.38289

> <minimizedRMSD>
1.27998

$$$$
C124407-P214


 14 15  0  0  0  0  0  0  0  0999 V2000
    7.2469   13.1943   25.3932 Cl  0  0  0  0  0  0  0  0  0  0  0  0
    7.8562   11.8011   24.6566 C   0  0  0  0  0  0  0  0  0  0  0  0
    7.3611   10.5067   24.8650 C   0  0  0  0  0  0  0  0  0  0  0  0
    8.0491    9.5903   24.1874 N   0  0  0  0  0  0  0  0  0  0  0  0
    8.9642   10.3102   23.5062 N   0  0  0  0  0  0  0  0  0  0  0  0
    8.9004   11.6632   23.7644 C   0  0  0  0  0  0  0  0  0  0  0  0
    9.6142    9.9088   22.8852 H   0  0  0  0  0  0  0  0  0  0  0  0
    9.8423   12.6493   23.1377 C   0  0  0  0  0  0  0  0  0  0  0  0
   10.7903   13.2632   24.1798 C   0  0  0  0  0  0  0  0  0  0  0  0
   11.6960   14.3307   23.5770 C   0  0  0  0  0  0  0  0  0  0  0  0
   10.8631   15.3691   22.8428 C   0  0  0  0  0  0  0  0  0  0  0  0
    9.9306   14.6997   21.8379 C   0  0  0  0  0  0  0  0  0  0  0  0
    9.0704   13.7079   22.4822 N   0  0  0  0  0  0  0  0  0  0  0  0
    8.4686   13.2859   21.7750 H   0  0  0  0  0  0  0  0  0  0  0  0
  1  2  1  0  0  0
  2  3  1  0  0  0
  3  4  2  0  0  0
  4  5  1  0  0  0
  5  6  1  0  0  0
  8  6  1  0  0  0
  8  9  1  0  0  0
  9 10  1  0  0  0
 10 11  1  0  0  0
 11 12  1  0  0  0
 12 13  1  0  0  0
  6  2  2  0  0  0
 13  8  1  0  0  0
  5  7  1  0  0  0
 13 14  1  0  0  0
M  END
> <minimizedAffinity>
-4.96367

> <minimizedRMSD>
0.36542

$$$$
C124416-P214


 14 15  0  0  0  0  0  0  0  0999 V2000
    9.4012    9.3354   23.2473 C   0  0  0  0  0  0  0  0  0  0  0  0
    8.4850   10.1925   23.9667 N   0  0  0  0  0  0  0  0  0  0  0  0
    7.5482    9.5945   24.7393 N   0  0  0  0  0  0  0  0  0  0  0  0
    6.8531   10.6074   25.2493 C   0  0  0  0  0  0  0  0  0  0  0  0
    7.3796   11.8463   24.8702 C   0  0  0  0  0  0  0  0  0  0  0  0
    6.7858   13.3447   25.3835 Cl  0  0  0  0  0  0  0  0  0  0  0  0
    8.4408   11.5739   24.0242 C   0  0  0  0  0  0  0  0  0  0  0  0
    9.3626   12.5114   23.2849 C   0  0  0  0  0  0  0  0  0  0  0  0
   10.3502   13.2160   24.2313 C   0  0  0  0  0  0  0  0  0  0  0  0
   11.1913   14.2715   23.5228 C   0  0  0  0  0  0  0  0  0  0  0  0
   10.2931   15.2333   22.7641 C   0  0  0  0  0  0  0  0  0  0  0  0
    9.3565   14.4670   21.8344 C   0  0  0  0  0  0  0  0  0  0  0  0
    8.5371   13.4862   22.5550 N   0  0  0  0  0  0  0  0  0  0  0  0
    7.9538   12.9870   21.8834 H   0  0  0  0  0  0  0  0  0  0  0  0
  1  2  1  0  0  0
  2  3  1  0  0  0
  3  4  2  0  0  0
  4  5  1  0  0  0
  5  6  1  0  0  0
  5  7  2  0  0  0
  8  7  1  0  0  0
  8  9  1  0  0  0
  9 10  1  0  0  0
 10 11  1  0  0  0
 11 12  1  0  0  0
 12 13  1  0  0  0
  7  2  1  0  0  0
 13  8  1  0  0  0
 13 14  1  0  0  0
M  END
> <minimizedAffinity>
-5.21913

> <minimizedRMSD>
0.14354

$$$$
C47045-P198


 25 27  0  0  0  0  0  0  0  0999 V2000
    4.3431   12.3877   27.4292 N   0  0  0  0  0  0  0  0  0  0  0  0
    3.2088   13.0976   26.6429 C   0  0  0  0  0  0  0  0  0  0  0  0
    2.9886   13.1170   25.5259 O   0  0  0  0  0  0  0  0  0  0  0  0
    2.4338   13.7297   27.8274 N   0  0  0  0  0  0  0  0  0  0  0  0
    4.2751   12.4601   28.4087 H   0  0  0  0  0  0  0  0  0  0  0  0
    2.8713   13.6364   28.7044 H   0  0  0  0  0  0  0  0  0  0  0  0
    5.0385   10.3081   26.3457 C   0  0  0  0  0  0  0  0  0  0  0  0
    5.4908   11.6323   26.9508 C   0  0  0  0  0  0  0  0  0  0  0  0
    6.4593   12.4670   26.1096 C   0  0  0  0  0  0  0  0  0  0  0  0
    6.6423   13.8301   26.3928 C   0  0  0  0  0  0  0  0  0  0  0  0
    7.6209   14.5995   25.7503 C   0  0  0  0  0  0  0  0  0  0  0  0
    8.4747   14.0022   24.8124 C   0  0  0  0  0  0  0  0  0  0  0  0
    9.5178   14.6372   24.1561 N   0  0  0  0  0  0  0  0  0  0  0  0
   10.1245   13.7738   23.3748 C   0  0  0  0  0  0  0  0  0  0  0  0
    9.4676   12.2020   23.3471 S   0  0  0  0  0  0  0  0  0  0  0  0
    8.2902   12.6533   24.5133 C   0  0  0  0  0  0  0  0  0  0  0  0
    7.2855   11.8765   25.1297 C   0  0  0  0  0  0  0  0  0  0  0  0
    1.1760   14.4318   27.8506 C   0  0  0  0  0  0  0  0  0  0  0  0
   -0.0220   13.5012   27.6203 C   0  0  0  0  0  0  0  0  0  0  0  0
   -0.9518   14.0162   26.5091 C   0  0  0  0  0  0  0  0  0  0  0  0
   -2.2042   13.1498   26.4032 C   0  0  0  0  0  0  0  0  0  0  0  0
   -2.8920   12.9954   27.7564 C   0  0  0  0  0  0  0  0  0  0  0  0
   -1.9715   12.4667   28.7618 N   0  0  0  0  0  0  0  0  0  0  0  0
   -0.8074   13.3374   28.9319 C   0  0  0  0  0  0  0  0  0  0  0  0
   -1.6546   11.5428   28.4681 H   0  0  0  0  0  0  0  0  0  0  0  0
  8  7  1  0  0  0
  8  1  1  0  0  0
  1  2  1  0  0  0
  2  3  2  0  0  0
  2  4  1  0  0  0
  4 18  1  0  0  0
 19 18  1  0  0  0
 19 20  1  0  0  0
 20 21  1  0  0  0
 21 22  1  0  0  0
 22 23  1  0  0  0
 23 24  1  0  0  0
  8  9  1  0  0  0
  9 10  2  0  0  0
 10 11  1  0  0  0
 11 12  2  0  0  0
 12 13  1  0  0  0
 13 14  2  0  0  0
 14 15  1  0  0  0
 15 16  1  0  0  0
 16 17  2  0  0  0
 24 19  1  0  0  0
 17  9  1  0  0  0
 16 12  1  0  0  0
  1  5  1  0  0  0
  4  6  1  0  0  0
 23 25  1  0  0  0
M  END
> <minimizedAffinity>
-4.26260

> <minimizedRMSD>
2.30133

$$$$
C12359-P152


 14 14  0  0  0  0  0  0  0  0999 V2000
    9.8936   12.7239   22.8395 N   0  0  0  0  0  0  0  0  0  0  0  0
   10.8646   12.6367   22.7024 H   0  0  0  0  0  0  0  0  0  0  0  0
    9.2098   11.7687   23.6526 C   0  0  0  0  0  0  0  0  0  0  0  0
    9.4566   10.4264   23.4186 C   0  0  0  0  0  0  0  0  0  0  0  0
    8.8808    9.4521   24.2223 C   0  0  0  0  0  0  0  0  0  0  0  0
    8.0741    9.8723   25.2563 C   0  0  0  0  0  0  0  0  0  0  0  0
    7.7945   11.1653   25.5277 N   0  0  0  0  0  0  0  0  0  0  0  0
    8.3600   12.0842   24.7054 C   0  0  0  0  0  0  0  0  0  0  0  0
    9.0640   13.9988   22.1106 S   0  0  0  0  0  0  0  0  0  0  0  0
    9.8140   14.2726   20.9043 O   0  0  0  0  0  0  0  0  0  0  0  0
    7.6588   13.6606   22.0378 O   0  0  0  0  0  0  0  0  0  0  0  0
    9.3327   15.3489   23.2545 C   0  0  0  0  0  0  0  0  0  0  0  0
   10.7101   15.1811   25.3477 C   0  0  0  0  0  0  0  0  0  0  0  0
   10.7399   15.3497   23.8406 C   0  0  0  0  0  0  0  0  0  0  0  0
 13 14  1  0  0  0
 14 12  1  0  0  0
 12  9  1  0  0  0
  9 10  2  0  0  0
  9 11  2  0  0  0
  9  1  1  0  0  0
  1  3  1  0  0  0
  3  4  2  0  0  0
  4  5  1  0  0  0
  5  6  2  0  0  0
  6  7  1  0  0  0
  7  8  2  0  0  0
  8  3  1  0  0  0
  1  2  1  0  0  0
M  END
> <minimizedAffinity>
-4.62296

> <minimizedRMSD>
1.95956

$$$$
C39959-P100


 28 29  0  0  0  0  0  0  0  0999 V2000
   -0.1438   11.6824    1.3172 C   0  0  0  0  0  0  0  0  0  0  0  0
    0.7689   10.5431    1.7543 C   0  0  0  0  0  0  0  0  0  0  0  0
    0.3190    9.9728    3.0050 N   0  0  0  0  0  0  0  0  0  0  0  0
    0.6106    8.5836    3.6450 C   0  0  0  0  0  0  0  0  0  0  0  0
    1.3189    7.7224    3.2946 O   0  0  0  0  0  0  0  0  0  0  0  0
   -0.2664   10.5578    3.5381 H   0  0  0  0  0  0  0  0  0  0  0  0
   -0.1977    8.5253    4.9577 C   0  0  0  0  0  0  0  0  0  0  0  0
    0.6598    8.9442    6.1487 C   0  0  0  0  0  0  0  0  0  0  0  0
    0.4575    7.9038    7.1219 N   0  0  0  0  0  0  0  0  0  0  0  0
   -0.1426    6.8097    6.5322 C   0  0  0  0  0  0  0  0  0  0  0  0
   -0.1888    5.6866    7.0065 O   0  0  0  0  0  0  0  0  0  0  0  0
   -0.6265    7.1850    5.2988 N   0  0  0  0  0  0  0  0  0  0  0  0
    0.7106    7.9637    8.0714 H   0  0  0  0  0  0  0  0  0  0  0  0
   -1.1897    6.6170    4.7248 H   0  0  0  0  0  0  0  0  0  0  0  0
    2.2452   10.9534    1.8527 C   0  0  0  0  0  0  0  0  0  0  0  0
    2.5097   12.0615    2.8661 C   0  0  0  0  0  0  0  0  0  0  0  0
    3.9093   12.1966    3.1660 N   0  0  0  0  0  0  0  0  0  0  0  0
    4.6516   13.2120    4.0773 C   0  0  0  0  0  0  0  0  0  0  0  0
    4.2488   14.1387    4.6607 O   0  0  0  0  0  0  0  0  0  0  0  0
    4.4917   11.5388    2.7216 H   0  0  0  0  0  0  0  0  0  0  0  0
    6.1214   12.7757    4.0348 C   0  0  0  0  0  0  0  0  0  0  0  0
    7.0006   13.4198    5.1032 C   0  0  0  0  0  0  0  0  0  0  0  0
    7.4778   14.7804    4.7186 C   0  0  0  0  0  0  0  0  0  0  0  0
    7.2218   16.0159    5.2735 C   0  0  0  0  0  0  0  0  0  0  0  0
    7.9933   16.9162    4.5250 C   0  0  0  0  0  0  0  0  0  0  0  0
    8.7156   16.3034    3.5840 N   0  0  0  0  0  0  0  0  0  0  0  0
    8.3478   15.0134    3.6896 N   0  0  0  0  0  0  0  0  0  0  0  0
    8.6728   14.3071    3.0857 H   0  0  0  0  0  0  0  0  0  0  0  0
  2  1  1  0  0  0
  2 15  1  0  0  0
 15 16  1  0  0  0
 16 17  1  0  0  0
 17 18  1  0  0  0
 18 19  2  0  0  0
 18 21  1  0  0  0
 21 22  1  0  0  0
 22 23  1  0  0  0
 23 24  2  0  0  0
 24 25  1  0  0  0
 25 26  2  0  0  0
 26 27  1  0  0  0
  2  3  1  0  0  0
  3  4  1  0  0  0
  4  5  2  0  0  0
  7  4  1  0  0  0
  7  8  1  0  0  0
  8  9  1  0  0  0
  9 10  1  0  0  0
 10 11  2  0  0  0
 10 12  1  0  0  0
 27 23  1  0  0  0
 12  7  1  0  0  0
 17 20  1  0  0  0
 27 28  1  0  0  0
  3  6  1  0  0  0
  9 13  1  0  0  0
 12 14  1  0  0  0
M  END
> <minimizedAffinity>
-3.79545

> <minimizedRMSD>
1.92383

$$$$
C124666-P76


 26 27  0  0  0  0  0  0  0  0999 V2000
    3.2906   10.4534    1.6651 C   0  0  0  0  0  0  0  0  0  0  0  0
    4.2191    9.2540    1.8193 C   0  0  0  0  0  0  0  0  0  0  0  0
    5.4095    9.6244    2.5642 N   0  0  0  0  0  0  0  0  0  0  0  0
    6.5918   10.5603    2.1788 C   0  0  0  0  0  0  0  0  0  0  0  0
    6.7483   11.2349    1.2350 O   0  0  0  0  0  0  0  0  0  0  0  0
    5.4801    9.2174    3.4578 H   0  0  0  0  0  0  0  0  0  0  0  0
    7.5981   10.5879    3.3436 C   0  0  0  0  0  0  0  0  0  0  0  0
    7.6763   11.9736    3.9086 C   0  0  0  0  0  0  0  0  0  0  0  0
    7.2904   12.4875    5.1270 C   0  0  0  0  0  0  0  0  0  0  0  0
    7.5857   13.8596    5.0513 C   0  0  0  0  0  0  0  0  0  0  0  0
    8.1575   14.1967    3.8938 N   0  0  0  0  0  0  0  0  0  0  0  0
    8.1963   13.0358    3.2090 N   0  0  0  0  0  0  0  0  0  0  0  0
    8.5611   12.9571    2.2980 H   0  0  0  0  0  0  0  0  0  0  0  0
    3.5229    7.9886    2.3503 C   0  0  0  0  0  0  0  0  0  0  0  0
    2.2351    8.1723    2.9852 N   0  0  0  0  0  0  0  0  0  0  0  0
    0.8339    7.5994    2.6146 C   0  0  0  0  0  0  0  0  0  0  0  0
    0.4972    6.9569    1.6978 O   0  0  0  0  0  0  0  0  0  0  0  0
    2.2462    8.7534    3.7799 H   0  0  0  0  0  0  0  0  0  0  0  0
   -0.2099    8.1228    3.6659 C   0  0  0  0  0  0  0  0  0  0  0  0
    0.2325    9.4295    4.3199 C   0  0  0  0  0  0  0  0  0  0  0  0
    0.3974    9.1215    5.7134 N   0  0  0  0  0  0  0  0  0  0  0  0
    0.1071    7.8038    5.9792 C   0  0  0  0  0  0  0  0  0  0  0  0
    0.3653    7.2653    7.0435 O   0  0  0  0  0  0  0  0  0  0  0  0
   -0.4499    7.2555    4.8318 N   0  0  0  0  0  0  0  0  0  0  0  0
   -0.7600    5.8496    4.7192 C   0  0  0  0  0  0  0  0  0  0  0  0
    0.6829    9.7731    6.3939 H   0  0  0  0  0  0  0  0  0  0  0  0
  2  1  1  0  0  0
  2 14  1  0  0  0
 14 15  1  0  0  0
 15 16  1  0  0  0
 16 17  2  0  0  0
 19 16  1  0  0  0
 19 20  1  0  0  0
 20 21  1  0  0  0
 21 22  1  0  0  0
 22 23  2  0  0  0
 22 24  1  0  0  0
 24 25  1  0  0  0
  2  3  1  0  0  0
  3  4  1  0  0  0
  4  5  2  0  0  0
  4  7  1  0  0  0
  7  8  1  0  0  0
  8  9  2  0  0  0
  9 10  1  0  0  0
 10 11  2  0  0  0
 11 12  1  0  0  0
 24 19  1  0  0  0
 12  8  1  0  0  0
 15 18  1  0  0  0
 21 26  1  0  0  0
  3  6  1  0  0  0
 12 13  1  0  0  0
M  END
> <minimizedAffinity>
-4.27446

> <minimizedRMSD>
1.32895

$$$$
C124672-P100


 26 28  0  0  0  0  0  0  0  0999 V2000
    3.3963   11.4661   -0.2796 C   0  0  0  0  0  0  0  0  0  0  0  0
    2.9732   11.0504    1.1337 C   0  0  0  0  0  0  0  0  0  0  0  0
    4.1118   11.1696    2.0364 N   0  0  0  0  0  0  0  0  0  0  0  0
    4.2043   12.0466    3.0809 C   0  0  0  0  0  0  0  0  0  0  0  0
    5.5455   12.0790    3.3660 C   0  0  0  0  0  0  0  0  0  0  0  0
    6.2028   11.1728    2.5830 N   0  0  0  0  0  0  0  0  0  0  0  0
    5.3130   10.6233    1.7572 N   0  0  0  0  0  0  0  0  0  0  0  0
    6.2063   13.0955    4.3072 C   0  0  0  0  0  0  0  0  0  0  0  0
    5.7371   14.3357    4.6689 C   0  0  0  0  0  0  0  0  0  0  0  0
    6.7909   14.9084    5.4004 C   0  0  0  0  0  0  0  0  0  0  0  0
    7.8177   14.0693    5.5648 N   0  0  0  0  0  0  0  0  0  0  0  0
    7.4339   12.9650    4.8832 N   0  0  0  0  0  0  0  0  0  0  0  0
    7.9845   12.1520    4.8111 H   0  0  0  0  0  0  0  0  0  0  0  0
    2.3042    9.6658    1.1609 C   0  0  0  0  0  0  0  0  0  0  0  0
    1.4513    9.5065    2.3306 N   0  0  0  0  0  0  0  0  0  0  0  0
    0.6899    8.2614    2.8614 C   0  0  0  0  0  0  0  0  0  0  0  0
    0.5685    7.1943    2.3997 O   0  0  0  0  0  0  0  0  0  0  0  0
    1.3392   10.3205    2.8730 H   0  0  0  0  0  0  0  0  0  0  0  0
   -0.0491    8.6396    4.1729 C   0  0  0  0  0  0  0  0  0  0  0  0
    0.7705    9.5426    5.0964 C   0  0  0  0  0  0  0  0  0  0  0  0
    1.0580    8.6939    6.2301 N   0  0  0  0  0  0  0  0  0  0  0  0
    0.2632    7.5671    6.2285 C   0  0  0  0  0  0  0  0  0  0  0  0
    0.1633    6.7531    7.1301 O   0  0  0  0  0  0  0  0  0  0  0  0
   -0.3716    7.5040    5.0097 N   0  0  0  0  0  0  0  0  0  0  0  0
    1.7350    8.8946    6.9161 H   0  0  0  0  0  0  0  0  0  0  0  0
   -0.9735    6.7734    4.7391 H   0  0  0  0  0  0  0  0  0  0  0  0
  2  1  1  0  0  0
  2 14  1  0  0  0
 14 15  1  0  0  0
 15 16  1  0  0  0
 16 17  2  0  0  0
 19 16  1  0  0  0
 19 20  1  0  0  0
 20 21  1  0  0  0
 21 22  1  0  0  0
 22 23  2  0  0  0
 22 24  1  0  0  0
  2  3  1  0  0  0
  3  4  1  0  0  0
  4  5  2  0  0  0
  5  8  1  0  0  0
  8  9  2  0  0  0
  9 10  1  0  0  0
 10 11  2  0  0  0
 11 12  1  0  0  0
  5  6  1  0  0  0
  6  7  2  0  0  0
 24 19  1  0  0  0
  7  3  1  0  0  0
 12  8  1  0  0  0
 15 18  1  0  0  0
 21 25  1  0  0  0
 24 26  1  0  0  0
 12 13  1  0  0  0
M  END
> <minimizedAffinity>
-4.15513

> <minimizedRMSD>
2.12635

$$$$
C124674-P100


 28 30  0  0  0  0  0  0  0  0999 V2000
    1.9909    9.1395    0.9357 O   0  0  0  0  0  0  0  0  0  0  0  0
    2.2963    8.3983    1.7437 C   0  0  0  0  0  0  0  0  0  0  0  0
    1.4242    7.5561    2.7122 N   0  0  0  0  0  0  0  0  0  0  0  0
    3.7079    7.9637    2.2245 N   0  0  0  0  0  0  0  0  0  0  0  0
    1.9299    7.0389    3.3801 H   0  0  0  0  0  0  0  0  0  0  0  0
    3.7120    7.3569    2.9997 H   0  0  0  0  0  0  0  0  0  0  0  0
   -0.0170    7.4087    2.7913 C   0  0  0  0  0  0  0  0  0  0  0  0
   -0.5132    6.6693    4.0453 C   0  0  0  0  0  0  0  0  0  0  0  0
   -0.2693    7.4090    5.2705 N   0  0  0  0  0  0  0  0  0  0  0  0
   -0.3675    8.8480    5.3620 C   0  0  0  0  0  0  0  0  0  0  0  0
    0.3940    9.1203    6.6440 C   0  0  0  0  0  0  0  0  0  0  0  0
    0.2336    7.9033    7.3982 N   0  0  0  0  0  0  0  0  0  0  0  0
   -0.0612    6.8543    6.5320 C   0  0  0  0  0  0  0  0  0  0  0  0
   -0.0644    5.6770    6.8535 O   0  0  0  0  0  0  0  0  0  0  0  0
    0.3194    7.8255    8.3758 H   0  0  0  0  0  0  0  0  0  0  0  0
    5.0130    8.3068    1.7173 C   0  0  0  0  0  0  0  0  0  0  0  0
    5.6022    9.5637    2.3067 C   0  0  0  0  0  0  0  0  0  0  0  0
    6.9122    9.5589    2.8173 C   0  0  0  0  0  0  0  0  0  0  0  0
    7.5038   10.7305    3.3118 C   0  0  0  0  0  0  0  0  0  0  0  0
    6.7963   11.9329    3.2949 C   0  0  0  0  0  0  0  0  0  0  0  0
    5.4920   11.9455    2.7825 C   0  0  0  0  0  0  0  0  0  0  0  0
    4.9052   10.7773    2.2835 C   0  0  0  0  0  0  0  0  0  0  0  0
    7.3742   13.1647    3.8082 C   0  0  0  0  0  0  0  0  0  0  0  0
    7.2527   13.7754    5.0390 C   0  0  0  0  0  0  0  0  0  0  0  0
    7.9518   14.9881    4.9194 C   0  0  0  0  0  0  0  0  0  0  0  0
    8.5116   15.1381    3.7161 N   0  0  0  0  0  0  0  0  0  0  0  0
    8.1226   14.0280    3.0515 N   0  0  0  0  0  0  0  0  0  0  0  0
    8.3552   13.8553    2.1106 H   0  0  0  0  0  0  0  0  0  0  0  0
  1  2  2  0  0  0
  2  3  1  0  0  0
  3  7  1  0  0  0
  7  8  1  0  0  0
  8  9  1  0  0  0
  9 10  1  0  0  0
 10 11  1  0  0  0
 11 12  1  0  0  0
 12 13  1  0  0  0
 13 14  2  0  0  0
  2  4  1  0  0  0
  4 16  1  0  0  0
 16 17  1  0  0  0
 17 18  2  0  0  0
 18 19  1  0  0  0
 19 20  2  0  0  0
 20 23  1  0  0  0
 23 24  2  0  0  0
 24 25  1  0  0  0
 25 26  2  0  0  0
 26 27  1  0  0  0
 20 21  1  0  0  0
 21 22  2  0  0  0
 13  9  1  0  0  0
 22 17  1  0  0  0
 27 23  1  0  0  0
  3  5  1  0  0  0
 12 15  1  0  0  0
  4  6  1  0  0  0
 27 28  1  0  0  0
M  END
> <minimizedAffinity>
-4.16779

> <minimizedRMSD>
1.35493

$$$$
C124675-P76


 25 27  0  0  0  0  0  0  0  0999 V2000
    3.6869    7.8754    2.2064 C   0  0  0  0  0  0  0  0  0  0  0  0
    4.6867    9.0064    2.2681 C   0  0  0  0  0  0  0  0  0  0  0  0
    4.3130   10.3331    2.0349 C   0  0  0  0  0  0  0  0  0  0  0  0
    5.2694   11.3586    2.0514 C   0  0  0  0  0  0  0  0  0  0  0  0
    6.6297   11.0899    2.2762 C   0  0  0  0  0  0  0  0  0  0  0  0
    7.0122    9.7644    2.4871 C   0  0  0  0  0  0  0  0  0  0  0  0
    6.0517    8.7366    2.4807 C   0  0  0  0  0  0  0  0  0  0  0  0
    7.5855   12.1959    2.2773 C   0  0  0  0  0  0  0  0  0  0  0  0
    7.5897   13.3787    2.9919 C   0  0  0  0  0  0  0  0  0  0  0  0
    8.6689   14.1198    2.4857 C   0  0  0  0  0  0  0  0  0  0  0  0
    9.3362   13.4617    1.5363 N   0  0  0  0  0  0  0  0  0  0  0  0
    8.6712   12.2896    1.4421 N   0  0  0  0  0  0  0  0  0  0  0  0
    8.9408   11.5675    0.8296 H   0  0  0  0  0  0  0  0  0  0  0  0
    1.0663    8.5532    2.5024 C   0  0  0  0  0  0  0  0  0  0  0  0
    0.6971    8.9273    1.4576 O   0  0  0  0  0  0  0  0  0  0  0  0
    2.4716    8.0779    2.9618 N   0  0  0  0  0  0  0  0  0  0  0  0
    2.5467    7.8829    3.9238 H   0  0  0  0  0  0  0  0  0  0  0  0
    0.3513    7.1717    6.9525 O   0  0  0  0  0  0  0  0  0  0  0  0
    0.1970    7.8517    5.9508 C   0  0  0  0  0  0  0  0  0  0  0  0
   -0.0536    9.2081    5.9139 N   0  0  0  0  0  0  0  0  0  0  0  0
    0.0612    9.7281    4.5700 C   0  0  0  0  0  0  0  0  0  0  0  0
    0.0721    8.4817    3.6958 C   0  0  0  0  0  0  0  0  0  0  0  0
    0.3108    7.4122    4.6464 N   0  0  0  0  0  0  0  0  0  0  0  0
   -0.2815    9.7522    6.7022 H   0  0  0  0  0  0  0  0  0  0  0  0
    0.5275    6.4860    4.3927 H   0  0  0  0  0  0  0  0  0  0  0  0
 18 19  2  0  0  0
 19 20  1  0  0  0
 20 21  1  0  0  0
 21 22  1  0  0  0
 22 14  1  0  0  0
 14 15  2  0  0  0
 14 16  1  0  0  0
 16  1  1  0  0  0
  1  2  1  0  0  0
  2  3  2  0  0  0
  3  4  1  0  0  0
  4  5  2  0  0  0
  5  8  1  0  0  0
  8  9  2  0  0  0
  9 10  1  0  0  0
 10 11  2  0  0  0
 11 12  1  0  0  0
  5  6  1  0  0  0
  6  7  2  0  0  0
 22 23  1  0  0  0
 23 19  1  0  0  0
  7  2  1  0  0  0
 12  8  1  0  0  0
 20 24  1  0  0  0
 16 17  1  0  0  0
 12 13  1  0  0  0
 23 25  1  0  0  0
M  END
> <minimizedAffinity>
-3.32846

> <minimizedRMSD>
0.41986

$$$$
C124677-P100


 29 30  0  0  0  0  0  0  0  0999 V2000
    1.8651   15.2181    1.6690 C   0  0  0  0  0  0  0  0  0  0  0  0
    1.7132   14.5157    3.0202 C   0  0  0  0  0  0  0  0  0  0  0  0
    2.4910   15.2514    4.1276 C   0  0  0  0  0  0  0  0  0  0  0  0
    3.8383   15.8456    3.7340 C   0  0  0  0  0  0  0  0  0  0  0  0
    4.8932   15.1961    4.4748 N   0  0  0  0  0  0  0  0  0  0  0  0
    6.3815   15.5935    4.6676 C   0  0  0  0  0  0  0  0  0  0  0  0
    6.9612   16.5462    4.3208 O   0  0  0  0  0  0  0  0  0  0  0  0
    4.6255   14.3664    4.9322 H   0  0  0  0  0  0  0  0  0  0  0  0
    7.0394   14.4866    5.5023 C   0  0  0  0  0  0  0  0  0  0  0  0
    7.3705   13.3135    4.6487 C   0  0  0  0  0  0  0  0  0  0  0  0
    7.3960   11.9626    4.9211 C   0  0  0  0  0  0  0  0  0  0  0  0
    7.7247   11.3564    3.6965 C   0  0  0  0  0  0  0  0  0  0  0  0
    7.9453   12.2519    2.7324 N   0  0  0  0  0  0  0  0  0  0  0  0
    7.6995   13.4318    3.3242 N   0  0  0  0  0  0  0  0  0  0  0  0
    7.7506   14.2950    2.8536 H   0  0  0  0  0  0  0  0  0  0  0  0
    2.1074   13.0272    2.9239 C   0  0  0  0  0  0  0  0  0  0  0  0
    0.9050   12.1017    2.7230 C   0  0  0  0  0  0  0  0  0  0  0  0
    1.0874   10.8392    3.3988 N   0  0  0  0  0  0  0  0  0  0  0  0
    0.6773    9.3954    2.9743 C   0  0  0  0  0  0  0  0  0  0  0  0
    0.2006    9.0050    1.9808 O   0  0  0  0  0  0  0  0  0  0  0  0
    1.5446   10.8992    4.2685 H   0  0  0  0  0  0  0  0  0  0  0  0
    1.0854    8.4719    4.1422 C   0  0  0  0  0  0  0  0  0  0  0  0
    1.4041    9.2528    5.4113 C   0  0  0  0  0  0  0  0  0  0  0  0
    0.9544    8.3847    6.4690 N   0  0  0  0  0  0  0  0  0  0  0  0
    0.2394    7.3173    5.9615 C   0  0  0  0  0  0  0  0  0  0  0  0
   -0.1214    6.3380    6.5932 O   0  0  0  0  0  0  0  0  0  0  0  0
    0.1055    7.5052    4.5975 N   0  0  0  0  0  0  0  0  0  0  0  0
    1.1327    8.5324    7.4258 H   0  0  0  0  0  0  0  0  0  0  0  0
   -0.5540    7.0520    4.0240 H   0  0  0  0  0  0  0  0  0  0  0  0
  2  1  1  0  0  0
  2  3  1  0  0  0
  3  4  1  0  0  0
  4  5  1  0  0  0
  5  6  1  0  0  0
  6  7  2  0  0  0
  6  9  1  0  0  0
  9 10  1  0  0  0
 10 11  2  0  0  0
 11 12  1  0  0  0
 12 13  2  0  0  0
 13 14  1  0  0  0
  2 16  1  0  0  0
 16 17  1  0  0  0
 17 18  1  0  0  0
 18 19  1  0  0  0
 19 20  2  0  0  0
 22 19  1  0  0  0
 22 23  1  0  0  0
 23 24  1  0  0  0
 24 25  1  0  0  0
 25 26  2  0  0  0
 25 27  1  0  0  0
 14 10  1  0  0  0
 27 22  1  0  0  0
  5  8  1  0  0  0
 14 15  1  0  0  0
 18 21  1  0  0  0
 24 28  1  0  0  0
 27 29  1  0  0  0
M  END
> <minimizedAffinity>
-3.63596

> <minimizedRMSD>
1.71235

$$$$
C124687-P76


 27 28  0  0  0  0  0  0  0  0999 V2000
    1.2018   12.4875    1.8956 C   0  0  0  0  0  0  0  0  0  0  0  0
    1.8394   11.2933    2.6019 C   0  0  0  0  0  0  0  0  0  0  0  0
    0.8256   10.6440    3.4298 N   0  0  0  0  0  0  0  0  0  0  0  0
   -0.4188    9.7824    3.0243 C   0  0  0  0  0  0  0  0  0  0  0  0
   -0.8557    9.5327    1.9672 O   0  0  0  0  0  0  0  0  0  0  0  0
    0.9434   10.7678    4.3994 H   0  0  0  0  0  0  0  0  0  0  0  0
   -1.0117    9.2167    4.3579 C   0  0  0  0  0  0  0  0  0  0  0  0
   -0.7716   10.2650    5.4376 C   0  0  0  0  0  0  0  0  0  0  0  0
   -0.4263    9.5331    6.6222 N   0  0  0  0  0  0  0  0  0  0  0  0
   -0.0560    8.2459    6.2908 C   0  0  0  0  0  0  0  0  0  0  0  0
    0.5244    7.5076    7.0700 O   0  0  0  0  0  0  0  0  0  0  0  0
   -0.4226    8.0241    4.9696 N   0  0  0  0  0  0  0  0  0  0  0  0
   -0.3231    6.7595    4.2853 C   0  0  0  0  0  0  0  0  0  0  0  0
   -0.4500    9.8960    7.5370 H   0  0  0  0  0  0  0  0  0  0  0  0
    3.0712   11.6830    3.4639 C   0  0  0  0  0  0  0  0  0  0  0  0
    3.5674   13.0361    3.2860 N   0  0  0  0  0  0  0  0  0  0  0  0
    3.3752   14.3050    4.1634 C   0  0  0  0  0  0  0  0  0  0  0  0
    2.8530   14.4361    5.2015 O   0  0  0  0  0  0  0  0  0  0  0  0
    4.1144   13.1719    2.4788 H   0  0  0  0  0  0  0  0  0  0  0  0
    3.9864   15.5020    3.4170 C   0  0  0  0  0  0  0  0  0  0  0  0
    5.0589   16.2481    4.2244 C   0  0  0  0  0  0  0  0  0  0  0  0
    6.2401   15.3801    4.4752 C   0  0  0  0  0  0  0  0  0  0  0  0
    6.6719   14.7454    5.6186 C   0  0  0  0  0  0  0  0  0  0  0  0
    7.7922   14.0006    5.2136 C   0  0  0  0  0  0  0  0  0  0  0  0
    8.0820   14.1823    3.9227 N   0  0  0  0  0  0  0  0  0  0  0  0
    7.1385   15.0368    3.5006 N   0  0  0  0  0  0  0  0  0  0  0  0
    7.0959   15.3834    2.5801 H   0  0  0  0  0  0  0  0  0  0  0  0
  2  1  1  0  0  0
  2 15  1  0  0  0
 15 16  1  0  0  0
 16 17  1  0  0  0
 17 18  2  0  0  0
 17 20  1  0  0  0
 20 21  1  0  0  0
 21 22  1  0  0  0
 22 23  2  0  0  0
 23 24  1  0  0  0
 24 25  2  0  0  0
 25 26  1  0  0  0
  2  3  1  0  0  0
  3  4  1  0  0  0
  4  5  2  0  0  0
  7  4  1  0  0  0
  7  8  1  0  0  0
  8  9  1  0  0  0
  9 10  1  0  0  0
 10 11  2  0  0  0
 10 12  1  0  0  0
 12 13  1  0  0  0
 26 22  1  0  0  0
 12  7  1  0  0  0
 16 19  1  0  0  0
 26 27  1  0  0  0
  3  6  1  0  0  0
  9 14  1  0  0  0
M  END
> <minimizedAffinity>
-3.70108

> <minimizedRMSD>
2.01927

$$$$
C124689-P100


 27 28  0  0  0  0  0  0  0  0999 V2000
    2.9655   10.4141    2.3161 C   0  0  0  0  0  0  0  0  0  0  0  0
    1.9069    9.8977    3.1792 N   0  0  0  0  0  0  0  0  0  0  0  0
    1.2619    8.4807    3.2517 C   0  0  0  0  0  0  0  0  0  0  0  0
    1.4278    7.5372    2.5797 O   0  0  0  0  0  0  0  0  0  0  0  0
    1.5414   10.5505    3.8191 H   0  0  0  0  0  0  0  0  0  0  0  0
    0.1851    8.5015    4.3744 C   0  0  0  0  0  0  0  0  0  0  0  0
    0.5817    9.2985    5.6077 C   0  0  0  0  0  0  0  0  0  0  0  0
    0.0578    8.5224    6.7089 N   0  0  0  0  0  0  0  0  0  0  0  0
    0.2781    8.9212    8.0765 C   0  0  0  0  0  0  0  0  0  0  0  0
   -0.0192    7.1896    6.3119 C   0  0  0  0  0  0  0  0  0  0  0  0
    0.0168    6.2009    7.0263 O   0  0  0  0  0  0  0  0  0  0  0  0
   -0.0840    7.1816    4.9253 N   0  0  0  0  0  0  0  0  0  0  0  0
   -0.2863    6.3848    4.3837 H   0  0  0  0  0  0  0  0  0  0  0  0
    2.9502   11.7702    0.1199 C   0  0  0  0  0  0  0  0  0  0  0  0
    2.3762   10.6023    0.9048 C   0  0  0  0  0  0  0  0  0  0  0  0
    4.2210    9.5156    2.3356 C   0  0  0  0  0  0  0  0  0  0  0  0
    5.4730   10.2377    2.4822 N   0  0  0  0  0  0  0  0  0  0  0  0
    6.8827    9.7374    2.9042 C   0  0  0  0  0  0  0  0  0  0  0  0
    7.2336    8.6853    3.2719 O   0  0  0  0  0  0  0  0  0  0  0  0
    5.4199   11.2001    2.2817 H   0  0  0  0  0  0  0  0  0  0  0  0
    7.8701   10.8848    2.6557 C   0  0  0  0  0  0  0  0  0  0  0  0
    7.7110   12.0542    3.5704 C   0  0  0  0  0  0  0  0  0  0  0  0
    7.3508   12.1951    4.8941 C   0  0  0  0  0  0  0  0  0  0  0  0
    7.4477   13.5754    5.1542 C   0  0  0  0  0  0  0  0  0  0  0  0
    7.8543   14.2669    4.0866 N   0  0  0  0  0  0  0  0  0  0  0  0
    8.0016   13.3239    3.1400 N   0  0  0  0  0  0  0  0  0  0  0  0
    8.2916   13.5262    2.2212 H   0  0  0  0  0  0  0  0  0  0  0  0
 14 15  1  0  0  0
  1 15  1  0  0  0
  1 16  1  0  0  0
 16 17  1  0  0  0
 17 18  1  0  0  0
 18 19  2  0  0  0
 18 21  1  0  0  0
 21 22  1  0  0  0
 22 23  2  0  0  0
 23 24  1  0  0  0
 24 25  2  0  0  0
 25 26  1  0  0  0
  1  2  1  0  0  0
  2  3  1  0  0  0
  3  4  2  0  0  0
  6  3  1  0  0  0
  6  7  1  0  0  0
  7  8  1  0  0  0
  8  9  1  0  0  0
  8 10  1  0  0  0
 10 11  2  0  0  0
 10 12  1  0  0  0
 26 22  1  0  0  0
 12  6  1  0  0  0
 17 20  1  0  0  0
 26 27  1  0  0  0
  2  5  1  0  0  0
 12 13  1  0  0  0
M  END
> <minimizedAffinity>
-4.03551

> <minimizedRMSD>
1.11685

$$$$
C124693-P100


 27 28  0  0  0  0  0  0  0  0999 V2000
    1.5904   10.6866    1.3052 C   0  0  0  0  0  0  0  0  0  0  0  0
    2.2371   10.2722    2.6210 C   0  0  0  0  0  0  0  0  0  0  0  0
    1.2214    9.8327    3.5628 N   0  0  0  0  0  0  0  0  0  0  0  0
    0.5743    8.4321    3.7703 C   0  0  0  0  0  0  0  0  0  0  0  0
    0.7046    7.4408    3.1649 O   0  0  0  0  0  0  0  0  0  0  0  0
    0.8886   10.5345    4.1677 H   0  0  0  0  0  0  0  0  0  0  0  0
   -0.2966    8.5149    5.0511 C   0  0  0  0  0  0  0  0  0  0  0  0
    0.5623    8.9310    6.2410 C   0  0  0  0  0  0  0  0  0  0  0  0
    0.4523    7.8571    7.1868 N   0  0  0  0  0  0  0  0  0  0  0  0
   -0.2286    6.7977    6.6271 C   0  0  0  0  0  0  0  0  0  0  0  0
   -0.2265    5.6608    7.0703 O   0  0  0  0  0  0  0  0  0  0  0  0
   -0.8241    7.2222    5.4561 N   0  0  0  0  0  0  0  0  0  0  0  0
    0.8114    7.8747    8.1033 H   0  0  0  0  0  0  0  0  0  0  0  0
   -1.5115    6.7187    4.9631 H   0  0  0  0  0  0  0  0  0  0  0  0
    3.0886   11.4049    3.2330 C   0  0  0  0  0  0  0  0  0  0  0  0
    4.5001   11.2099    3.0240 N   0  0  0  0  0  0  0  0  0  0  0  0
    5.4349   11.7451    1.9123 C   0  0  0  0  0  0  0  0  0  0  0  0
    5.2219   12.4881    1.0384 O   0  0  0  0  0  0  0  0  0  0  0  0
    4.9423   10.6443    3.6977 H   0  0  0  0  0  0  0  0  0  0  0  0
    6.8119   11.1173    2.1177 C   0  0  0  0  0  0  0  0  0  0  0  0
    7.3501   11.2258    3.5398 C   0  0  0  0  0  0  0  0  0  0  0  0
    7.4974   12.6275    4.0222 C   0  0  0  0  0  0  0  0  0  0  0  0
    7.1693   13.2084    5.2282 C   0  0  0  0  0  0  0  0  0  0  0  0
    7.6084   14.5382    5.1196 C   0  0  0  0  0  0  0  0  0  0  0  0
    8.1979   14.7843    3.9476 N   0  0  0  0  0  0  0  0  0  0  0  0
    8.0581   13.6277    3.2727 N   0  0  0  0  0  0  0  0  0  0  0  0
    8.3317   13.5123    2.3341 H   0  0  0  0  0  0  0  0  0  0  0  0
  2  1  1  0  0  0
  2 15  1  0  0  0
 15 16  1  0  0  0
 16 17  1  0  0  0
 17 18  2  0  0  0
 17 20  1  0  0  0
 20 21  1  0  0  0
 21 22  1  0  0  0
 22 23  2  0  0  0
 23 24  1  0  0  0
 24 25  2  0  0  0
 25 26  1  0  0  0
  2  3  1  0  0  0
  3  4  1  0  0  0
  4  5  2  0  0  0
  7  4  1  0  0  0
  7  8  1  0  0  0
  8  9  1  0  0  0
  9 10  1  0  0  0
 10 11  2  0  0  0
 10 12  1  0  0  0
 26 22  1  0  0  0
 12  7  1  0  0  0
 16 19  1  0  0  0
 26 27  1  0  0  0
  3  6  1  0  0  0
  9 13  1  0  0  0
 12 14  1  0  0  0
M  END
> <minimizedAffinity>
-4.03726

> <minimizedRMSD>
1.27276

$$$$
C39918-P76


 29 30  0  0  0  0  0  0  0  0999 V2000
    2.2704   11.5958    2.3134 C   0  0  0  0  0  0  0  0  0  0  0  0
    2.3984   12.7255    1.4417 O   0  0  0  0  0  0  0  0  0  0  0  0
    1.7814   13.4203    1.7202 H   0  0  0  0  0  0  0  0  0  0  0  0
    0.8339   11.0626    2.2200 C   0  0  0  0  0  0  0  0  0  0  0  0
    0.6528    8.9766    3.9634 C   0  0  0  0  0  0  0  0  0  0  0  0
    1.3083    8.1157    3.5244 O   0  0  0  0  0  0  0  0  0  0  0  0
    0.4028   10.4211    3.4389 N   0  0  0  0  0  0  0  0  0  0  0  0
   -0.1367   10.9889    4.0353 H   0  0  0  0  0  0  0  0  0  0  0  0
   -2.7193    6.2341    5.6314 C   0  0  0  0  0  0  0  0  0  0  0  0
   -1.6311    7.1647    5.8123 N   0  0  0  0  0  0  0  0  0  0  0  0
   -1.5241    8.3836    5.0416 C   0  0  0  0  0  0  0  0  0  0  0  0
   -0.1012    8.8636    5.3026 C   0  0  0  0  0  0  0  0  0  0  0  0
    0.4622    7.8668    6.1846 N   0  0  0  0  0  0  0  0  0  0  0  0
   -0.4159    6.8215    6.3816 C   0  0  0  0  0  0  0  0  0  0  0  0
   -0.1422    5.7766    6.9494 O   0  0  0  0  0  0  0  0  0  0  0  0
    1.3566    7.9262    6.5918 H   0  0  0  0  0  0  0  0  0  0  0  0
    2.6262   12.0105    3.7484 C   0  0  0  0  0  0  0  0  0  0  0  0
    4.0498   12.1503    3.9171 N   0  0  0  0  0  0  0  0  0  0  0  0
    4.8834   13.3226    4.4855 C   0  0  0  0  0  0  0  0  0  0  0  0
    4.5535   14.3845    4.8331 O   0  0  0  0  0  0  0  0  0  0  0  0
    4.5781   11.3734    3.6228 H   0  0  0  0  0  0  0  0  0  0  0  0
    6.3187   12.8153    4.5177 C   0  0  0  0  0  0  0  0  0  0  0  0
    7.2648   13.7759    5.2162 C   0  0  0  0  0  0  0  0  0  0  0  0
    8.0019   14.6752    4.2872 C   0  0  0  0  0  0  0  0  0  0  0  0
    8.3888   14.4219    2.9500 C   0  0  0  0  0  0  0  0  0  0  0  0
    9.0794   15.4313    2.4175 N   0  0  0  0  0  0  0  0  0  0  0  0
    9.0976   16.3531    3.3911 N   0  0  0  0  0  0  0  0  0  0  0  0
    8.4889   15.9397    4.5388 C   0  0  0  0  0  0  0  0  0  0  0  0
    9.5098   17.2411    3.2873 H   0  0  0  0  0  0  0  0  0  0  0  0
  9 10  1  0  0  0
 10 11  1  0  0  0
 11 12  1  0  0  0
 12  5  1  0  0  0
  5  6  2  0  0  0
  5  7  1  0  0  0
  7  4  1  0  0  0
  4  1  1  0  0  0
  1  2  1  0  0  0
  1 17  1  0  0  0
 17 18  1  0  0  0
 18 19  1  0  0  0
 19 20  2  0  0  0
 19 22  1  0  0  0
 22 23  1  0  0  0
 23 24  1  0  0  0
 24 25  1  0  0  0
 25 26  2  0  0  0
 26 27  1  0  0  0
 27 28  1  0  0  0
 12 13  1  0  0  0
 13 14  1  0  0  0
 14 15  2  0  0  0
 14 10  1  0  0  0
 28 24  2  0  0  0
  7  8  1  0  0  0
  2  3  1  0  0  0
 18 21  1  0  0  0
 27 29  1  0  0  0
 13 16  1  0  0  0
M  END
> <minimizedAffinity>
-3.87523

> <minimizedRMSD>
1.22665

$$$$
C39932-P100


 28 30  0  0  0  0  0  0  0  0999 V2000
    3.3696   12.1311    3.1823 C   0  0  0  0  0  0  0  0  0  0  0  0
    4.8463   14.4855    4.8963 O   0  0  0  0  0  0  0  0  0  0  0  0
    5.3490   13.5305    4.4436 C   0  0  0  0  0  0  0  0  0  0  0  0
    4.7277   12.3418    3.6573 N   0  0  0  0  0  0  0  0  0  0  0  0
    5.3558   11.6135    3.4467 H   0  0  0  0  0  0  0  0  0  0  0  0
    6.8252   13.2096    4.6565 C   0  0  0  0  0  0  0  0  0  0  0  0
    7.6584   13.5920    3.4913 C   0  0  0  0  0  0  0  0  0  0  0  0
    8.0920   12.7528    2.4417 C   0  0  0  0  0  0  0  0  0  0  0  0
    8.8818   13.3871    1.5751 N   0  0  0  0  0  0  0  0  0  0  0  0
    8.9253   14.6446    2.0390 N   0  0  0  0  0  0  0  0  0  0  0  0
    8.2301   14.8135    3.2002 C   0  0  0  0  0  0  0  0  0  0  0  0
    9.4102   15.3724    1.5870 H   0  0  0  0  0  0  0  0  0  0  0  0
    3.1198   12.8178    1.8582 C   0  0  0  0  0  0  0  0  0  0  0  0
    3.2459   14.3096    1.6530 C   0  0  0  0  0  0  0  0  0  0  0  0
    4.2363   13.3783    1.0067 C   0  0  0  0  0  0  0  0  0  0  0  0
    3.0445   10.6128    3.0764 C   0  0  0  0  0  0  0  0  0  0  0  0
    2.1995   10.1061    4.1392 N   0  0  0  0  0  0  0  0  0  0  0  0
    0.6917   10.3127    4.4075 C   0  0  0  0  0  0  0  0  0  0  0  0
   -0.1217   10.8598    3.7730 O   0  0  0  0  0  0  0  0  0  0  0  0
    2.6611    9.5377    4.7973 H   0  0  0  0  0  0  0  0  0  0  0  0
    0.3246    9.6163    5.7478 C   0  0  0  0  0  0  0  0  0  0  0  0
   -1.1812    9.3230    5.7255 C   0  0  0  0  0  0  0  0  0  0  0  0
   -1.2979    8.0270    6.3354 N   0  0  0  0  0  0  0  0  0  0  0  0
   -0.0691    7.4608    6.5725 C   0  0  0  0  0  0  0  0  0  0  0  0
    0.1061    6.3777    7.1070 O   0  0  0  0  0  0  0  0  0  0  0  0
    0.9105    8.3316    6.1141 N   0  0  0  0  0  0  0  0  0  0  0  0
   -2.1553    7.5968    6.5568 H   0  0  0  0  0  0  0  0  0  0  0  0
    1.8678    8.1124    6.0457 H   0  0  0  0  0  0  0  0  0  0  0  0
  2  3  2  0  0  0
  3  6  1  0  0  0
  6  7  1  0  0  0
  7  8  1  0  0  0
  8  9  2  0  0  0
  9 10  1  0  0  0
 10 11  1  0  0  0
  3  4  1  0  0  0
  4  1  1  0  0  0
  1 16  1  0  0  0
 16 17  1  0  0  0
 17 18  1  0  0  0
 18 19  2  0  0  0
 21 18  1  0  0  0
 21 22  1  0  0  0
 22 23  1  0  0  0
 23 24  1  0  0  0
 24 25  2  0  0  0
 24 26  1  0  0  0
  1 13  1  0  0  0
 13 14  1  0  0  0
 14 15  1  0  0  0
 11  7  2  0  0  0
 26 21  1  0  0  0
 15 13  1  0  0  0
 10 12  1  0  0  0
  4  5  1  0  0  0
 17 20  1  0  0  0
 23 27  1  0  0  0
 26 28  1  0  0  0
M  END
> <minimizedAffinity>
-3.91916

> <minimizedRMSD>
0.74033

$$$$
C39946-P76


 27 28  0  0  0  0  0  0  0  0999 V2000
    1.6512   12.9346    4.9163 C   0  0  0  0  0  0  0  0  0  0  0  0
    2.3904   12.6921    3.6016 C   0  0  0  0  0  0  0  0  0  0  0  0
    3.7943   12.4336    3.8469 N   0  0  0  0  0  0  0  0  0  0  0  0
    4.8955   13.3439    4.4567 C   0  0  0  0  0  0  0  0  0  0  0  0
    4.8213   14.4112    4.9240 O   0  0  0  0  0  0  0  0  0  0  0  0
    4.1002   11.5354    3.5846 H   0  0  0  0  0  0  0  0  0  0  0  0
    6.1981   12.5612    4.3521 C   0  0  0  0  0  0  0  0  0  0  0  0
    7.3682   13.2418    5.0494 C   0  0  0  0  0  0  0  0  0  0  0  0
    7.9849   14.3280    4.2405 C   0  0  0  0  0  0  0  0  0  0  0  0
    8.4158   14.2616    2.8949 C   0  0  0  0  0  0  0  0  0  0  0  0
    8.9717   15.4012    2.4796 N   0  0  0  0  0  0  0  0  0  0  0  0
    8.8607   16.2143    3.5404 N   0  0  0  0  0  0  0  0  0  0  0  0
    8.2945   15.6141    4.6259 C   0  0  0  0  0  0  0  0  0  0  0  0
    9.1587   17.1526    3.5358 H   0  0  0  0  0  0  0  0  0  0  0  0
    1.7157   11.6229    2.7211 C   0  0  0  0  0  0  0  0  0  0  0  0
    0.9573   10.6346    3.4530 N   0  0  0  0  0  0  0  0  0  0  0  0
    1.3912    9.2573    4.0395 C   0  0  0  0  0  0  0  0  0  0  0  0
    2.4049    8.6830    3.9514 O   0  0  0  0  0  0  0  0  0  0  0  0
    0.0135   10.8692    3.6061 H   0  0  0  0  0  0  0  0  0  0  0  0
    0.1334    8.6723    4.7282 C   0  0  0  0  0  0  0  0  0  0  0  0
   -0.4383    7.5437    3.8694 C   0  0  0  0  0  0  0  0  0  0  0  0
   -0.8020    6.5207    4.8300 N   0  0  0  0  0  0  0  0  0  0  0  0
   -1.2039    5.1983    4.4169 C   0  0  0  0  0  0  0  0  0  0  0  0
   -0.1848    6.7672    6.0519 C   0  0  0  0  0  0  0  0  0  0  0  0
   -0.1078    6.0095    7.0062 O   0  0  0  0  0  0  0  0  0  0  0  0
    0.3603    8.0323    5.9994 N   0  0  0  0  0  0  0  0  0  0  0  0
    0.8487    8.4507    6.7449 H   0  0  0  0  0  0  0  0  0  0  0  0
  2  1  1  0  0  0
  2 15  1  0  0  0
 15 16  1  0  0  0
 16 17  1  0  0  0
 17 18  2  0  0  0
 20 17  1  0  0  0
 20 21  1  0  0  0
 21 22  1  0  0  0
 22 23  1  0  0  0
 22 24  1  0  0  0
 24 25  2  0  0  0
 24 26  1  0  0  0
  2  3  1  0  0  0
  3  4  1  0  0  0
  4  5  2  0  0  0
  4  7  1  0  0  0
  7  8  1  0  0  0
  8  9  1  0  0  0
  9 10  1  0  0  0
 10 11  2  0  0  0
 11 12  1  0  0  0
 12 13  1  0  0  0
 26 20  1  0  0  0
 13  9  2  0  0  0
 16 19  1  0  0  0
 26 27  1  0  0  0
  3  6  1  0  0  0
 12 14  1  0  0  0
M  END
> <minimizedAffinity>
-4.05441

> <minimizedRMSD>
1.18804

$$$$
C32372-P76


 28 29  0  0  0  0  0  0  0  0999 V2000
    3.3878   12.1828    1.2524 C   0  0  0  0  0  0  0  0  0  0  0  0
    3.6963   11.6209    2.6384 C   0  0  0  0  0  0  0  0  0  0  0  0
    5.0676   11.9000    3.0178 N   0  0  0  0  0  0  0  0  0  0  0  0
    5.8181   13.2565    3.1712 C   0  0  0  0  0  0  0  0  0  0  0  0
    5.4652   14.3480    2.9399 O   0  0  0  0  0  0  0  0  0  0  0  0
    5.6128   11.1031    3.2096 H   0  0  0  0  0  0  0  0  0  0  0  0
    7.2743   12.9543    3.7345 C   0  0  0  0  0  0  0  0  0  0  0  0
    8.0037   11.9617    2.8001 C   0  0  0  0  0  0  0  0  0  0  0  0
    7.1791   12.3454    5.1465 C   0  0  0  0  0  0  0  0  0  0  0  0
    8.0413   14.2785    3.8212 C   0  0  0  0  0  0  0  0  0  0  0  0
    7.9905   15.2389    4.8686 C   0  0  0  0  0  0  0  0  0  0  0  0
    8.7351   16.3019    4.4219 C   0  0  0  0  0  0  0  0  0  0  0  0
    9.2132   15.9329    3.2029 N   0  0  0  0  0  0  0  0  0  0  0  0
    8.8709   14.6878    2.8457 N   0  0  0  0  0  0  0  0  0  0  0  0
    9.7592   16.5249    2.6366 H   0  0  0  0  0  0  0  0  0  0  0  0
    3.3590   10.1219    2.7036 C   0  0  0  0  0  0  0  0  0  0  0  0
    2.0060    9.8716    3.1449 N   0  0  0  0  0  0  0  0  0  0  0  0
    0.9872    8.7799    2.7083 C   0  0  0  0  0  0  0  0  0  0  0  0
    1.0610    7.9678    1.8726 O   0  0  0  0  0  0  0  0  0  0  0  0
    1.6752   10.4927    3.8334 H   0  0  0  0  0  0  0  0  0  0  0  0
   -0.2446    8.8767    3.6745 C   0  0  0  0  0  0  0  0  0  0  0  0
   -0.1216   10.1270    4.5489 C   0  0  0  0  0  0  0  0  0  0  0  0
    0.1261    9.6410    5.8758 N   0  0  0  0  0  0  0  0  0  0  0  0
    0.0773    8.2656    5.9189 C   0  0  0  0  0  0  0  0  0  0  0  0
    0.4173    7.6219    6.8982 O   0  0  0  0  0  0  0  0  0  0  0  0
   -0.3653    7.8139    4.6807 N   0  0  0  0  0  0  0  0  0  0  0  0
   -0.3964    6.4124    4.3359 C   0  0  0  0  0  0  0  0  0  0  0  0
    0.3075   10.2160    6.6541 H   0  0  0  0  0  0  0  0  0  0  0  0
  2  1  1  0  0  0
  2 16  1  0  0  0
 16 17  1  0  0  0
 17 18  1  0  0  0
 18 19  2  0  0  0
 21 18  1  0  0  0
 21 22  1  0  0  0
 22 23  1  0  0  0
 23 24  1  0  0  0
 24 25  2  0  0  0
 24 26  1  0  0  0
 26 27  1  0  0  0
  2  3  1  0  0  0
  3  4  1  0  0  0
  4  5  2  0  0  0
  4  7  1  0  0  0
  7  8  1  0  0  0
  7  9  1  0  0  0
  7 10  1  0  0  0
 10 11  1  0  0  0
 11 12  2  0  0  0
 12 13  1  0  0  0
 13 14  1  0  0  0
 26 21  1  0  0  0
 14 10  2  0  0  0
 17 20  1  0  0  0
 23 28  1  0  0  0
  3  6  1  0  0  0
 13 15  1  0  0  0
M  END
> <minimizedAffinity>
-3.99853

> <minimizedRMSD>
1.61627

$$$$
C63894-P229


 17 18  0  0  0  0  0  0  0  0999 V2000
    7.9197   14.0880   26.3638 N   0  0  0  0  0  0  0  0  0  0  0  0
    9.2233   14.6261   26.2846 C   0  0  0  0  0  0  0  0  0  0  0  0
    9.7205   15.4810   27.2563 C   0  0  0  0  0  0  0  0  0  0  0  0
   10.9308   16.0717   27.1906 N   0  0  0  0  0  0  0  0  0  0  0  0
   11.6520   15.8644   26.0689 C   0  0  0  0  0  0  0  0  0  0  0  0
   11.2353   15.0721   25.0225 C   0  0  0  0  0  0  0  0  0  0  0  0
    9.9935   14.4497   25.1137 C   0  0  0  0  0  0  0  0  0  0  0  0
    7.3847   14.2122   27.1809 H   0  0  0  0  0  0  0  0  0  0  0  0
    7.5461   13.5887   25.6020 H   0  0  0  0  0  0  0  0  0  0  0  0
    9.5115   13.5621   24.1520 N   0  0  0  0  0  0  0  0  0  0  0  0
    8.7109   13.8060   23.6336 H   0  0  0  0  0  0  0  0  0  0  0  0
   10.1581   12.2890   23.8948 C   0  0  0  0  0  0  0  0  0  0  0  0
    9.2930   11.1505   24.2720 C   0  0  0  0  0  0  0  0  0  0  0  0
    9.2500    9.8256   23.9147 C   0  0  0  0  0  0  0  0  0  0  0  0
    8.2190    9.2046   24.5740 N   0  0  0  0  0  0  0  0  0  0  0  0
    7.7043   10.1572   25.3188 C   0  0  0  0  0  0  0  0  0  0  0  0
    8.3044   11.3693   25.1966 O   0  0  0  0  0  0  0  0  0  0  0  0
  1  2  1  0  0  0
  2  3  2  0  0  0
  3  4  1  0  0  0
  4  5  2  0  0  0
  5  6  1  0  0  0
  6  7  2  0  0  0
  7 10  1  0  0  0
 10 12  1  0  0  0
 12 13  1  0  0  0
 13 14  2  0  0  0
 14 15  1  0  0  0
 15 16  2  0  0  0
 16 17  1  0  0  0
  7  2  1  0  0  0
 17 13  1  0  0  0
  1  8  1  0  0  0
  1  9  1  0  0  0
 10 11  1  0  0  0
M  END
> <minimizedAffinity>
-4.19331

> <minimizedRMSD>
1.50744

$$$$
C63895-P229


 15 16  0  0  0  0  0  0  0  0999 V2000
    9.4490   13.5331   23.4112 N   0  0  0  0  0  0  0  0  0  0  0  0
    8.5981   13.8249   23.8114 H   0  0  0  0  0  0  0  0  0  0  0  0
    8.0233   14.3732   21.1765 F   0  0  0  0  0  0  0  0  0  0  0  0
    9.3289   14.6786   21.2573 C   0  0  0  0  0  0  0  0  0  0  0  0
    9.9517   15.3911   20.2471 C   0  0  0  0  0  0  0  0  0  0  0  0
   11.2682   15.6942   20.2626 N   0  0  0  0  0  0  0  0  0  0  0  0
   11.9756   15.2701   21.3261 C   0  0  0  0  0  0  0  0  0  0  0  0
   11.4323   14.5651   22.3916 C   0  0  0  0  0  0  0  0  0  0  0  0
   10.0749   14.2408   22.3593 C   0  0  0  0  0  0  0  0  0  0  0  0
   10.1569   12.3381   23.8601 C   0  0  0  0  0  0  0  0  0  0  0  0
    9.2889   11.2007   24.2600 C   0  0  0  0  0  0  0  0  0  0  0  0
    9.2399    9.8706   23.9107 C   0  0  0  0  0  0  0  0  0  0  0  0
    8.2355    9.2404   24.6033 N   0  0  0  0  0  0  0  0  0  0  0  0
    7.7090   10.2056   25.3252 C   0  0  0  0  0  0  0  0  0  0  0  0
    8.3138   11.4185   25.1969 O   0  0  0  0  0  0  0  0  0  0  0  0
  3  4  1  0  0  0
  4  5  2  0  0  0
  5  6  1  0  0  0
  6  7  2  0  0  0
  7  8  1  0  0  0
  8  9  2  0  0  0
  9  1  1  0  0  0
  1 10  1  0  0  0
 10 11  1  0  0  0
 11 12  2  0  0  0
 12 13  1  0  0  0
 13 14  2  0  0  0
 14 15  1  0  0  0
  9  4  1  0  0  0
 15 11  1  0  0  0
  1  2  1  0  0  0
M  END
> <minimizedAffinity>
-5.52980

> <minimizedRMSD>
1.04655

$$$$
C46328-P354


 22 24  0  0  0  0  0  0  0  0999 V2000
    5.0765   11.5617   28.7007 O   0  0  0  0  0  0  0  0  0  0  0  0
    5.1651   10.7965   27.8258 C   0  0  0  0  0  0  0  0  0  0  0  0
    4.4475    9.4510   27.5988 N   0  0  0  0  0  0  0  0  0  0  0  0
    4.7547    8.9480   26.8102 H   0  0  0  0  0  0  0  0  0  0  0  0
    6.1414   11.1264   26.7252 C   0  0  0  0  0  0  0  0  0  0  0  0
    6.5089   12.4707   26.5545 C   0  0  0  0  0  0  0  0  0  0  0  0
    7.4835   12.8615   25.6257 C   0  0  0  0  0  0  0  0  0  0  0  0
    8.0919   11.8490   24.8851 C   0  0  0  0  0  0  0  0  0  0  0  0
    9.0840   11.8817   23.9397 N   0  0  0  0  0  0  0  0  0  0  0  0
    9.4073   10.6779   23.4545 N   0  0  0  0  0  0  0  0  0  0  0  0
    8.5970    9.8428   24.1015 C   0  0  0  0  0  0  0  0  0  0  0  0
    7.7497   10.5092   25.0150 C   0  0  0  0  0  0  0  0  0  0  0  0
    6.7548   10.1398   25.9389 C   0  0  0  0  0  0  0  0  0  0  0  0
    9.5184   12.7145   23.6449 H   0  0  0  0  0  0  0  0  0  0  0  0
    3.3968    8.8075   28.3555 C   0  0  0  0  0  0  0  0  0  0  0  0
    3.9452    7.8062   29.3800 C   0  0  0  0  0  0  0  0  0  0  0  0
    2.8189    6.8514   29.8338 C   0  0  0  0  0  0  0  0  0  0  0  0
    3.0445    6.3813   31.2653 C   0  0  0  0  0  0  0  0  0  0  0  0
    3.0896    7.5735   32.2276 C   0  0  0  0  0  0  0  0  0  0  0  0
    3.6377    8.7920   31.6291 N   0  0  0  0  0  0  0  0  0  0  0  0
    4.6111    8.5070   30.5816 C   0  0  0  0  0  0  0  0  0  0  0  0
    4.0931    9.3395   32.3594 H   0  0  0  0  0  0  0  0  0  0  0  0
  1  2  2  0  0  0
  2  3  1  0  0  0
  3 15  1  0  0  0
 16 15  1  0  0  0
 16 17  1  0  0  0
 17 18  1  0  0  0
 18 19  1  0  0  0
 19 20  1  0  0  0
 20 21  1  0  0  0
  2  5  1  0  0  0
  5  6  2  0  0  0
  6  7  1  0  0  0
  7  8  2  0  0  0
  8  9  1  0  0  0
  9 10  1  0  0  0
 10 11  2  0  0  0
 11 12  1  0  0  0
 12 13  2  0  0  0
 21 16  1  0  0  0
 13  5  1  0  0  0
 12  8  1  0  0  0
  3  4  1  0  0  0
 20 22  1  0  0  0
  9 14  1  0  0  0
M  END
> <minimizedAffinity>
-5.19685

> <minimizedRMSD>
0.56986

$$$$
C54664-P557


 23 26  0  0  0  0  0  0  0  0999 V2000
   23.6595   24.9739   15.6556 N   0  0  0  0  0  0  0  0  0  0  0  0
   24.4279   25.5217   16.7752 C   0  0  0  0  0  0  0  0  0  0  0  0
   25.3994   24.4642   17.3001 C   0  0  0  0  0  0  0  0  0  0  0  0
   24.7973   23.0439   17.3265 C   0  0  0  0  0  0  0  0  0  0  0  0
   23.2713   23.1261   17.3403 C   0  0  0  0  0  0  0  0  0  0  0  0
   22.7628   23.8976   16.1171 C   0  0  0  0  0  0  0  0  0  0  0  0
   25.3693   22.2738   18.4289 N   0  0  0  0  0  0  0  0  0  0  0  0
   24.5917   21.8438   19.4546 N   0  0  0  0  0  0  0  0  0  0  0  0
   25.4755   21.3465   20.3238 C   0  0  0  0  0  0  0  0  0  0  0  0
   26.8099   21.4503   19.8788 C   0  0  0  0  0  0  0  0  0  0  0  0
   28.0756   21.1097   20.3869 C   0  0  0  0  0  0  0  0  0  0  0  0
   29.2094   21.3814   19.6117 C   0  0  0  0  0  0  0  0  0  0  0  0
   29.0921   21.9701   18.3543 C   0  0  0  0  0  0  0  0  0  0  0  0
   27.8416   22.3122   17.8334 C   0  0  0  0  0  0  0  0  0  0  0  0
   26.7149   22.0443   18.6248 C   0  0  0  0  0  0  0  0  0  0  0  0
   23.9430   29.3007   13.8470 O   0  0  0  0  0  0  0  0  0  0  0  0
   23.7458   28.1059   13.9961 C   0  0  0  0  0  0  0  0  0  0  0  0
   23.4187   27.4379   15.2953 C   0  0  0  0  0  0  0  0  0  0  0  0
   22.9475   26.0313   14.8977 C   0  0  0  0  0  0  0  0  0  0  0  0
   23.2139   26.0051   13.3926 C   0  0  0  0  0  0  0  0  0  0  0  0
   22.8967   25.1141   12.6176 O   0  0  0  0  0  0  0  0  0  0  0  0
   23.7720   27.1797   13.0122 N   0  0  0  0  0  0  0  0  0  0  0  0
   24.1538   27.3404   12.1191 H   0  0  0  0  0  0  0  0  0  0  0  0
 16 17  2  0  0  0
 17 18  1  0  0  0
 18 19  1  0  0  0
 19  1  1  0  0  0
  1  2  1  0  0  0
  2  3  1  0  0  0
  3  4  1  0  0  0
  4  7  1  0  0  0
  7  8  1  0  0  0
  8  9  2  0  0  0
  9 10  1  0  0  0
 10 11  2  0  0  0
 11 12  1  0  0  0
 12 13  2  0  0  0
 13 14  1  0  0  0
 14 15  2  0  0  0
  4  5  1  0  0  0
  5  6  1  0  0  0
 19 20  1  0  0  0
 20 21  2  0  0  0
 20 22  1  0  0  0
 22 17  1  0  0  0
  6  1  1  0  0  0
 15  7  1  0  0  0
 15 10  1  0  0  0
 22 23  1  0  0  0
M  END
> <minimizedAffinity>
-3.61691

> <minimizedRMSD>
1.52647

$$$$
C46023-P308


 20 22  0  0  0  0  0  0  0  0999 V2000
    8.1769   14.1815   25.5518 C   0  0  0  0  0  0  0  0  0  0  0  0
    8.2325   14.9911   26.4731 O   0  0  0  0  0  0  0  0  0  0  0  0
    7.3541   12.9814   25.7598 C   0  0  0  0  0  0  0  0  0  0  0  0
    7.7616   11.7635   25.1944 C   0  0  0  0  0  0  0  0  0  0  0  0
    7.0469   10.5995   25.4792 C   0  0  0  0  0  0  0  0  0  0  0  0
    5.9750   10.6713   26.3504 C   0  0  0  0  0  0  0  0  0  0  0  0
    5.5720   11.8951   26.8895 C   0  0  0  0  0  0  0  0  0  0  0  0
    6.2405   13.0687   26.5993 C   0  0  0  0  0  0  0  0  0  0  0  0
    4.3941   11.6742   27.7784 C   0  0  0  0  0  0  0  0  0  0  0  0
    4.4546   10.1396   27.9333 C   0  0  0  0  0  0  0  0  0  0  0  0
    5.1232    9.6191   26.7350 N   0  0  0  0  0  0  0  0  0  0  0  0
    5.0041    8.7425   26.3029 H   0  0  0  0  0  0  0  0  0  0  0  0
    8.9481   14.2519   24.2425 C   0  0  0  0  0  0  0  0  0  0  0  0
   12.3244   16.3076   21.4793 C   0  0  0  0  0  0  0  0  0  0  0  0
   11.6233   15.0522   21.9640 C   0  0  0  0  0  0  0  0  0  0  0  0
   11.8440   14.8447   23.4632 C   0  0  0  0  0  0  0  0  0  0  0  0
   10.9331   15.7365   24.3009 C   0  0  0  0  0  0  0  0  0  0  0  0
    9.5056   15.5962   23.9746 N   0  0  0  0  0  0  0  0  0  0  0  0
    9.3076   15.9674   22.5607 C   0  0  0  0  0  0  0  0  0  0  0  0
   10.1345   15.1132   21.5992 C   0  0  0  0  0  0  0  0  0  0  0  0
 14 15  1  0  0  0
 15 16  1  0  0  0
 16 17  1  0  0  0
 17 18  1  0  0  0
 18 13  1  0  0  0
 13  1  1  0  0  0
  1  2  2  0  0  0
  1  3  1  0  0  0
  3  4  2  0  0  0
  4  5  1  0  0  0
  5  6  2  0  0  0
  6  7  1  0  0  0
  7  8  2  0  0  0
  7  9  1  0  0  0
  9 10  1  0  0  0
 10 11  1  0  0  0
 18 19  1  0  0  0
 19 20  1  0  0  0
 20 15  1  0  0  0
  8  3  1  0  0  0
 11  6  1  0  0  0
 11 12  1  0  0  0
M  END
> <minimizedAffinity>
-6.36125

> <minimizedRMSD>
0.78675

$$$$
C46024-P308


 20 22  0  0  0  0  0  0  0  0999 V2000
   10.2102   12.6450   24.2176 C   0  0  0  0  0  0  0  0  0  0  0  0
   11.1143   12.6514   25.0505 O   0  0  0  0  0  0  0  0  0  0  0  0
    8.9960   11.9012   24.5839 C   0  0  0  0  0  0  0  0  0  0  0  0
    8.9303   10.5276   24.3056 C   0  0  0  0  0  0  0  0  0  0  0  0
    7.8537    9.7758   24.7814 C   0  0  0  0  0  0  0  0  0  0  0  0
    6.8957   10.3999   25.5590 C   0  0  0  0  0  0  0  0  0  0  0  0
    6.9682   11.7711   25.8150 C   0  0  0  0  0  0  0  0  0  0  0  0
    8.0064   12.5461   25.3307 C   0  0  0  0  0  0  0  0  0  0  0  0
    5.8019   12.1741   26.6535 C   0  0  0  0  0  0  0  0  0  0  0  0
    5.3040   10.7877   27.1134 C   0  0  0  0  0  0  0  0  0  0  0  0
    5.7279    9.8236   26.0909 N   0  0  0  0  0  0  0  0  0  0  0  0
    5.2973    8.9752   25.8376 H   0  0  0  0  0  0  0  0  0  0  0  0
   10.2773   13.2525   22.8152 C   0  0  0  0  0  0  0  0  0  0  0  0
   10.3516   15.9710   19.1640 C   0  0  0  0  0  0  0  0  0  0  0  0
   10.7365   15.3816   20.5179 C   0  0  0  0  0  0  0  0  0  0  0  0
   11.7189   16.3215   21.2176 C   0  0  0  0  0  0  0  0  0  0  0  0
   12.0392   15.8054   22.6108 C   0  0  0  0  0  0  0  0  0  0  0  0
   10.7433   15.6203   23.3911 C   0  0  0  0  0  0  0  0  0  0  0  0
    9.8149   14.6571   22.7785 N   0  0  0  0  0  0  0  0  0  0  0  0
    9.5012   15.0983   21.3985 C   0  0  0  0  0  0  0  0  0  0  0  0
 15 14  1  0  0  0
 15 16  1  0  0  0
 16 17  1  0  0  0
 17 18  1  0  0  0
 18 19  1  0  0  0
 19 13  1  0  0  0
 13  1  1  0  0  0
  1  2  2  0  0  0
  1  3  1  0  0  0
  3  4  2  0  0  0
  4  5  1  0  0  0
  5  6  2  0  0  0
  6  7  1  0  0  0
  7  8  2  0  0  0
  7  9  1  0  0  0
  9 10  1  0  0  0
 10 11  1  0  0  0
 19 20  1  0  0  0
 20 15  1  0  0  0
  8  3  1  0  0  0
 11  6  1  0  0  0
 11 12  1  0  0  0
M  END
> <minimizedAffinity>
-7.02498

> <minimizedRMSD>
1.03957

$$$$
C47049-P481


 19 21  0  0  0  0  0  0  0  0999 V2000
    8.2481   13.5000   23.3577 C   0  0  0  0  0  0  0  0  0  0  0  0
    8.3841   12.3242   23.9347 N   0  0  0  0  0  0  0  0  0  0  0  0
    7.4201   12.1615   24.9137 C   0  0  0  0  0  0  0  0  0  0  0  0
    7.2143   11.0050   25.6859 C   0  0  0  0  0  0  0  0  0  0  0  0
    6.1788   10.9670   26.6274 C   0  0  0  0  0  0  0  0  0  0  0  0
    5.3546   12.0745   26.8386 C   0  0  0  0  0  0  0  0  0  0  0  0
    5.5534   13.2386   26.0765 C   0  0  0  0  0  0  0  0  0  0  0  0
    6.5843   13.2568   25.1200 C   0  0  0  0  0  0  0  0  0  0  0  0
    7.0411   14.5137   24.0410 S   0  0  0  0  0  0  0  0  0  0  0  0
    9.2015   15.3777   21.9094 C   0  0  0  0  0  0  0  0  0  0  0  0
    9.0149   13.8880   22.1278 C   0  0  0  0  0  0  0  0  0  0  0  0
    4.2497   12.0222   27.8706 C   0  0  0  0  0  0  0  0  0  0  0  0
    4.6797   12.0312   29.3530 C   0  0  0  0  0  0  0  0  0  0  0  0
    5.1294   10.6653   29.8823 C   0  0  0  0  0  0  0  0  0  0  0  0
    5.4073   10.7209   31.3893 C   0  0  0  0  0  0  0  0  0  0  0  0
    5.6565   12.1397   31.9048 C   0  0  0  0  0  0  0  0  0  0  0  0
    6.4408   12.9057   30.9460 N   0  0  0  0  0  0  0  0  0  0  0  0
    5.7407   13.1048   29.6706 C   0  0  0  0  0  0  0  0  0  0  0  0
    7.3123   12.4075   30.7654 H   0  0  0  0  0  0  0  0  0  0  0  0
 10 11  1  0  0  0
 11  1  1  0  0  0
  1  2  2  0  0  0
  2  3  1  0  0  0
  3  4  2  0  0  0
  4  5  1  0  0  0
  5  6  2  0  0  0
  6 12  1  0  0  0
 13 12  1  0  0  0
 13 14  1  0  0  0
 14 15  1  0  0  0
 15 16  1  0  0  0
 16 17  1  0  0  0
 17 18  1  0  0  0
  6  7  1  0  0  0
  7  8  2  0  0  0
  8  9  1  0  0  0
  9  1  1  0  0  0
  8  3  1  0  0  0
 18 13  1  0  0  0
 17 19  1  0  0  0
M  END
> <minimizedAffinity>
-4.30254

> <minimizedRMSD>
1.24123

$$$$
C47057-P481


 26 28  0  0  0  0  0  0  0  0999 V2000
    8.2216   13.1734   23.6809 C   0  0  0  0  0  0  0  0  0  0  0  0
    8.2312   11.9464   24.1368 N   0  0  0  0  0  0  0  0  0  0  0  0
    7.2954   11.8430   25.1564 C   0  0  0  0  0  0  0  0  0  0  0  0
    6.9764   10.6789   25.8790 C   0  0  0  0  0  0  0  0  0  0  0  0
    5.9782   10.7143   26.8620 C   0  0  0  0  0  0  0  0  0  0  0  0
    5.2905   11.8960   27.1471 C   0  0  0  0  0  0  0  0  0  0  0  0
    5.6190   13.0731   26.4582 C   0  0  0  0  0  0  0  0  0  0  0  0
    6.6170   13.0208   25.4723 C   0  0  0  0  0  0  0  0  0  0  0  0
    7.2201   14.2866   24.4870 S   0  0  0  0  0  0  0  0  0  0  0  0
    9.7501   14.8136   22.3447 C   0  0  0  0  0  0  0  0  0  0  0  0
   10.0926   15.6430   23.0795 O   0  0  0  0  0  0  0  0  0  0  0  0
    8.8897   13.5826   22.5786 N   0  0  0  0  0  0  0  0  0  0  0  0
    8.8050   12.9856   21.8004 H   0  0  0  0  0  0  0  0  0  0  0  0
    9.9956   14.8137   21.0050 O   0  0  0  0  0  0  0  0  0  0  0  0
   12.1448   15.9229   21.2565 C   0  0  0  0  0  0  0  0  0  0  0  0
   10.8595   15.8392   20.4421 C   0  0  0  0  0  0  0  0  0  0  0  0
   11.1996   15.3972   19.0145 C   0  0  0  0  0  0  0  0  0  0  0  0
   10.1091   17.1701   20.3561 C   0  0  0  0  0  0  0  0  0  0  0  0
    4.1958   11.9133   28.1907 C   0  0  0  0  0  0  0  0  0  0  0  0
    3.3084   13.1716   28.1284 C   0  0  0  0  0  0  0  0  0  0  0  0
    1.9488   12.8871   27.4633 C   0  0  0  0  0  0  0  0  0  0  0  0
    0.8681   13.8818   27.8884 C   0  0  0  0  0  0  0  0  0  0  0  0
    1.4627   15.1896   28.3937 C   0  0  0  0  0  0  0  0  0  0  0  0
    2.3372   14.9987   29.5527 N   0  0  0  0  0  0  0  0  0  0  0  0
    3.0977   13.7491   29.5350 C   0  0  0  0  0  0  0  0  0  0  0  0
    1.7598   15.0091   30.3935 H   0  0  0  0  0  0  0  0  0  0  0  0
 15 16  1  0  0  0
 16 17  1  0  0  0
 16 18  1  0  0  0
 16 14  1  0  0  0
 14 10  1  0  0  0
 10 11  2  0  0  0
 10 12  1  0  0  0
 12  1  1  0  0  0
  1  2  2  0  0  0
  2  3  1  0  0  0
  3  4  2  0  0  0
  4  5  1  0  0  0
  5  6  2  0  0  0
  6 19  1  0  0  0
 20 19  1  0  0  0
 20 21  1  0  0  0
 21 22  1  0  0  0
 22 23  1  0  0  0
 23 24  1  0  0  0
 24 25  1  0  0  0
  6  7  1  0  0  0
  7  8  2  0  0  0
  8  9  1  0  0  0
  9  1  1  0  0  0
  8  3  1  0  0  0
 25 20  1  0  0  0
 12 13  1  0  0  0
 24 26  1  0  0  0
M  END
> <minimizedAffinity>
-6.19481

> <minimizedRMSD>
0.98327

$$$$
C47072-P481


 23 25  0  0  0  0  0  0  0  0999 V2000
    6.4068   13.4640   26.7800 C   0  0  0  0  0  0  0  0  0  0  0  0
    6.0199   12.2012   27.2560 C   0  0  0  0  0  0  0  0  0  0  0  0
    6.3754   11.0490   26.5685 C   0  0  0  0  0  0  0  0  0  0  0  0
    7.1207   11.1406   25.3901 C   0  0  0  0  0  0  0  0  0  0  0  0
    7.4737   12.4005   24.8646 C   0  0  0  0  0  0  0  0  0  0  0  0
    8.1525   12.6104   23.6805 N   0  0  0  0  0  0  0  0  0  0  0  0
    8.2041   13.9033   23.4197 C   0  0  0  0  0  0  0  0  0  0  0  0
    7.7067   14.9241   24.7054 S   0  0  0  0  0  0  0  0  0  0  0  0
    7.1132   13.5543   25.5675 C   0  0  0  0  0  0  0  0  0  0  0  0
    4.9973   15.1298   27.4821 O   0  0  0  0  0  0  0  0  0  0  0  0
    6.0653   14.6772   27.5594 C   0  0  0  0  0  0  0  0  0  0  0  0
    7.2800   15.1273   28.3840 N   0  0  0  0  0  0  0  0  0  0  0  0
    8.0573   14.5251   28.3349 H   0  0  0  0  0  0  0  0  0  0  0  0
    7.4687   16.2950   29.2235 C   0  0  0  0  0  0  0  0  0  0  0  0
    8.8277   16.2259   29.9326 C   0  0  0  0  0  0  0  0  0  0  0  0
    9.9069   17.0402   29.2108 C   0  0  0  0  0  0  0  0  0  0  0  0
    9.6940   17.0759   27.6993 C   0  0  0  0  0  0  0  0  0  0  0  0
    8.3837   17.5919   27.2827 N   0  0  0  0  0  0  0  0  0  0  0  0
    7.3787   17.5686   28.3642 C   0  0  0  0  0  0  0  0  0  0  0  0
    8.0414   17.0212   26.5097 H   0  0  0  0  0  0  0  0  0  0  0  0
    8.5701   14.5142   22.1045 C   0  0  0  0  0  0  0  0  0  0  0  0
    7.5504   14.3642   21.2145 F   0  0  0  0  0  0  0  0  0  0  0  0
    9.6675   13.9316   21.5575 F   0  0  0  0  0  0  0  0  0  0  0  0
 10 11  2  0  0  0
 11 12  1  0  0  0
 14 12  1  0  0  0
 14 15  1  0  0  0
 15 16  1  0  0  0
 16 17  1  0  0  0
 17 18  1  0  0  0
 18 19  1  0  0  0
 11  1  1  0  0  0
  1  2  2  0  0  0
  2  3  1  0  0  0
  3  4  2  0  0  0
  4  5  1  0  0  0
  5  6  1  0  0  0
  6  7  2  0  0  0
  7 21  1  0  0  0
 21 22  1  0  0  0
 21 23  1  0  0  0
  7  8  1  0  0  0
  8  9  1  0  0  0
 19 14  1  0  0  0
  9  1  1  0  0  0
  9  5  2  0  0  0
 12 13  1  0  0  0
 18 20  1  0  0  0
M  END
> <minimizedAffinity>
-4.29790

> <minimizedRMSD>
3.14139

$$$$
C46343-P371


 22 24  0  0  0  0  0  0  0  0999 V2000
    8.6877   12.5536   23.7229 N   0  0  0  0  0  0  0  0  0  0  0  0
    9.6559   11.6153   23.6496 N   0  0  0  0  0  0  0  0  0  0  0  0
    9.1310   10.5746   24.2992 C   0  0  0  0  0  0  0  0  0  0  0  0
    7.9040   10.8956   24.9143 C   0  0  0  0  0  0  0  0  0  0  0  0
    6.9563   10.2127   25.6848 C   0  0  0  0  0  0  0  0  0  0  0  0
    5.8739   10.9138   26.2311 C   0  0  0  0  0  0  0  0  0  0  0  0
    5.6719   12.2594   25.9268 C   0  0  0  0  0  0  0  0  0  0  0  0
    6.5571   12.9343   25.0735 C   0  0  0  0  0  0  0  0  0  0  0  0
    7.6743   12.2287   24.5944 C   0  0  0  0  0  0  0  0  0  0  0  0
    4.5539   12.9505   26.3980 N   0  0  0  0  0  0  0  0  0  0  0  0
    3.3567   12.4641   27.2734 C   0  0  0  0  0  0  0  0  0  0  0  0
    3.1677   11.4313   27.7950 O   0  0  0  0  0  0  0  0  0  0  0  0
    4.5144   13.8985   26.1355 H   0  0  0  0  0  0  0  0  0  0  0  0
    2.2789   13.5592   27.3059 C   0  0  0  0  0  0  0  0  0  0  0  0
    2.7439   14.9304   27.7959 C   0  0  0  0  0  0  0  0  0  0  0  0
    1.5728   15.9150   27.7565 C   0  0  0  0  0  0  0  0  0  0  0  0
    0.9005   15.9327   26.3814 C   0  0  0  0  0  0  0  0  0  0  0  0
    0.4667   14.6033   25.9531 N   0  0  0  0  0  0  0  0  0  0  0  0
    1.5853   13.6602   25.9445 C   0  0  0  0  0  0  0  0  0  0  0  0
    0.0778   14.6670   25.0124 H   0  0  0  0  0  0  0  0  0  0  0  0
    9.3222   14.9245   23.4332 C   0  0  0  0  0  0  0  0  0  0  0  0
    8.7237   13.6829   22.8122 C   0  0  0  0  0  0  0  0  0  0  0  0
 21 22  1  0  0  0
 22  1  1  0  0  0
  1  2  1  0  0  0
  2  3  2  0  0  0
  3  4  1  0  0  0
  4  5  2  0  0  0
  5  6  1  0  0  0
  6  7  2  0  0  0
  7 10  1  0  0  0
 10 11  1  0  0  0
 11 12  2  0  0  0
 14 11  1  0  0  0
 14 15  1  0  0  0
 15 16  1  0  0  0
 16 17  1  0  0  0
 17 18  1  0  0  0
 18 19  1  0  0  0
  7  8  1  0  0  0
  8  9  2  0  0  0
  9  1  1  0  0  0
  9  4  1  0  0  0
 19 14  1  0  0  0
 10 13  1  0  0  0
 18 20  1  0  0  0
M  END
> <minimizedAffinity>
-4.66710

> <minimizedRMSD>
0.33115

$$$$
C46353-P371


 20 22  0  0  0  0  0  0  0  0999 V2000
    5.7417   11.3926   26.4199 C   0  0  0  0  0  0  0  0  0  0  0  0
    6.2371   12.6565   26.0980 C   0  0  0  0  0  0  0  0  0  0  0  0
    7.3791   12.8275   25.2882 C   0  0  0  0  0  0  0  0  0  0  0  0
    7.9662   11.6391   24.8158 C   0  0  0  0  0  0  0  0  0  0  0  0
    9.0518   11.4228   24.0031 N   0  0  0  0  0  0  0  0  0  0  0  0
    9.4101   10.1269   23.9002 N   0  0  0  0  0  0  0  0  0  0  0  0
    8.4181    9.4868   24.5262 C   0  0  0  0  0  0  0  0  0  0  0  0
    7.5049   10.3713   25.1353 C   0  0  0  0  0  0  0  0  0  0  0  0
    6.3630   10.2408   25.9324 C   0  0  0  0  0  0  0  0  0  0  0  0
    9.5261   12.1490   23.5372 H   0  0  0  0  0  0  0  0  0  0  0  0
    7.8853   14.2163   24.9676 C   0  0  0  0  0  0  0  0  0  0  0  0
    9.2222   14.4448   25.5363 N   0  0  0  0  0  0  0  0  0  0  0  0
    9.8755   14.6125   24.7712 H   0  0  0  0  0  0  0  0  0  0  0  0
    9.2733   15.5966   26.4577 C   0  0  0  0  0  0  0  0  0  0  0  0
    8.1791   16.6457   26.2533 C   0  0  0  0  0  0  0  0  0  0  0  0
    8.3096   17.7615   27.2963 C   0  0  0  0  0  0  0  0  0  0  0  0
    9.7186   17.9094   27.8772 C   0  0  0  0  0  0  0  0  0  0  0  0
   10.7610   17.6541   26.8841 N   0  0  0  0  0  0  0  0  0  0  0  0
   10.6651   16.2894   26.3356 C   0  0  0  0  0  0  0  0  0  0  0  0
   11.6735   17.7704   27.3247 H   0  0  0  0  0  0  0  0  0  0  0  0
  1  2  2  0  0  0
  2  3  1  0  0  0
  3 11  1  0  0  0
 11 12  1  0  0  0
 14 12  1  0  0  0
 14 15  1  0  0  0
 15 16  1  0  0  0
 16 17  1  0  0  0
 17 18  1  0  0  0
 18 19  1  0  0  0
  3  4  2  0  0  0
  4  5  1  0  0  0
  5  6  1  0  0  0
  6  7  2  0  0  0
  7  8  1  0  0  0
  8  9  2  0  0  0
  9  1  1  0  0  0
 19 14  1  0  0  0
  8  4  1  0  0  0
 12 13  1  0  0  0
 18 20  1  0  0  0
  5 10  1  0  0  0
M  END
> <minimizedAffinity>
-4.90535

> <minimizedRMSD>
1.45164

$$$$
C13210-P291


 14 14  0  0  0  0  0  0  0  0999 V2000
    9.7395   12.9452   22.6930 N   0  0  0  0  0  0  0  0  0  0  0  0
    9.4933   12.2603   21.9784 H   0  0  0  0  0  0  0  0  0  0  0  0
   10.3008   14.0654   22.0607 N   0  0  0  0  0  0  0  0  0  0  0  0
   11.1692   14.8755   22.9089 C   0  0  0  0  0  0  0  0  0  0  0  0
   12.0789   15.6740   21.9943 C   0  0  0  0  0  0  0  0  0  0  0  0
   11.2850   16.5897   21.0742 C   0  0  0  0  0  0  0  0  0  0  0  0
   10.2518   15.7854   20.2917 C   0  0  0  0  0  0  0  0  0  0  0  0
    9.4196   14.8881   21.2132 C   0  0  0  0  0  0  0  0  0  0  0  0
    8.3396   13.3083   23.5994 S   0  0  0  0  0  0  0  0  0  0  0  0
    8.5748   14.4911   24.3998 O   0  0  0  0  0  0  0  0  0  0  0  0
    7.2170   13.1656   22.6978 O   0  0  0  0  0  0  0  0  0  0  0  0
    8.3497   11.9040   24.6988 C   0  0  0  0  0  0  0  0  0  0  0  0
    6.7415   10.6390   26.1540 C   0  0  0  0  0  0  0  0  0  0  0  0
    7.2271   12.0082   25.7190 C   0  0  0  0  0  0  0  0  0  0  0  0
 13 14  1  0  0  0
 14 12  1  0  0  0
 12  9  1  0  0  0
  9 10  2  0  0  0
  9 11  2  0  0  0
  9  1  1  0  0  0
  1  3  1  0  0  0
  3  4  1  0  0  0
  4  5  1  0  0  0
  5  6  1  0  0  0
  6  7  1  0  0  0
  7  8  1  0  0  0
  8  3  1  0  0  0
  1  2  1  0  0  0
M  END
> <minimizedAffinity>
-5.08522

> <minimizedRMSD>
1.21735

$$$$
C64564-P152


 24 25  0  0  0  0  0  0  0  0999 V2000
    6.3728   10.4921   26.9503 C   0  0  0  0  0  0  0  0  0  0  0  0
    6.3947   11.4241   27.6464 O   0  0  0  0  0  0  0  0  0  0  0  0
    5.3591    9.3496   26.8534 N   0  0  0  0  0  0  0  0  0  0  0  0
    5.5262    8.7116   26.1224 H   0  0  0  0  0  0  0  0  0  0  0  0
    9.7643   11.1746   23.4002 N   0  0  0  0  0  0  0  0  0  0  0  0
    8.8713   10.7108   24.2860 C   0  0  0  0  0  0  0  0  0  0  0  0
    8.1786   11.3301   25.2911 C   0  0  0  0  0  0  0  0  0  0  0  0
    7.3800   10.3148   25.8799 C   0  0  0  0  0  0  0  0  0  0  0  0
    7.5961    9.1168   25.2920 N   0  0  0  0  0  0  0  0  0  0  0  0
    8.4908    9.3988   24.3181 N   0  0  0  0  0  0  0  0  0  0  0  0
   10.0149   12.1267   23.4063 H   0  0  0  0  0  0  0  0  0  0  0  0
   10.1695   10.5632   22.7435 H   0  0  0  0  0  0  0  0  0  0  0  0
    8.8356    8.7225   23.6912 H   0  0  0  0  0  0  0  0  0  0  0  0
    4.1906    9.0528   27.6638 C   0  0  0  0  0  0  0  0  0  0  0  0
    4.5145    8.8104   29.1319 C   0  0  0  0  0  0  0  0  0  0  0  0
    3.5764    9.1144   30.1213 C   0  0  0  0  0  0  0  0  0  0  0  0
    3.9214    8.9480   31.4617 C   0  0  0  0  0  0  0  0  0  0  0  0
    5.1947    8.5069   31.7920 C   0  0  0  0  0  0  0  0  0  0  0  0
    6.0782    8.2463   30.7621 C   0  0  0  0  0  0  0  0  0  0  0  0
    5.7718    8.3861   29.4541 N   0  0  0  0  0  0  0  0  0  0  0  0
    3.2942    7.9671   27.0431 C   0  0  0  0  0  0  0  0  0  0  0  0
    3.6195    7.7073   25.7483 F   0  0  0  0  0  0  0  0  0  0  0  0
    3.3382    6.7857   27.6905 F   0  0  0  0  0  0  0  0  0  0  0  0
    1.9974    8.3731   27.0265 F   0  0  0  0  0  0  0  0  0  0  0  0
  5  6  1  0  0  0
  6  7  2  0  0  0
  7  8  1  0  0  0
  8  1  1  0  0  0
  1  2  2  0  0  0
  1  3  1  0  0  0
 14  3  1  0  0  0
 14 15  1  0  0  0
 15 16  2  0  0  0
 16 17  1  0  0  0
 17 18  2  0  0  0
 18 19  1  0  0  0
 19 20  2  0  0  0
 14 21  1  0  0  0
 21 22  1  0  0  0
 21 23  1  0  0  0
 21 24  1  0  0  0
  8  9  2  0  0  0
  9 10  1  0  0  0
 10  6  1  0  0  0
 20 15  1  0  0  0
  5 11  1  0  0  0
  5 12  1  0  0  0
  3  4  1  0  0  0
 10 13  1  0  0  0
M  END
> <minimizedAffinity>
-5.52747

> <minimizedRMSD>
0.59876

$$$$
C51867-P219


 13 13  0  0  0  0  0  0  0  0999 V2000
   13.7354   16.7283   19.7684 C   0  0  0  0  0  0  0  0  0  0  0  0
   12.8782   15.9196   20.6944 C   0  0  0  0  0  0  0  0  0  0  0  0
   11.6699   15.4108   20.2442 C   0  0  0  0  0  0  0  0  0  0  0  0
   10.8803   14.7054   21.1421 C   0  0  0  0  0  0  0  0  0  0  0  0
    9.6740   14.2485   20.7163 O   0  0  0  0  0  0  0  0  0  0  0  0
   11.2796   14.4813   22.4481 C   0  0  0  0  0  0  0  0  0  0  0  0
   12.5260   15.0065   22.7830 C   0  0  0  0  0  0  0  0  0  0  0  0
   13.3150   15.7308   21.9603 N   0  0  0  0  0  0  0  0  0  0  0  0
    9.4014   14.3990   19.8325 H   0  0  0  0  0  0  0  0  0  0  0  0
   10.4721   13.7637   23.4994 C   0  0  0  0  0  0  0  0  0  0  0  0
   10.7709   12.2772   23.5283 C   0  0  0  0  0  0  0  0  0  0  0  0
    8.9733   13.9973   23.5300 C   0  0  0  0  0  0  0  0  0  0  0  0
    8.1418   13.2607   22.9949 O   0  0  0  0  0  0  0  0  0  0  0  0
  1  2  1  0  0  0
  2  3  2  0  0  0
  3  4  1  0  0  0
  4  5  1  0  0  0
  4  6  2  0  0  0
  6 10  1  0  0  0
 10 11  1  0  0  0
 10 12  1  0  0  0
 12 13  2  0  0  0
  6  7  1  0  0  0
  7  8  2  0  0  0
  8  2  1  0  0  0
  5  9  1  0  0  0
M  END
> <minimizedAffinity>
-5.30005

> <minimizedRMSD>
0.87500

$$$$
C43441-P128


 19 21  0  0  0  0  0  0  0  0999 V2000
    7.6612   11.9643   26.4489 N   0  0  0  0  0  0  0  0  0  0  0  0
    7.7203   13.4477   26.4555 C   0  0  0  0  0  0  0  0  0  0  0  0
    8.9595   13.8659   25.6687 C   0  0  0  0  0  0  0  0  0  0  0  0
    9.1446   12.6603   24.8218 C   0  0  0  0  0  0  0  0  0  0  0  0
    9.9716   12.5555   23.7335 C   0  0  0  0  0  0  0  0  0  0  0  0
   10.0592   11.3054   23.1566 C   0  0  0  0  0  0  0  0  0  0  0  0
    9.4138   10.1939   23.7026 C   0  0  0  0  0  0  0  0  0  0  0  0
    9.7591    8.5023   23.0040 Br  0  0  0  0  0  0  0  0  0  0  0  0
    8.5552   10.3142   24.7772 C   0  0  0  0  0  0  0  0  0  0  0  0
    8.3921   11.5729   25.2947 C   0  0  0  0  0  0  0  0  0  0  0  0
    5.1356   12.3239   26.8112 O   0  0  0  0  0  0  0  0  0  0  0  0
    6.1447   11.2880   26.8029 S   0  0  0  0  0  0  0  0  0  0  0  0
    5.9843    9.9968   26.1737 O   0  0  0  0  0  0  0  0  0  0  0  0
    6.1886   10.8772   28.4773 C   0  0  0  0  0  0  0  0  0  0  0  0
    5.9450    9.6038   29.0130 C   0  0  0  0  0  0  0  0  0  0  0  0
    6.0964    9.5869   30.3419 N   0  0  0  0  0  0  0  0  0  0  0  0
    6.3524   10.8698   30.6564 N   0  0  0  0  0  0  0  0  0  0  0  0
    6.4495   11.6854   29.5640 C   0  0  0  0  0  0  0  0  0  0  0  0
    6.4592   11.1892   31.5815 H   0  0  0  0  0  0  0  0  0  0  0  0
 11 12  2  0  0  0
 12 13  2  0  0  0
 12 14  1  0  0  0
 14 15  1  0  0  0
 15 16  2  0  0  0
 16 17  1  0  0  0
 17 18  1  0  0  0
 12  1  1  0  0  0
  1  2  1  0  0  0
  2  3  1  0  0  0
  3  4  1  0  0  0
  4  5  2  0  0  0
  5  6  1  0  0  0
  6  7  2  0  0  0
  7  8  1  0  0  0
  7  9  1  0  0  0
  9 10  2  0  0  0
 18 14  2  0  0  0
 10  1  1  0  0  0
 10  4  1  0  0  0
 17 19  1  0  0  0
M  END
> <minimizedAffinity>
-5.03315

> <minimizedRMSD>
0.54493

$$$$
C60693-P128


 19 21  0  0  0  0  0  0  0  0999 V2000
    9.6120    8.6965   23.1740 C   0  0  0  0  0  0  0  0  0  0  0  0
    9.2864   10.0208   23.7745 C   0  0  0  0  0  0  0  0  0  0  0  0
    9.9202   11.1645   23.2846 C   0  0  0  0  0  0  0  0  0  0  0  0
    9.8217   12.3999   23.8997 C   0  0  0  0  0  0  0  0  0  0  0  0
    8.9712   12.4803   24.9705 C   0  0  0  0  0  0  0  0  0  0  0  0
    8.1977   11.3853   25.3779 C   0  0  0  0  0  0  0  0  0  0  0  0
    8.3750   10.1397   24.8175 C   0  0  0  0  0  0  0  0  0  0  0  0
    7.4360   11.7495   26.5214 N   0  0  0  0  0  0  0  0  0  0  0  0
    7.5070   13.2332   26.5879 C   0  0  0  0  0  0  0  0  0  0  0  0
    8.7809   13.6537   25.8625 C   0  0  0  0  0  0  0  0  0  0  0  0
    5.9375   11.0439   26.8613 S   0  0  0  0  0  0  0  0  0  0  0  0
    4.9157   12.0625   26.9483 O   0  0  0  0  0  0  0  0  0  0  0  0
    5.7728    9.7877   26.1647 O   0  0  0  0  0  0  0  0  0  0  0  0
    6.0192   10.5442   28.5138 C   0  0  0  0  0  0  0  0  0  0  0  0
    5.4918    9.3525   29.0329 C   0  0  0  0  0  0  0  0  0  0  0  0
    5.7425    9.2246   30.3407 N   0  0  0  0  0  0  0  0  0  0  0  0
    6.3627   10.3728   30.6688 N   0  0  0  0  0  0  0  0  0  0  0  0
    6.5800   11.1923   29.5954 C   0  0  0  0  0  0  0  0  0  0  0  0
    6.6326   10.5999   31.5879 H   0  0  0  0  0  0  0  0  0  0  0  0
  1  2  1  0  0  0
  2  3  2  0  0  0
  3  4  1  0  0  0
  4  5  2  0  0  0
  5  6  1  0  0  0
  6  7  2  0  0  0
  6  8  1  0  0  0
  8 11  1  0  0  0
 11 12  2  0  0  0
 11 13  2  0  0  0
 11 14  1  0  0  0
 14 15  1  0  0  0
 15 16  2  0  0  0
 16 17  1  0  0  0
 17 18  1  0  0  0
  8  9  1  0  0  0
  9 10  1  0  0  0
  7  2  1  0  0  0
 18 14  2  0  0  0
 10  5  1  0  0  0
 17 19  1  0  0  0
M  END
> <minimizedAffinity>
-5.60777

> <minimizedRMSD>
1.28411

$$$$
C60696-P128


 25 27  0  0  0  0  0  0  0  0999 V2000
    9.6828   10.4279   23.6650 C   0  0  0  0  0  0  0  0  0  0  0  0
   10.4145   11.3411   22.9049 C   0  0  0  0  0  0  0  0  0  0  0  0
   10.5368   12.6524   23.3039 C   0  0  0  0  0  0  0  0  0  0  0  0
    9.8174   13.0015   24.4158 C   0  0  0  0  0  0  0  0  0  0  0  0
    8.9266   12.1168   25.0417 C   0  0  0  0  0  0  0  0  0  0  0  0
    8.8741   10.8118   24.7067 C   0  0  0  0  0  0  0  0  0  0  0  0
    8.3360   12.7113   26.1741 N   0  0  0  0  0  0  0  0  0  0  0  0
    8.6193   14.1464   25.9791 C   0  0  0  0  0  0  0  0  0  0  0  0
    9.9004   14.2755   25.1650 C   0  0  0  0  0  0  0  0  0  0  0  0
    9.8292    8.7190   23.4275 S   0  0  0  0  0  0  0  0  0  0  0  0
    8.7720    8.1452   24.2126 O   0  0  0  0  0  0  0  0  0  0  0  0
   11.2155    8.3519   23.5034 O   0  0  0  0  0  0  0  0  0  0  0  0
    9.4553    8.6227   21.8520 N   0  0  0  0  0  0  0  0  0  0  0  0
    9.1171    9.5400   21.5613 H   0  0  0  0  0  0  0  0  0  0  0  0
    9.0854    6.8520   20.2735 C   0  0  0  0  0  0  0  0  0  0  0  0
    8.4370    7.6283   21.4532 C   0  0  0  0  0  0  0  0  0  0  0  0
    6.7814   12.2436   26.6772 S   0  0  0  0  0  0  0  0  0  0  0  0
    5.8048   13.2167   26.2523 O   0  0  0  0  0  0  0  0  0  0  0  0
    6.5892   10.8155   26.5556 O   0  0  0  0  0  0  0  0  0  0  0  0
    6.7265   12.4546   28.3842 C   0  0  0  0  0  0  0  0  0  0  0  0
    6.8318   13.6606   29.0808 C   0  0  0  0  0  0  0  0  0  0  0  0
    6.7183   13.4914   30.3977 N   0  0  0  0  0  0  0  0  0  0  0  0
    6.5643   12.1624   30.5435 N   0  0  0  0  0  0  0  0  0  0  0  0
    6.5505   11.4926   29.3554 C   0  0  0  0  0  0  0  0  0  0  0  0
    6.4711   11.7193   31.4177 H   0  0  0  0  0  0  0  0  0  0  0  0
 15 16  1  0  0  0
 16 13  1  0  0  0
 13 10  1  0  0  0
 10 11  2  0  0  0
 10 12  2  0  0  0
 10  1  1  0  0  0
  1  2  2  0  0  0
  2  3  1  0  0  0
  3  4  2  0  0  0
  4  5  1  0  0  0
  5  6  2  0  0  0
  5  7  1  0  0  0
  7 17  1  0  0  0
 17 18  2  0  0  0
 17 19  2  0  0  0
 17 20  1  0  0  0
 20 21  1  0  0  0
 21 22  2  0  0  0
 22 23  1  0  0  0
 23 24  1  0  0  0
  7  8  1  0  0  0
  8  9  1  0  0  0
  6  1  1  0  0  0
 24 20  2  0  0  0
  9  4  1  0  0  0
 13 14  1  0  0  0
 23 25  1  0  0  0
M  END
> <minimizedAffinity>
2.68146

> <minimizedRMSD>
0.41440

$$$$
C60700-P128


 19 21  0  0  0  0  0  0  0  0999 V2000
    7.6620   11.9202   26.4137 N   0  0  0  0  0  0  0  0  0  0  0  0
    7.7391   13.4060   26.3932 C   0  0  0  0  0  0  0  0  0  0  0  0
    8.9785   13.7862   25.5875 C   0  0  0  0  0  0  0  0  0  0  0  0
    9.1475   12.5569   24.7688 C   0  0  0  0  0  0  0  0  0  0  0  0
    9.9642   12.4161   23.6768 C   0  0  0  0  0  0  0  0  0  0  0  0
   10.0265   11.1520   23.1216 C   0  0  0  0  0  0  0  0  0  0  0  0
    9.3761   10.0549   23.6865 C   0  0  0  0  0  0  0  0  0  0  0  0
    9.6560    8.5085   23.0275 Cl  0  0  0  0  0  0  0  0  0  0  0  0
    8.5315   10.2125   24.7696 C   0  0  0  0  0  0  0  0  0  0  0  0
    8.3869   11.4874   25.2676 C   0  0  0  0  0  0  0  0  0  0  0  0
    5.1499   12.3203   26.8221 O   0  0  0  0  0  0  0  0  0  0  0  0
    6.1425   11.2686   26.7964 S   0  0  0  0  0  0  0  0  0  0  0  0
    5.9520    9.9799   26.1711 O   0  0  0  0  0  0  0  0  0  0  0  0
    6.2084   10.8600   28.4704 C   0  0  0  0  0  0  0  0  0  0  0  0
    5.9116    9.6029   29.0176 C   0  0  0  0  0  0  0  0  0  0  0  0
    6.0960    9.5820   30.3422 N   0  0  0  0  0  0  0  0  0  0  0  0
    6.4256   10.8509   30.6451 N   0  0  0  0  0  0  0  0  0  0  0  0
    6.5388   11.6567   29.5467 C   0  0  0  0  0  0  0  0  0  0  0  0
    6.5708   11.1675   31.5659 H   0  0  0  0  0  0  0  0  0  0  0  0
 11 12  2  0  0  0
 12 13  2  0  0  0
 12 14  1  0  0  0
 14 15  1  0  0  0
 15 16  2  0  0  0
 16 17  1  0  0  0
 17 18  1  0  0  0
 12  1  1  0  0  0
  1  2  1  0  0  0
  2  3  1  0  0  0
  3  4  1  0  0  0
  4  5  2  0  0  0
  5  6  1  0  0  0
  6  7  2  0  0  0
  7  8  1  0  0  0
  7  9  1  0  0  0
  9 10  2  0  0  0
 18 14  2  0  0  0
 10  1  1  0  0  0
 10  4  1  0  0  0
 17 19  1  0  0  0
M  END
> <minimizedAffinity>
-5.49845

> <minimizedRMSD>
0.58438

$$$$
C24948-P137


 16 17  0  0  0  0  0  0  0  0999 V2000
   21.2069   13.9012    2.4487 N   0  0  0  0  0  0  0  0  0  0  0  0
   21.0182   12.9081    2.5847 H   0  0  0  0  0  0  0  0  0  0  0  0
   20.0155   14.5240    1.8822 C   0  0  0  0  0  0  0  0  0  0  0  0
   16.7207   11.3470    1.0200 C   0  0  0  0  0  0  0  0  0  0  0  0
   16.7573   12.8693    0.9907 C   0  0  0  0  0  0  0  0  0  0  0  0
   18.1118   13.4293    0.5799 C   0  0  0  0  0  0  0  0  0  0  0  0
   18.8368   13.5487    1.9062 C   0  0  0  0  0  0  0  0  0  0  0  0
   17.7024   13.9519    2.8316 C   0  0  0  0  0  0  0  0  0  0  0  0
   16.5017   13.3546    2.3213 O   0  0  0  0  0  0  0  0  0  0  0  0
   22.4021   14.0361    1.5992 C   0  0  0  0  0  0  0  0  0  0  0  0
   23.6665   14.2130    2.3942 C   0  0  0  0  0  0  0  0  0  0  0  0
   24.2843   15.3499    2.8852 C   0  0  0  0  0  0  0  0  0  0  0  0
   25.4065   14.9118    3.5317 N   0  0  0  0  0  0  0  0  0  0  0  0
   25.4382   13.5535    3.4234 C   0  0  0  0  0  0  0  0  0  0  0  0
   24.4100   13.1041    2.7445 N   0  0  0  0  0  0  0  0  0  0  0  0
   26.0705   15.4747    3.9916 H   0  0  0  0  0  0  0  0  0  0  0  0
  5  4  1  0  0  0
  5  6  1  0  0  0
  6  7  1  0  0  0
  7  3  1  0  0  0
  3  1  1  0  0  0
  1 10  1  0  0  0
 10 11  1  0  0  0
 11 12  2  0  0  0
 12 13  1  0  0  0
 13 14  1  0  0  0
 14 15  2  0  0  0
  7  8  1  0  0  0
  8  9  1  0  0  0
  9  5  1  0  0  0
 15 11  1  0  0  0
  1  2  1  0  0  0
 13 16  1  0  0  0
M  END
> <minimizedAffinity>
-3.63655

> <minimizedRMSD>
2.22980

$$$$
C54664-P384


 23 26  0  0  0  0  0  0  0  0999 V2000
   23.8920   24.4716   14.9563 N   0  0  0  0  0  0  0  0  0  0  0  0
   25.0982   25.1012   15.5333 C   0  0  0  0  0  0  0  0  0  0  0  0
   25.3153   24.7325   17.0136 C   0  0  0  0  0  0  0  0  0  0  0  0
   24.6688   23.3675   17.2899 C   0  0  0  0  0  0  0  0  0  0  0  0
   23.1468   23.5449   17.1163 C   0  0  0  0  0  0  0  0  0  0  0  0
   22.8135   24.4935   15.9500 C   0  0  0  0  0  0  0  0  0  0  0  0
   25.0964   22.7492   18.5380 N   0  0  0  0  0  0  0  0  0  0  0  0
   24.1966   22.3287   19.4615 N   0  0  0  0  0  0  0  0  0  0  0  0
   24.9541   21.7374   20.3893 C   0  0  0  0  0  0  0  0  0  0  0  0
   26.3319   21.7864   20.0939 C   0  0  0  0  0  0  0  0  0  0  0  0
   27.5144   21.3317   20.7034 C   0  0  0  0  0  0  0  0  0  0  0  0
   28.7373   21.5702   20.0658 C   0  0  0  0  0  0  0  0  0  0  0  0
   28.7907   22.2377   18.8456 C   0  0  0  0  0  0  0  0  0  0  0  0
   27.6238   22.6821   18.2203 C   0  0  0  0  0  0  0  0  0  0  0  0
   26.4032   22.4536   18.8754 C   0  0  0  0  0  0  0  0  0  0  0  0
   25.6456   24.0413   10.9245 O   0  0  0  0  0  0  0  0  0  0  0  0
   24.7681   24.2069   11.7569 C   0  0  0  0  0  0  0  0  0  0  0  0
   24.7313   25.3369   12.7425 C   0  0  0  0  0  0  0  0  0  0  0  0
   23.5175   25.0355   13.6345 C   0  0  0  0  0  0  0  0  0  0  0  0
   22.7728   24.0190   12.7607 C   0  0  0  0  0  0  0  0  0  0  0  0
   21.5734   23.7836   12.8064 O   0  0  0  0  0  0  0  0  0  0  0  0
   23.6484   23.4606   11.8863 N   0  0  0  0  0  0  0  0  0  0  0  0
   23.4877   22.6165   11.4059 H   0  0  0  0  0  0  0  0  0  0  0  0
 16 17  2  0  0  0
 17 18  1  0  0  0
 18 19  1  0  0  0
 19  1  1  0  0  0
  1  2  1  0  0  0
  2  3  1  0  0  0
  3  4  1  0  0  0
  4  7  1  0  0  0
  7  8  1  0  0  0
  8  9  2  0  0  0
  9 10  1  0  0  0
 10 11  2  0  0  0
 11 12  1  0  0  0
 12 13  2  0  0  0
 13 14  1  0  0  0
 14 15  2  0  0  0
  4  5  1  0  0  0
  5  6  1  0  0  0
 19 20  1  0  0  0
 20 21  2  0  0  0
 20 22  1  0  0  0
 22 17  1  0  0  0
  6  1  1  0  0  0
 15  7  1  0  0  0
 15 10  1  0  0  0
 22 23  1  0  0  0
M  END
> <minimizedAffinity>
-4.75178

> <minimizedRMSD>
1.09799

$$$$
C50895-P339


 12 12  0  0  0  0  0  0  0  0999 V2000
    7.7055   11.8318   25.1792 C   0  0  0  0  0  0  0  0  0  0  0  0
    7.3555   10.4899   25.8204 C   0  0  0  0  0  0  0  0  0  0  0  0
    6.1545   10.5548   26.7735 C   0  0  0  0  0  0  0  0  0  0  0  0
    5.4598   11.8358   26.8339 N   0  0  0  0  0  0  0  0  0  0  0  0
    4.4202   11.7986   27.8630 C   0  0  0  0  0  0  0  0  0  0  0  0
    6.3178   13.0287   26.9428 C   0  0  0  0  0  0  0  0  0  0  0  0
    5.5816   14.2222   26.3148 C   0  0  0  0  0  0  0  0  0  0  0  0
    7.7163   12.8835   26.2841 C   0  0  0  0  0  0  0  0  0  0  0  0
   10.3074   11.6613   25.0332 C   0  0  0  0  0  0  0  0  0  0  0  0
    8.9752   11.7319   24.3073 C   0  0  0  0  0  0  0  0  0  0  0  0
    8.9604   12.8684   23.3063 C   0  0  0  0  0  0  0  0  0  0  0  0
    7.9178   13.2572   22.7828 O   0  0  0  0  0  0  0  0  0  0  0  0
 10  9  1  0  0  0
 10 11  1  0  0  0
 11 12  2  0  0  0
 10  1  1  0  0  0
  1  2  1  0  0  0
  2  3  1  0  0  0
  3  4  1  0  0  0
  4  5  1  0  0  0
  4  6  1  0  0  0
  6  7  1  0  0  0
  6  8  1  0  0  0
  8  1  1  0  0  0
M  END
> <minimizedAffinity>
-3.48431

> <minimizedRMSD>
0.60928

$$$$
C45615-P339


 19 21  0  0  0  0  0  0  0  0999 V2000
    8.1730   14.0360   25.0686 C   0  0  0  0  0  0  0  0  0  0  0  0
    8.8155   14.6438   24.0981 N   0  0  0  0  0  0  0  0  0  0  0  0
    9.4556   13.7333   23.2858 C   0  0  0  0  0  0  0  0  0  0  0  0
    9.2280   12.4113   23.6138 C   0  0  0  0  0  0  0  0  0  0  0  0
    8.2063   12.3145   24.9844 S   0  0  0  0  0  0  0  0  0  0  0  0
    9.5288   18.3554   27.5036 C   0  0  0  0  0  0  0  0  0  0  0  0
    8.6733   17.2010   27.2722 N   0  0  0  0  0  0  0  0  0  0  0  0
    9.4005   15.9435   27.4378 C   0  0  0  0  0  0  0  0  0  0  0  0
    8.3998   14.7900   27.4567 C   0  0  0  0  0  0  0  0  0  0  0  0
    7.4925   14.7419   26.2152 C   0  0  0  0  0  0  0  0  0  0  0  0
    6.9889   16.1437   25.8304 C   0  0  0  0  0  0  0  0  0  0  0  0
    8.0502   17.2425   25.9401 C   0  0  0  0  0  0  0  0  0  0  0  0
   10.3732   14.2595   22.2263 C   0  0  0  0  0  0  0  0  0  0  0  0
   11.4896   15.1167   22.8521 C   0  0  0  0  0  0  0  0  0  0  0  0
   12.1032   16.0895   21.8481 C   0  0  0  0  0  0  0  0  0  0  0  0
   11.9210   15.6050   20.4169 C   0  0  0  0  0  0  0  0  0  0  0  0
   10.5086   15.5381   20.0634 N   0  0  0  0  0  0  0  0  0  0  0  0
    9.6350   15.0482   21.1326 C   0  0  0  0  0  0  0  0  0  0  0  0
   10.4104   14.9152   19.2617 H   0  0  0  0  0  0  0  0  0  0  0  0
  6  7  1  0  0  0
  7  8  1  0  0  0
  8  9  1  0  0  0
  9 10  1  0  0  0
 10  1  1  0  0  0
  1  2  2  0  0  0
  2  3  1  0  0  0
 13  3  1  0  0  0
 13 14  1  0  0  0
 14 15  1  0  0  0
 15 16  1  0  0  0
 16 17  1  0  0  0
 17 18  1  0  0  0
  3  4  2  0  0  0
  4  5  1  0  0  0
 10 11  1  0  0  0
 11 12  1  0  0  0
 12  7  1  0  0  0
  5  1  1  0  0  0
 18 13  1  0  0  0
 17 19  1  0  0  0
M  END
> <minimizedAffinity>
-5.11297

> <minimizedRMSD>
0.64360

$$$$
C55223-P339


 17 18  0  0  0  0  0  0  0  0999 V2000
    7.7662   12.7597   25.4943 C   0  0  0  0  0  0  0  0  0  0  0  0
    7.3909   11.4308   25.7372 C   0  0  0  0  0  0  0  0  0  0  0  0
    6.3681   11.1542   26.6368 C   0  0  0  0  0  0  0  0  0  0  0  0
    6.0167    9.8853   26.8654 F   0  0  0  0  0  0  0  0  0  0  0  0
    5.6998   12.1663   27.3040 C   0  0  0  0  0  0  0  0  0  0  0  0
    6.0690   13.4886   27.0772 C   0  0  0  0  0  0  0  0  0  0  0  0
    7.1069   13.8081   26.1830 C   0  0  0  0  0  0  0  0  0  0  0  0
    7.5521   15.1405   26.0115 N   0  0  0  0  0  0  0  0  0  0  0  0
    6.6378   15.9918   25.2272 C   0  0  0  0  0  0  0  0  0  0  0  0
    7.3123   17.3324   24.9429 C   0  0  0  0  0  0  0  0  0  0  0  0
    7.7497   18.0094   26.2399 C   0  0  0  0  0  0  0  0  0  0  0  0
    8.6379   17.0777   27.0588 C   0  0  0  0  0  0  0  0  0  0  0  0
    7.9505   15.7351   27.3009 C   0  0  0  0  0  0  0  0  0  0  0  0
    8.8802   13.0452   24.5124 C   0  0  0  0  0  0  0  0  0  0  0  0
    8.3741   13.3293   23.1000 C   0  0  0  0  0  0  0  0  0  0  0  0
   10.5820   14.1610   22.5623 O   0  0  0  0  0  0  0  0  0  0  0  0
    9.3807   14.1224   22.3074 C   0  0  0  0  0  0  0  0  0  0  0  0
 16 17  2  0  0  0
 17 15  1  0  0  0
 15 14  1  0  0  0
 14  1  1  0  0  0
  1  2  2  0  0  0
  2  3  1  0  0  0
  3  4  1  0  0  0
  3  5  2  0  0  0
  5  6  1  0  0  0
  6  7  2  0  0  0
  7  8  1  0  0  0
  8  9  1  0  0  0
  9 10  1  0  0  0
 10 11  1  0  0  0
 11 12  1  0  0  0
 12 13  1  0  0  0
  7  1  1  0  0  0
 13  8  1  0  0  0
M  END
> <minimizedAffinity>
-3.37172

> <minimizedRMSD>
0.50084

$$$$
C51875-P363


 13 13  0  0  0  0  0  0  0  0999 V2000
    8.7212   12.2643   24.2659 C   0  0  0  0  0  0  0  0  0  0  0  0
    7.4079   12.4476   23.9919 N   0  0  0  0  0  0  0  0  0  0  0  0
    6.7794   13.4356   24.6546 C   0  0  0  0  0  0  0  0  0  0  0  0
    7.3864   14.2487   25.6063 C   0  0  0  0  0  0  0  0  0  0  0  0
    8.7307   13.9753   25.9100 C   0  0  0  0  0  0  0  0  0  0  0  0
    9.4204   12.9924   25.2137 C   0  0  0  0  0  0  0  0  0  0  0  0
   11.0873   12.7387   25.5401 Cl  0  0  0  0  0  0  0  0  0  0  0  0
    9.4687   10.0689   24.0535 C   0  0  0  0  0  0  0  0  0  0  0  0
    9.4296   11.3693   23.5098 O   0  0  0  0  0  0  0  0  0  0  0  0
    6.6405   15.3513   26.3263 C   0  0  0  0  0  0  0  0  0  0  0  0
    5.1145   15.2614   26.2782 C   0  0  0  0  0  0  0  0  0  0  0  0
    7.0232   16.7186   25.8064 C   0  0  0  0  0  0  0  0  0  0  0  0
    7.0740   17.7115   26.5272 O   0  0  0  0  0  0  0  0  0  0  0  0
  8  9  1  0  0  0
  9  1  1  0  0  0
  1  2  2  0  0  0
  2  3  1  0  0  0
  3  4  2  0  0  0
  4 10  1  0  0  0
 10 11  1  0  0  0
 10 12  1  0  0  0
 12 13  2  0  0  0
  4  5  1  0  0  0
  5  6  2  0  0  0
  6  7  1  0  0  0
  6  1  1  0  0  0
M  END
> <minimizedAffinity>
-3.56064

> <minimizedRMSD>
1.66732

$$$$
C75223-P136


 15 16  0  0  0  0  0  0  0  0999 V2000
   23.2597   12.8512    1.5512 N   0  0  0  0  0  0  0  0  0  0  0  0
   22.5760   12.0962    1.6051 H   0  0  0  0  0  0  0  0  0  0  0  0
   24.5847   12.2816    1.2702 C   0  0  0  0  0  0  0  0  0  0  0  0
   25.5828    9.3687   -2.5762 C   0  0  0  0  0  0  0  0  0  0  0  0
   25.3881   10.7863   -2.0738 C   0  0  0  0  0  0  0  0  0  0  0  0
   25.6980   10.9517   -0.5943 C   0  0  0  0  0  0  0  0  0  0  0  0
   24.8125   12.1282   -0.2310 C   0  0  0  0  0  0  0  0  0  0  0  0
   23.5663   11.8046   -1.0334 C   0  0  0  0  0  0  0  0  0  0  0  0
   24.0165   11.1815   -2.2499 O   0  0  0  0  0  0  0  0  0  0  0  0
   23.2658   13.5887    2.8261 C   0  0  0  0  0  0  0  0  0  0  0  0
   23.7429   14.9873    2.6089 C   0  0  0  0  0  0  0  0  0  0  0  0
   23.4267   15.8622    1.5921 C   0  0  0  0  0  0  0  0  0  0  0  0
   24.1232   17.0151    1.7846 O   0  0  0  0  0  0  0  0  0  0  0  0
   24.8384   16.7746    2.9177 C   0  0  0  0  0  0  0  0  0  0  0  0
   24.6640   15.5840    3.4442 N   0  0  0  0  0  0  0  0  0  0  0  0
  5  4  1  0  0  0
  5  6  1  0  0  0
  6  7  1  0  0  0
  7  3  1  0  0  0
  3  1  1  0  0  0
  1 10  1  0  0  0
 10 11  1  0  0  0
 11 12  2  0  0  0
 12 13  1  0  0  0
 13 14  1  0  0  0
 14 15  2  0  0  0
  7  8  1  0  0  0
  8  9  1  0  0  0
  9  5  1  0  0  0
 15 11  1  0  0  0
  1  2  1  0  0  0
M  END
> <minimizedAffinity>
-2.67921

> <minimizedRMSD>
2.67423

$$$$
C55392-P183


 21 21  0  0  0  0  0  0  0  0999 V2000
    9.0256   12.2234   24.4687 C   0  0  0  0  0  0  0  0  0  0  0  0
    8.7584   10.9330   24.2388 N   0  0  0  0  0  0  0  0  0  0  0  0
    7.7437   10.6415   25.0560 N   0  0  0  0  0  0  0  0  0  0  0  0
    7.2914   11.6822   25.8234 C   0  0  0  0  0  0  0  0  0  0  0  0
    8.1045   12.7445   25.4167 C   0  0  0  0  0  0  0  0  0  0  0  0
    7.3481    9.7412   25.1038 H   0  0  0  0  0  0  0  0  0  0  0  0
    8.1228   14.3787   25.9298 S   0  0  0  0  0  0  0  0  0  0  0  0
    7.4225   14.6373   27.4255 N   0  0  0  0  0  0  0  0  0  0  0  0
    7.3176   15.0768   24.9594 O   0  0  0  0  0  0  0  0  0  0  0  0
    9.5287   14.6751   26.1084 O   0  0  0  0  0  0  0  0  0  0  0  0
    6.4223   14.4449   27.3705 H   0  0  0  0  0  0  0  0  0  0  0  0
    7.5672   15.6074   27.7056 H   0  0  0  0  0  0  0  0  0  0  0  0
    6.1701   11.6721   26.7748 C   0  0  0  0  0  0  0  0  0  0  0  0
    5.5019   12.6238   26.8238 O   0  0  0  0  0  0  0  0  0  0  0  0
    6.1054   10.3629   27.5884 N   0  0  0  0  0  0  0  0  0  0  0  0
    6.8387    9.7305   27.4108 H   0  0  0  0  0  0  0  0  0  0  0  0
    5.1440    9.9141   28.5682 C   0  0  0  0  0  0  0  0  0  0  0  0
    5.7455    9.6202   29.9187 C   0  0  0  0  0  0  0  0  0  0  0  0
   10.2797   12.8237   23.8809 C   0  0  0  0  0  0  0  0  0  0  0  0
   11.4561   14.5030   22.4259 C   0  0  0  0  0  0  0  0  0  0  0  0
   10.1340   13.8030   22.7263 C   0  0  0  0  0  0  0  0  0  0  0  0
 20 21  1  0  0  0
 21 19  1  0  0  0
 19  1  1  0  0  0
  1  2  2  0  0  0
  2  3  1  0  0  0
  3  4  1  0  0  0
  4 13  1  0  0  0
 13 14  2  0  0  0
 13 15  1  0  0  0
 15 17  1  0  0  0
 17 18  1  0  0  0
  4  5  2  0  0  0
  5  7  1  0  0  0
  7  8  1  0  0  0
  7  9  2  0  0  0
  7 10  2  0  0  0
  5  1  1  0  0  0
  3  6  1  0  0  0
 15 16  1  0  0  0
  8 11  1  0  0  0
  8 12  1  0  0  0
M  END
> <minimizedAffinity>
-4.72281

> <minimizedRMSD>
0.68092

$$$$
C48157-P405


 12 12  0  0  0  0  0  0  0  0999 V2000
    7.9348   12.6076   24.3322 C   0  0  0  0  0  0  0  0  0  0  0  0
    7.6089   11.3747   24.9319 C   0  0  0  0  0  0  0  0  0  0  0  0
    6.3111   11.2061   26.2825 Br  0  0  0  0  0  0  0  0  0  0  0  0
    8.3918   10.3661   24.5462 N   0  0  0  0  0  0  0  0  0  0  0  0
    9.3116   10.9768   23.7668 N   0  0  0  0  0  0  0  0  0  0  0  0
    9.1334   12.3275   23.7165 C   0  0  0  0  0  0  0  0  0  0  0  0
   10.3551   13.5976   23.0374 Br  0  0  0  0  0  0  0  0  0  0  0  0
   10.0289   10.5004   23.2895 H   0  0  0  0  0  0  0  0  0  0  0  0
    7.8472   14.9481   25.2733 C   0  0  0  0  0  0  0  0  0  0  0  0
    7.1788   13.8942   24.4095 C   0  0  0  0  0  0  0  0  0  0  0  0
    6.8537   14.3990   23.0152 C   0  0  0  0  0  0  0  0  0  0  0  0
    6.4428   13.6569   22.1224 O   0  0  0  0  0  0  0  0  0  0  0  0
 10  9  1  0  0  0
 10 11  1  0  0  0
 11 12  2  0  0  0
 10  1  1  0  0  0
  1  2  1  0  0  0
  2  3  1  0  0  0
  2  4  2  0  0  0
  4  5  1  0  0  0
  5  6  1  0  0  0
  6  7  1  0  0  0
  6  1  2  0  0  0
  5  8  1  0  0  0
M  END
> <minimizedAffinity>
-3.55798

> <minimizedRMSD>
1.14382

$$$$
C9559-P391


  9  9  0  0  0  0  0  0  0  0999 V2000
   10.1698   15.2950   21.7129 N   0  0  0  0  0  0  0  0  0  0  0  0
   11.1683   15.9652   22.3608 C   0  0  0  0  0  0  0  0  0  0  0  0
   12.0680   16.3259   21.3848 C   0  0  0  0  0  0  0  0  0  0  0  0
   11.4974   15.8705   20.1832 C   0  0  0  0  0  0  0  0  0  0  0  0
   10.3298   15.2542   20.3842 N   0  0  0  0  0  0  0  0  0  0  0  0
    9.0609   14.5774   22.3099 C   0  0  0  0  0  0  0  0  0  0  0  0
    9.4940   13.2121   22.8094 C   0  0  0  0  0  0  0  0  0  0  0  0
    8.3542   11.4654   23.9702 O   0  0  0  0  0  0  0  0  0  0  0  0
    8.4827   12.6688   23.7683 C   0  0  0  0  0  0  0  0  0  0  0  0
  8  9  2  0  0  0
  9  7  1  0  0  0
  7  6  1  0  0  0
  6  1  1  0  0  0
  1  2  1  0  0  0
  2  3  2  0  0  0
  3  4  1  0  0  0
  4  5  2  0  0  0
  5  1  1  0  0  0
M  END
> <minimizedAffinity>
-3.61624

> <minimizedRMSD>
1.64778

$$$$
C65388-P220


 21 22  0  0  0  0  0  0  0  0999 V2000
   10.6627   14.0723   25.2340 O   0  0  0  0  0  0  0  0  0  0  0  0
   10.4823   13.4693   24.2547 C   0  0  0  0  0  0  0  0  0  0  0  0
   11.1921   13.5414   22.8983 N   0  0  0  0  0  0  0  0  0  0  0  0
   10.9012   12.8651   22.2447 H   0  0  0  0  0  0  0  0  0  0  0  0
    9.4749   12.3734   24.3074 C   0  0  0  0  0  0  0  0  0  0  0  0
    9.6412   11.2064   23.5797 C   0  0  0  0  0  0  0  0  0  0  0  0
    8.7562   10.1865   23.7935 C   0  0  0  0  0  0  0  0  0  0  0  0
    7.7695   10.2259   24.7059 N   0  0  0  0  0  0  0  0  0  0  0  0
    7.6104   11.3588   25.4386 C   0  0  0  0  0  0  0  0  0  0  0  0
    8.4355   12.4614   25.2358 C   0  0  0  0  0  0  0  0  0  0  0  0
    6.5616   11.4039   26.5420 C   0  0  0  0  0  0  0  0  0  0  0  0
    6.6524   12.5447   27.2934 F   0  0  0  0  0  0  0  0  0  0  0  0
    5.2775   11.3774   26.1140 F   0  0  0  0  0  0  0  0  0  0  0  0
    6.6751   10.4029   27.4611 F   0  0  0  0  0  0  0  0  0  0  0  0
   12.2080   14.4307   22.4271 C   0  0  0  0  0  0  0  0  0  0  0  0
   12.2809   14.5805   20.9239 C   0  0  0  0  0  0  0  0  0  0  0  0
   11.1452   15.2518   20.3557 N   0  0  0  0  0  0  0  0  0  0  0  0
   10.7608   15.2075   19.0609 C   0  0  0  0  0  0  0  0  0  0  0  0
    9.5703   15.8817   19.0270 C   0  0  0  0  0  0  0  0  0  0  0  0
    9.3997   16.4207   20.3073 C   0  0  0  0  0  0  0  0  0  0  0  0
   10.3529   15.9995   21.1264 N   0  0  0  0  0  0  0  0  0  0  0  0
  1  2  2  0  0  0
  2  3  1  0  0  0
  3 15  1  0  0  0
 15 16  1  0  0  0
 16 17  1  0  0  0
 17 18  1  0  0  0
 18 19  2  0  0  0
 19 20  1  0  0  0
 20 21  2  0  0  0
  2  5  1  0  0  0
  5  6  2  0  0  0
  6  7  1  0  0  0
  7  8  2  0  0  0
  8  9  1  0  0  0
  9 11  1  0  0  0
 11 12  1  0  0  0
 11 13  1  0  0  0
 11 14  1  0  0  0
  9 10  2  0  0  0
 21 17  1  0  0  0
 10  5  1  0  0  0
  3  4  1  0  0  0
M  END
> <minimizedAffinity>
-6.36398

> <minimizedRMSD>
0.27071

$$$$
C50814-P220


 21 22  0  0  0  0  0  0  0  0999 V2000
   10.2219   13.6245   24.4666 C   0  0  0  0  0  0  0  0  0  0  0  0
   10.2741   14.2372   25.4560 O   0  0  0  0  0  0  0  0  0  0  0  0
   10.9931   13.7957   23.1440 N   0  0  0  0  0  0  0  0  0  0  0  0
   10.7111   13.1898   22.4212 H   0  0  0  0  0  0  0  0  0  0  0  0
    9.6894    9.2722   22.5979 N   0  0  0  0  0  0  0  0  0  0  0  0
    9.1747   10.2119   23.4758 C   0  0  0  0  0  0  0  0  0  0  0  0
    9.8663   11.3764   23.6094 C   0  0  0  0  0  0  0  0  0  0  0  0
    9.3771   12.4064   24.3964 C   0  0  0  0  0  0  0  0  0  0  0  0
    8.2304   12.2046   25.1400 C   0  0  0  0  0  0  0  0  0  0  0  0
    7.6197   10.9683   25.0048 C   0  0  0  0  0  0  0  0  0  0  0  0
    8.0681    9.9779   24.1875 N   0  0  0  0  0  0  0  0  0  0  0  0
   10.5065    9.4719   22.0864 H   0  0  0  0  0  0  0  0  0  0  0  0
    9.2381    8.4044   22.4855 H   0  0  0  0  0  0  0  0  0  0  0  0
   12.0506   14.6903   22.7956 C   0  0  0  0  0  0  0  0  0  0  0  0
   12.2776   14.7281   21.2926 C   0  0  0  0  0  0  0  0  0  0  0  0
   11.1429   15.2989   20.5369 C   0  0  0  0  0  0  0  0  0  0  0  0
   10.8262   15.1120   19.1798 C   0  0  0  0  0  0  0  0  0  0  0  0
    9.7769   15.8461   18.8132 N   0  0  0  0  0  0  0  0  0  0  0  0
    9.5500   16.6322   19.8691 N   0  0  0  0  0  0  0  0  0  0  0  0
   10.1830   16.1799   20.9729 C   0  0  0  0  0  0  0  0  0  0  0  0
    8.9902   17.4417   19.8455 H   0  0  0  0  0  0  0  0  0  0  0  0
  5  6  1  0  0  0
  6  7  2  0  0  0
  7  8  1  0  0  0
  8  1  1  0  0  0
  1  2  2  0  0  0
  1  3  1  0  0  0
  3 14  1  0  0  0
 14 15  1  0  0  0
 15 16  1  0  0  0
 16 17  1  0  0  0
 17 18  2  0  0  0
 18 19  1  0  0  0
 19 20  1  0  0  0
  8  9  2  0  0  0
  9 10  1  0  0  0
 10 11  2  0  0  0
 11  6  1  0  0  0
 20 16  2  0  0  0
  5 12  1  0  0  0
  5 13  1  0  0  0
  3  4  1  0  0  0
 19 21  1  0  0  0
M  END
> <minimizedAffinity>
-6.57872

> <minimizedRMSD>
0.26838

$$$$
C16362-P220


 22 23  0  0  0  0  0  0  0  0999 V2000
   10.6505   14.0821   25.2146 O   0  0  0  0  0  0  0  0  0  0  0  0
   10.4746   13.4484   24.2549 C   0  0  0  0  0  0  0  0  0  0  0  0
   11.1595   13.5062   22.8889 N   0  0  0  0  0  0  0  0  0  0  0  0
   10.7740   12.9074   22.2092 H   0  0  0  0  0  0  0  0  0  0  0  0
    9.4730   12.3513   24.3189 C   0  0  0  0  0  0  0  0  0  0  0  0
    9.6334   11.1894   23.5800 C   0  0  0  0  0  0  0  0  0  0  0  0
    8.7463   10.1706   23.7916 C   0  0  0  0  0  0  0  0  0  0  0  0
    7.7601   10.2132   24.7065 N   0  0  0  0  0  0  0  0  0  0  0  0
    7.6080   11.3447   25.4448 C   0  0  0  0  0  0  0  0  0  0  0  0
    8.4394   12.4420   25.2496 C   0  0  0  0  0  0  0  0  0  0  0  0
    6.5576   11.4019   26.5457 C   0  0  0  0  0  0  0  0  0  0  0  0
    6.6545   12.5464   27.2915 F   0  0  0  0  0  0  0  0  0  0  0  0
    5.2756   11.3843   26.1149 F   0  0  0  0  0  0  0  0  0  0  0  0
    6.6603   10.4056   27.4702 F   0  0  0  0  0  0  0  0  0  0  0  0
   12.2674   14.2873   22.4380 C   0  0  0  0  0  0  0  0  0  0  0  0
   12.2615   14.5709   20.9511 C   0  0  0  0  0  0  0  0  0  0  0  0
   11.0445   15.2494   20.4764 C   0  0  0  0  0  0  0  0  0  0  0  0
   10.6268   15.3892   19.1498 C   0  0  0  0  0  0  0  0  0  0  0  0
    9.3957   15.9688   19.2622 C   0  0  0  0  0  0  0  0  0  0  0  0
    9.2404   16.3289   20.5619 N   0  0  0  0  0  0  0  0  0  0  0  0
   10.1895   15.8094   21.3332 N   0  0  0  0  0  0  0  0  0  0  0  0
    8.5133   16.9044   20.8926 H   0  0  0  0  0  0  0  0  0  0  0  0
  1  2  2  0  0  0
  2  3  1  0  0  0
  3 15  1  0  0  0
 15 16  1  0  0  0
 16 17  1  0  0  0
 17 18  1  0  0  0
 18 19  2  0  0  0
 19 20  1  0  0  0
 20 21  1  0  0  0
  2  5  1  0  0  0
  5  6  2  0  0  0
  6  7  1  0  0  0
  7  8  2  0  0  0
  8  9  1  0  0  0
  9 11  1  0  0  0
 11 12  1  0  0  0
 11 13  1  0  0  0
 11 14  1  0  0  0
  9 10  2  0  0  0
 21 17  2  0  0  0
 10  5  1  0  0  0
  3  4  1  0  0  0
 20 22  1  0  0  0
M  END
> <minimizedAffinity>
-6.40269

> <minimizedRMSD>
0.33959

$$$$
C46023-P225


 20 22  0  0  0  0  0  0  0  0999 V2000
    8.9555   13.1279   24.5627 C   0  0  0  0  0  0  0  0  0  0  0  0
    9.3869   13.9316   25.3869 O   0  0  0  0  0  0  0  0  0  0  0  0
    7.8721   12.2169   24.9803 C   0  0  0  0  0  0  0  0  0  0  0  0
    7.9264   10.8599   24.6256 C   0  0  0  0  0  0  0  0  0  0  0  0
    7.0453    9.9581   25.2218 C   0  0  0  0  0  0  0  0  0  0  0  0
    6.1315   10.4269   26.1497 C   0  0  0  0  0  0  0  0  0  0  0  0
    6.0550   11.7837   26.4543 C   0  0  0  0  0  0  0  0  0  0  0  0
    6.9081   12.7010   25.8713 C   0  0  0  0  0  0  0  0  0  0  0  0
    5.0781   11.9936   27.5626 C   0  0  0  0  0  0  0  0  0  0  0  0
    4.4751   10.5803   27.7037 C   0  0  0  0  0  0  0  0  0  0  0  0
    5.3914    9.6448   27.0521 N   0  0  0  0  0  0  0  0  0  0  0  0
    5.4721    8.6766   27.2115 H   0  0  0  0  0  0  0  0  0  0  0  0
    9.4627   12.9565   23.1426 C   0  0  0  0  0  0  0  0  0  0  0  0
   11.5760   15.2959   19.4218 C   0  0  0  0  0  0  0  0  0  0  0  0
   11.1633   16.0573   20.6770 C   0  0  0  0  0  0  0  0  0  0  0  0
   11.8886   15.5714   21.9316 C   0  0  0  0  0  0  0  0  0  0  0  0
   11.3947   14.2071   22.3946 C   0  0  0  0  0  0  0  0  0  0  0  0
    9.9381   14.2357   22.6070 N   0  0  0  0  0  0  0  0  0  0  0  0
    9.2324   14.5810   21.3679 C   0  0  0  0  0  0  0  0  0  0  0  0
    9.6522   15.9620   20.8761 C   0  0  0  0  0  0  0  0  0  0  0  0
 14 15  1  0  0  0
 15 16  1  0  0  0
 16 17  1  0  0  0
 17 18  1  0  0  0
 18 13  1  0  0  0
 13  1  1  0  0  0
  1  2  2  0  0  0
  1  3  1  0  0  0
  3  4  2  0  0  0
  4  5  1  0  0  0
  5  6  2  0  0  0
  6  7  1  0  0  0
  7  8  2  0  0  0
  7  9  1  0  0  0
  9 10  1  0  0  0
 10 11  1  0  0  0
 18 19  1  0  0  0
 19 20  1  0  0  0
 20 15  1  0  0  0
  8  3  1  0  0  0
 11  6  1  0  0  0
 11 12  1  0  0  0
M  END
> <minimizedAffinity>
-7.28061

> <minimizedRMSD>
0.53664

$$$$
C46024-P225


 20 22  0  0  0  0  0  0  0  0999 V2000
    8.8640   13.2508   24.5956 C   0  0  0  0  0  0  0  0  0  0  0  0
    9.3252   13.9840   25.4687 O   0  0  0  0  0  0  0  0  0  0  0  0
    7.8085   12.2923   24.9931 C   0  0  0  0  0  0  0  0  0  0  0  0
    7.9059   10.9369   24.6371 C   0  0  0  0  0  0  0  0  0  0  0  0
    7.0513   10.0028   25.2281 C   0  0  0  0  0  0  0  0  0  0  0  0
    6.1185   10.4383   26.1538 C   0  0  0  0  0  0  0  0  0  0  0  0
    5.9998   11.7908   26.4625 C   0  0  0  0  0  0  0  0  0  0  0  0
    6.8246   12.7373   25.8843 C   0  0  0  0  0  0  0  0  0  0  0  0
    5.0143   11.9695   27.5686 C   0  0  0  0  0  0  0  0  0  0  0  0
    4.4644   10.5361   27.7196 C   0  0  0  0  0  0  0  0  0  0  0  0
    5.3989    9.6326   27.0498 N   0  0  0  0  0  0  0  0  0  0  0  0
    5.5015    8.6644   27.1963 H   0  0  0  0  0  0  0  0  0  0  0  0
    9.3040   13.2190   23.1403 C   0  0  0  0  0  0  0  0  0  0  0  0
   10.2240   16.1182   19.2938 C   0  0  0  0  0  0  0  0  0  0  0  0
   10.4408   16.0061   20.8027 C   0  0  0  0  0  0  0  0  0  0  0  0
   11.9372   15.9474   21.1133 C   0  0  0  0  0  0  0  0  0  0  0  0
   12.1661   15.6002   22.5728 C   0  0  0  0  0  0  0  0  0  0  0  0
   11.4610   14.3032   22.9308 C   0  0  0  0  0  0  0  0  0  0  0  0
   10.0082   14.4549   22.7473 N   0  0  0  0  0  0  0  0  0  0  0  0
    9.7069   14.7679   21.3399 C   0  0  0  0  0  0  0  0  0  0  0  0
 15 14  1  0  0  0
 15 16  1  0  0  0
 16 17  1  0  0  0
 17 18  1  0  0  0
 18 19  1  0  0  0
 19 13  1  0  0  0
 13  1  1  0  0  0
  1  2  2  0  0  0
  1  3  1  0  0  0
  3  4  2  0  0  0
  4  5  1  0  0  0
  5  6  2  0  0  0
  6  7  1  0  0  0
  7  8  2  0  0  0
  7  9  1  0  0  0
  9 10  1  0  0  0
 10 11  1  0  0  0
 19 20  1  0  0  0
 20 15  1  0  0  0
  8  3  1  0  0  0
 11  6  1  0  0  0
 11 12  1  0  0  0
M  END
> <minimizedAffinity>
-7.27878

> <minimizedRMSD>
0.33883

$$$$
C46025-P225


 20 22  0  0  0  0  0  0  0  0999 V2000
    9.1171   13.1451   24.5440 C   0  0  0  0  0  0  0  0  0  0  0  0
    9.5108   13.9618   25.3752 O   0  0  0  0  0  0  0  0  0  0  0  0
    8.0605   12.1975   24.9581 C   0  0  0  0  0  0  0  0  0  0  0  0
    8.1134   10.8541   24.5543 C   0  0  0  0  0  0  0  0  0  0  0  0
    7.2037    9.9363   25.0794 C   0  0  0  0  0  0  0  0  0  0  0  0
    6.2883   10.3662   26.0198 C   0  0  0  0  0  0  0  0  0  0  0  0
    6.2178   11.7100   26.3846 C   0  0  0  0  0  0  0  0  0  0  0  0
    7.0854   12.6459   25.8577 C   0  0  0  0  0  0  0  0  0  0  0  0
    5.1165   11.8916   27.3736 C   0  0  0  0  0  0  0  0  0  0  0  0
    4.8626   10.4216   27.7679 C   0  0  0  0  0  0  0  0  0  0  0  0
    5.2817    9.5989   26.6312 N   0  0  0  0  0  0  0  0  0  0  0  0
    4.9394    8.7168   26.3595 H   0  0  0  0  0  0  0  0  0  0  0  0
    9.6349   13.0114   23.1171 C   0  0  0  0  0  0  0  0  0  0  0  0
    7.8128   14.7504   21.5246 C   0  0  0  0  0  0  0  0  0  0  0  0
    9.3228   14.6950   21.3427 C   0  0  0  0  0  0  0  0  0  0  0  0
    9.7554   16.0874   20.8391 C   0  0  0  0  0  0  0  0  0  0  0  0
   11.2600   16.1967   20.6906 C   0  0  0  0  0  0  0  0  0  0  0  0
   11.9304   15.7399   21.9729 C   0  0  0  0  0  0  0  0  0  0  0  0
   11.4869   14.3379   22.3418 C   0  0  0  0  0  0  0  0  0  0  0  0
   10.0339   14.3227   22.5823 N   0  0  0  0  0  0  0  0  0  0  0  0
 15 14  1  0  0  0
 15 16  1  0  0  0
 16 17  1  0  0  0
 17 18  1  0  0  0
 18 19  1  0  0  0
 19 20  1  0  0  0
 20 13  1  0  0  0
 13  1  1  0  0  0
  1  2  2  0  0  0
  1  3  1  0  0  0
  3  4  2  0  0  0
  4  5  1  0  0  0
  5  6  2  0  0  0
  6  7  1  0  0  0
  7  8  2  0  0  0
  7  9  1  0  0  0
  9 10  1  0  0  0
 10 11  1  0  0  0
 20 15  1  0  0  0
  8  3  1  0  0  0
 11  6  1  0  0  0
 11 12  1  0  0  0
M  END
> <minimizedAffinity>
-7.06853

> <minimizedRMSD>
0.71285

$$$$
C46033-P225


 22 24  0  0  0  0  0  0  0  0999 V2000
    9.0115   14.0600   23.3742 N   0  0  0  0  0  0  0  0  0  0  0  0
    8.7507   13.8534   24.8714 C   0  0  0  0  0  0  0  0  0  0  0  0
    9.2035   14.3938   25.7984 O   0  0  0  0  0  0  0  0  0  0  0  0
    8.5551   13.4177   22.7840 H   0  0  0  0  0  0  0  0  0  0  0  0
    7.8336   12.7034   25.1345 C   0  0  0  0  0  0  0  0  0  0  0  0
    8.0799   11.4097   24.6259 C   0  0  0  0  0  0  0  0  0  0  0  0
    7.3068   10.3203   25.0565 C   0  0  0  0  0  0  0  0  0  0  0  0
    6.3416   10.5359   26.0230 C   0  0  0  0  0  0  0  0  0  0  0  0
    6.0931   11.8204   26.5075 C   0  0  0  0  0  0  0  0  0  0  0  0
    6.8139   12.9132   26.0710 C   0  0  0  0  0  0  0  0  0  0  0  0
    4.9825   11.7720   27.5025 C   0  0  0  0  0  0  0  0  0  0  0  0
    4.9089   10.2537   27.7499 C   0  0  0  0  0  0  0  0  0  0  0  0
    5.4319    9.6047   26.5457 N   0  0  0  0  0  0  0  0  0  0  0  0
    5.1986    8.7186   26.1857 H   0  0  0  0  0  0  0  0  0  0  0  0
   10.3765   16.0509   18.9816 C   0  0  0  0  0  0  0  0  0  0  0  0
   10.5481   16.0614   20.4956 C   0  0  0  0  0  0  0  0  0  0  0  0
    9.5666   15.0985   21.1825 C   0  0  0  0  0  0  0  0  0  0  0  0
    9.8196   15.0455   22.6875 C   0  0  0  0  0  0  0  0  0  0  0  0
   11.2931   14.7701   22.9908 C   0  0  0  0  0  0  0  0  0  0  0  0
   12.1743   15.7539   22.2458 C   0  0  0  0  0  0  0  0  0  0  0  0
   11.9239   15.6771   20.8175 N   0  0  0  0  0  0  0  0  0  0  0  0
   12.0833   14.7198   20.5036 H   0  0  0  0  0  0  0  0  0  0  0  0
 16 15  1  0  0  0
 16 17  1  0  0  0
 17 18  1  0  0  0
 18  1  1  0  0  0
  1  2  1  0  0  0
  2  3  2  0  0  0
  2  5  1  0  0  0
  5  6  2  0  0  0
  6  7  1  0  0  0
  7  8  2  0  0  0
  8  9  1  0  0  0
  9 10  2  0  0  0
  9 11  1  0  0  0
 11 12  1  0  0  0
 12 13  1  0  0  0
 18 19  1  0  0  0
 19 20  1  0  0  0
 20 21  1  0  0  0
 21 16  1  0  0  0
 10  5  1  0  0  0
 13  8  1  0  0  0
  1  4  1  0  0  0
 13 14  1  0  0  0
 21 22  1  0  0  0
M  END
> <minimizedAffinity>
-7.24020

> <minimizedRMSD>
0.45784

$$$$
C57129-P481


 24 26  0  0  0  0  0  0  0  0999 V2000
   17.3585   14.5133    3.3582 O   0  0  0  0  0  0  0  0  0  0  0  0
   17.8404   14.9640    2.3957 C   0  0  0  0  0  0  0  0  0  0  0  0
   19.2681   14.7993    1.8162 N   0  0  0  0  0  0  0  0  0  0  0  0
   19.4091   15.2256    0.9400 H   0  0  0  0  0  0  0  0  0  0  0  0
   17.0864   15.9285    1.4791 C   0  0  0  0  0  0  0  0  0  0  0  0
   16.8638   17.3205    2.0955 C   0  0  0  0  0  0  0  0  0  0  0  0
   15.4793   17.4495    2.7582 C   0  0  0  0  0  0  0  0  0  0  0  0
   15.4286   18.5656    3.8034 C   0  0  0  0  0  0  0  0  0  0  0  0
   16.4725   19.6409    3.5309 C   0  0  0  0  0  0  0  0  0  0  0  0
   17.8356   19.1125    3.5615 N   0  0  0  0  0  0  0  0  0  0  0  0
   17.9708   17.7420    3.0705 C   0  0  0  0  0  0  0  0  0  0  0  0
   18.1647   19.1381    4.5267 H   0  0  0  0  0  0  0  0  0  0  0  0
   20.4235   14.1234    2.3516 C   0  0  0  0  0  0  0  0  0  0  0  0
   21.7078   14.8273    1.9244 C   0  0  0  0  0  0  0  0  0  0  0  0
   22.9649   14.1977    2.5335 C   0  0  0  0  0  0  0  0  0  0  0  0
   23.6718   13.3350    1.5503 C   0  0  0  0  0  0  0  0  0  0  0  0
   23.2810   13.0669    0.3193 N   0  0  0  0  0  0  0  0  0  0  0  0
   24.2449   12.3019   -0.2860 N   0  0  0  0  0  0  0  0  0  0  0  0
   25.2117   12.1174    0.5838 C   0  0  0  0  0  0  0  0  0  0  0  0
   24.8748   12.7230    1.7646 N   0  0  0  0  0  0  0  0  0  0  0  0
   25.7323   12.7868    2.9275 C   0  0  0  0  0  0  0  0  0  0  0  0
   26.9017   11.8010    2.8481 C   0  0  0  0  0  0  0  0  0  0  0  0
   27.5208   11.7870    1.4487 C   0  0  0  0  0  0  0  0  0  0  0  0
   26.4872   11.3846    0.3952 C   0  0  0  0  0  0  0  0  0  0  0  0
  1  2  2  0  0  0
  2  5  1  0  0  0
  6  5  1  0  0  0
  6  7  1  0  0  0
  7  8  1  0  0  0
  8  9  1  0  0  0
  9 10  1  0  0  0
 10 11  1  0  0  0
  2  3  1  0  0  0
  3 13  1  0  0  0
 13 14  1  0  0  0
 14 15  1  0  0  0
 15 16  1  0  0  0
 16 17  2  0  0  0
 17 18  1  0  0  0
 18 19  2  0  0  0
 19 20  1  0  0  0
 20 21  1  0  0  0
 21 22  1  0  0  0
 22 23  1  0  0  0
 23 24  1  0  0  0
 11  6  1  0  0  0
 20 16  1  0  0  0
 24 19  1  0  0  0
 10 12  1  0  0  0
  3  4  1  0  0  0
M  END
> <minimizedAffinity>
-4.00648

> <minimizedRMSD>
1.04116

$$$$
C57137-P481


 23 25  0  0  0  0  0  0  0  0999 V2000
   26.6661   11.7750   -1.2115 C   0  0  0  0  0  0  0  0  0  0  0  0
   27.5014   12.5509   -1.4685 O   0  0  0  0  0  0  0  0  0  0  0  0
   25.9937   10.6892   -2.0974 N   0  0  0  0  0  0  0  0  0  0  0  0
   25.3620   10.1024   -1.6221 H   0  0  0  0  0  0  0  0  0  0  0  0
   23.3216   13.6343    1.3698 C   0  0  0  0  0  0  0  0  0  0  0  0
   22.8778   13.2963    0.1746 N   0  0  0  0  0  0  0  0  0  0  0  0
   23.8150   12.4955   -0.4260 N   0  0  0  0  0  0  0  0  0  0  0  0
   24.8358   12.3815    0.3965 C   0  0  0  0  0  0  0  0  0  0  0  0
   24.5311   13.0296    1.5659 N   0  0  0  0  0  0  0  0  0  0  0  0
   25.3906   13.0880    2.7277 C   0  0  0  0  0  0  0  0  0  0  0  0
   26.5122   12.0504    2.6687 C   0  0  0  0  0  0  0  0  0  0  0  0
   27.1392   12.0083    1.2747 C   0  0  0  0  0  0  0  0  0  0  0  0
   26.0996   11.6046    0.2146 C   0  0  0  0  0  0  0  0  0  0  0  0
   21.1406   14.4489    2.2234 C   0  0  0  0  0  0  0  0  0  0  0  0
   22.6555   14.5365    2.3463 C   0  0  0  0  0  0  0  0  0  0  0  0
   26.1444   10.4026   -3.4986 C   0  0  0  0  0  0  0  0  0  0  0  0
   26.8565    9.0623   -3.7442 C   0  0  0  0  0  0  0  0  0  0  0  0
   27.1884    8.8879   -5.2352 C   0  0  0  0  0  0  0  0  0  0  0  0
   28.3633    9.7678   -5.6610 C   0  0  0  0  0  0  0  0  0  0  0  0
   29.5669    9.5732   -4.7407 C   0  0  0  0  0  0  0  0  0  0  0  0
   29.2343    9.7752   -3.3319 N   0  0  0  0  0  0  0  0  0  0  0  0
   28.1417    8.8915   -2.9118 C   0  0  0  0  0  0  0  0  0  0  0  0
   28.9497   10.7448   -3.1931 H   0  0  0  0  0  0  0  0  0  0  0  0
 14 15  1  0  0  0
 15  5  1  0  0  0
  5  6  2  0  0  0
  6  7  1  0  0  0
  7  8  2  0  0  0
  8  9  1  0  0  0
  9 10  1  0  0  0
 10 11  1  0  0  0
 11 12  1  0  0  0
 12 13  1  0  0  0
 13  1  1  0  0  0
  1  2  2  0  0  0
  1  3  1  0  0  0
  3 16  1  0  0  0
 17 16  1  0  0  0
 17 18  1  0  0  0
 18 19  1  0  0  0
 19 20  1  0  0  0
 20 21  1  0  0  0
 21 22  1  0  0  0
  9  5  1  0  0  0
 22 17  1  0  0  0
 13  8  1  0  0  0
  3  4  1  0  0  0
 21 23  1  0  0  0
M  END
> <minimizedAffinity>
-3.70514

> <minimizedRMSD>
1.72012

$$$$
C57140-P481


 24 26  0  0  0  0  0  0  0  0999 V2000
   27.0764   12.2807    1.5257 N   0  0  0  0  0  0  0  0  0  0  0  0
   27.7602   11.6716    2.7651 C   0  0  0  0  0  0  0  0  0  0  0  0
   27.4056   10.8287    3.4827 O   0  0  0  0  0  0  0  0  0  0  0  0
   27.6208   12.9389    1.0362 H   0  0  0  0  0  0  0  0  0  0  0  0
   22.3260   13.7090    0.8761 C   0  0  0  0  0  0  0  0  0  0  0  0
   21.6225   13.6476   -0.2390 N   0  0  0  0  0  0  0  0  0  0  0  0
   22.3099   12.8910   -1.1473 N   0  0  0  0  0  0  0  0  0  0  0  0
   23.4379   12.5288   -0.5857 C   0  0  0  0  0  0  0  0  0  0  0  0
   23.5087   13.0511    0.6793 N   0  0  0  0  0  0  0  0  0  0  0  0
   24.6876   12.9982    1.5216 C   0  0  0  0  0  0  0  0  0  0  0  0
   25.7667   12.0430    0.9654 C   0  0  0  0  0  0  0  0  0  0  0  0
   25.8557   12.0751   -0.5601 C   0  0  0  0  0  0  0  0  0  0  0  0
   24.5156   11.7078   -1.1754 C   0  0  0  0  0  0  0  0  0  0  0  0
   20.3604   14.3186    2.2366 C   0  0  0  0  0  0  0  0  0  0  0  0
   21.8835   14.3448    2.1418 C   0  0  0  0  0  0  0  0  0  0  0  0
   29.0968   12.4075    2.9253 C   0  0  0  0  0  0  0  0  0  0  0  0
   30.0481   11.6543    3.8602 C   0  0  0  0  0  0  0  0  0  0  0  0
   30.5889   12.4537    5.0586 C   0  0  0  0  0  0  0  0  0  0  0  0
   32.0341   12.1088    5.4252 C   0  0  0  0  0  0  0  0  0  0  0  0
   32.4696   12.8535    6.6931 C   0  0  0  0  0  0  0  0  0  0  0  0
   31.5927   14.0669    7.0121 C   0  0  0  0  0  0  0  0  0  0  0  0
   31.2428   14.7856    5.7949 N   0  0  0  0  0  0  0  0  0  0  0  0
   30.4303   13.9779    4.8761 C   0  0  0  0  0  0  0  0  0  0  0  0
   32.1022   15.0580    5.3178 H   0  0  0  0  0  0  0  0  0  0  0  0
 14 15  1  0  0  0
 15  5  1  0  0  0
  5  6  2  0  0  0
  6  7  1  0  0  0
  7  8  2  0  0  0
  8  9  1  0  0  0
  9 10  1  0  0  0
 10 11  1  0  0  0
 11  1  1  0  0  0
  1  2  1  0  0  0
  2  3  2  0  0  0
  2 16  1  0  0  0
 16 17  1  0  0  0
 18 17  1  0  0  0
 18 19  1  0  0  0
 19 20  1  0  0  0
 20 21  1  0  0  0
 21 22  1  0  0  0
 22 23  1  0  0  0
 11 12  1  0  0  0
 12 13  1  0  0  0
  9  5  1  0  0  0
 23 18  1  0  0  0
 13  8  1  0  0  0
  1  4  1  0  0  0
 22 24  1  0  0  0
M  END
> <minimizedAffinity>
-4.63575

> <minimizedRMSD>
1.55983

$$$$
C79212-P220


 19 20  0  0  0  0  0  0  0  0999 V2000
   20.6987   18.6895    5.4000 C   0  0  0  0  0  0  0  0  0  0  0  0
   21.6153   18.8472    6.4144 N   0  0  0  0  0  0  0  0  0  0  0  0
   22.8673   18.8207    5.8740 C   0  0  0  0  0  0  0  0  0  0  0  0
   22.8136   18.6747    4.5708 N   0  0  0  0  0  0  0  0  0  0  0  0
   21.4744   18.5996    4.2531 C   0  0  0  0  0  0  0  0  0  0  0  0
   21.4031   18.9602    7.3691 H   0  0  0  0  0  0  0  0  0  0  0  0
   24.1541   18.9273    6.7123 C   0  0  0  0  0  0  0  0  0  0  0  0
   25.2145   18.0602    6.6508 C   0  0  0  0  0  0  0  0  0  0  0  0
   26.1327   18.4658    7.5724 O   0  0  0  0  0  0  0  0  0  0  0  0
   25.5622   19.5733    8.1299 C   0  0  0  0  0  0  0  0  0  0  0  0
   24.3878   19.9106    7.6397 N   0  0  0  0  0  0  0  0  0  0  0  0
   19.2738   18.6273    5.5660 C   0  0  0  0  0  0  0  0  0  0  0  0
   18.5849   17.6199    5.4842 O   0  0  0  0  0  0  0  0  0  0  0  0
   18.1953   19.9885    7.1347 C   0  0  0  0  0  0  0  0  0  0  0  0
   18.7973   19.8752    5.8445 O   0  0  0  0  0  0  0  0  0  0  0  0
   21.0401   18.3947    2.8350 C   0  0  0  0  0  0  0  0  0  0  0  0
   20.9458   16.9188    2.4035 C   0  0  0  0  0  0  0  0  0  0  0  0
   19.4812   16.5130    2.2452 C   0  0  0  0  0  0  0  0  0  0  0  0
   21.7137   16.6578    1.1062 C   0  0  0  0  0  0  0  0  0  0  0  0
 14 15  1  0  0  0
 15 12  1  0  0  0
 12 13  2  0  0  0
 12  1  1  0  0  0
  1  2  1  0  0  0
  2  3  1  0  0  0
  3  7  1  0  0  0
  7  8  2  0  0  0
  8  9  1  0  0  0
  9 10  1  0  0  0
 10 11  2  0  0  0
  3  4  2  0  0  0
  4  5  1  0  0  0
  5 16  1  0  0  0
 16 17  1  0  0  0
 17 18  1  0  0  0
 17 19  1  0  0  0
  5  1  2  0  0  0
 11  7  1  0  0  0
  2  6  1  0  0  0
M  END
> <minimizedAffinity>
-3.06037

> <minimizedRMSD>
3.00520

$$$$
C13210-P271


 14 14  0  0  0  0  0  0  0  0999 V2000
    9.1599   13.0141   23.4089 N   0  0  0  0  0  0  0  0  0  0  0  0
    9.7110   13.5328   24.0928 H   0  0  0  0  0  0  0  0  0  0  0  0
    8.2654   12.1615   24.0923 N   0  0  0  0  0  0  0  0  0  0  0  0
    8.8711   10.8335   24.2754 C   0  0  0  0  0  0  0  0  0  0  0  0
    7.9118    9.8403   24.9101 C   0  0  0  0  0  0  0  0  0  0  0  0
    7.2216   10.4083   26.1255 C   0  0  0  0  0  0  0  0  0  0  0  0
    6.8434   11.8650   26.0953 C   0  0  0  0  0  0  0  0  0  0  0  0
    7.8932   12.7128   25.4046 C   0  0  0  0  0  0  0  0  0  0  0  0
    8.3234   14.1322   22.4012 S   0  0  0  0  0  0  0  0  0  0  0  0
    9.1826   14.3279   21.2548 O   0  0  0  0  0  0  0  0  0  0  0  0
    6.9607   13.6690   22.2383 O   0  0  0  0  0  0  0  0  0  0  0  0
    8.3312   15.6284   23.3834 C   0  0  0  0  0  0  0  0  0  0  0  0
    9.4828   16.1218   25.5658 C   0  0  0  0  0  0  0  0  0  0  0  0
    9.6651   15.8929   24.0748 C   0  0  0  0  0  0  0  0  0  0  0  0
 13 14  1  0  0  0
 14 12  1  0  0  0
 12  9  1  0  0  0
  9 10  2  0  0  0
  9 11  2  0  0  0
  9  1  1  0  0  0
  1  3  1  0  0  0
  3  4  1  0  0  0
  4  5  1  0  0  0
  5  6  1  0  0  0
  6  7  1  0  0  0
  7  8  1  0  0  0
  8  3  1  0  0  0
  1  2  1  0  0  0
M  END
> <minimizedAffinity>
-3.90686

> <minimizedRMSD>
1.49282

$$$$
C63652-P229


 21 22  0  0  0  0  0  0  0  0999 V2000
    8.8925   11.3960   24.4044 C   0  0  0  0  0  0  0  0  0  0  0  0
    8.3249   12.2522   25.3509 C   0  0  0  0  0  0  0  0  0  0  0  0
    7.3426   11.7925   26.2153 C   0  0  0  0  0  0  0  0  0  0  0  0
    7.0231   10.4424   26.2094 C   0  0  0  0  0  0  0  0  0  0  0  0
    7.6485    9.5468   25.3907 N   0  0  0  0  0  0  0  0  0  0  0  0
    8.5328   10.0540   24.4866 C   0  0  0  0  0  0  0  0  0  0  0  0
    5.9996   10.0242   27.1173 N   0  0  0  0  0  0  0  0  0  0  0  0
    6.0575    9.9430   28.4869 C   0  0  0  0  0  0  0  0  0  0  0  0
    4.9143    9.3258   28.9260 C   0  0  0  0  0  0  0  0  0  0  0  0
    4.1481    9.1813   27.7665 C   0  0  0  0  0  0  0  0  0  0  0  0
    4.7533    9.6714   26.6830 N   0  0  0  0  0  0  0  0  0  0  0  0
    9.8447   11.8922   23.3349 C   0  0  0  0  0  0  0  0  0  0  0  0
    8.9378   13.8806   22.2107 C   0  0  0  0  0  0  0  0  0  0  0  0
    9.8907   13.3523   23.2011 N   0  0  0  0  0  0  0  0  0  0  0  0
   11.2038   13.8752   22.8156 C   0  0  0  0  0  0  0  0  0  0  0  0
   11.3649   15.3482   22.4510 C   0  0  0  0  0  0  0  0  0  0  0  0
   12.3046   15.5218   21.3824 O   0  0  0  0  0  0  0  0  0  0  0  0
   11.8203   15.1706   20.0783 C   0  0  0  0  0  0  0  0  0  0  0  0
   10.5082   15.8614   19.6817 C   0  0  0  0  0  0  0  0  0  0  0  0
   10.5567   16.3361   18.3437 O   0  0  0  0  0  0  0  0  0  0  0  0
   11.2715   16.9860   18.2569 H   0  0  0  0  0  0  0  0  0  0  0  0
 13 14  1  0  0  0
 14 15  1  0  0  0
 15 16  1  0  0  0
 16 17  1  0  0  0
 17 18  1  0  0  0
 18 19  1  0  0  0
 19 20  1  0  0  0
 14 12  1  0  0  0
 12  1  1  0  0  0
  1  2  2  0  0  0
  2  3  1  0  0  0
  3  4  2  0  0  0
  4  7  1  0  0  0
  7  8  1  0  0  0
  8  9  2  0  0  0
  9 10  1  0  0  0
 10 11  2  0  0  0
  4  5  1  0  0  0
  5  6  2  0  0  0
  6  1  1  0  0  0
 11  7  1  0  0  0
 20 21  1  0  0  0
M  END
> <minimizedAffinity>
-6.13150

> <minimizedRMSD>
1.39169

$$$$
C24948-P174


 16 17  0  0  0  0  0  0  0  0999 V2000
   20.7590   13.2090    3.2423 N   0  0  0  0  0  0  0  0  0  0  0  0
   21.0311   12.3403    3.7024 H   0  0  0  0  0  0  0  0  0  0  0  0
   19.4767   12.9989    2.5751 C   0  0  0  0  0  0  0  0  0  0  0  0
   15.1936   14.4381    1.7032 C   0  0  0  0  0  0  0  0  0  0  0  0
   16.6748   14.1538    1.8696 C   0  0  0  0  0  0  0  0  0  0  0  0
   16.9677   13.0550    2.8825 C   0  0  0  0  0  0  0  0  0  0  0  0
   18.3087   13.4746    3.4604 C   0  0  0  0  0  0  0  0  0  0  0  0
   18.1365   14.9860    3.4824 C   0  0  0  0  0  0  0  0  0  0  0  0
   17.3448   15.3381    2.3374 O   0  0  0  0  0  0  0  0  0  0  0  0
   21.8353   13.6067    2.3194 C   0  0  0  0  0  0  0  0  0  0  0  0
   22.2775   15.0330    2.4964 C   0  0  0  0  0  0  0  0  0  0  0  0
   21.5603   16.2157    2.4950 C   0  0  0  0  0  0  0  0  0  0  0  0
   22.4826   17.2081    2.6811 N   0  0  0  0  0  0  0  0  0  0  0  0
   23.7039   16.6152    2.8075 C   0  0  0  0  0  0  0  0  0  0  0  0
   23.6151   15.3105    2.7041 N   0  0  0  0  0  0  0  0  0  0  0  0
   22.2983   18.1745    2.7172 H   0  0  0  0  0  0  0  0  0  0  0  0
  5  4  1  0  0  0
  5  6  1  0  0  0
  6  7  1  0  0  0
  7  3  1  0  0  0
  3  1  1  0  0  0
  1 10  1  0  0  0
 10 11  1  0  0  0
 11 12  2  0  0  0
 12 13  1  0  0  0
 13 14  1  0  0  0
 14 15  2  0  0  0
  7  8  1  0  0  0
  8  9  1  0  0  0
  9  5  1  0  0  0
 15 11  1  0  0  0
  1  2  1  0  0  0
 13 16  1  0  0  0
M  END
> <minimizedAffinity>
-2.83848

> <minimizedRMSD>
1.54493

$$$$
C45815-P469


 20 22  0  0  0  0  0  0  0  0999 V2000
    5.9415   14.3084   25.3987 C   0  0  0  0  0  0  0  0  0  0  0  0
    4.7706   14.5956   24.7072 C   0  0  0  0  0  0  0  0  0  0  0  0
    4.7917   14.7334   23.3097 C   0  0  0  0  0  0  0  0  0  0  0  0
    5.9864   14.6034   22.5845 C   0  0  0  0  0  0  0  0  0  0  0  0
    7.1641   14.3961   23.2932 C   0  0  0  0  0  0  0  0  0  0  0  0
    7.1193   14.1574   24.6758 C   0  0  0  0  0  0  0  0  0  0  0  0
    8.3776   13.7502   25.2193 N   0  0  0  0  0  0  0  0  0  0  0  0
    9.1111   13.4023   23.9847 C   0  0  0  0  0  0  0  0  0  0  0  0
    8.6020   14.3246   22.8260 C   0  0  0  0  0  0  0  0  0  0  0  0
    8.6736   13.7121   26.1575 H   0  0  0  0  0  0  0  0  0  0  0  0
    9.1843   15.6805   22.7158 N   0  0  0  0  0  0  0  0  0  0  0  0
   10.4962   15.9145   23.3207 C   0  0  0  0  0  0  0  0  0  0  0  0
   11.6637   15.3471   22.5111 C   0  0  0  0  0  0  0  0  0  0  0  0
   11.6508   15.8949   21.0886 C   0  0  0  0  0  0  0  0  0  0  0  0
   10.2858   15.6702   20.4502 C   0  0  0  0  0  0  0  0  0  0  0  0
    9.1558   16.2026   21.3384 C   0  0  0  0  0  0  0  0  0  0  0  0
    5.5046   15.3398   27.4114 C   0  0  0  0  0  0  0  0  0  0  0  0
    5.8556   14.1212   26.7512 O   0  0  0  0  0  0  0  0  0  0  0  0
    6.0685   14.6099   21.2209 O   0  0  0  0  0  0  0  0  0  0  0  0
    4.8546   14.3430   20.5215 C   0  0  0  0  0  0  0  0  0  0  0  0
 17 18  1  0  0  0
 18  1  1  0  0  0
  1  2  2  0  0  0
  2  3  1  0  0  0
  3  4  2  0  0  0
  4 19  1  0  0  0
 19 20  1  0  0  0
  4  5  1  0  0  0
  5  6  2  0  0  0
  6  7  1  0  0  0
  7  8  1  0  0  0
  8  9  1  0  0  0
  9 11  1  0  0  0
 11 12  1  0  0  0
 12 13  1  0  0  0
 13 14  1  0  0  0
 14 15  1  0  0  0
 15 16  1  0  0  0
  6  1  1  0  0  0
 16 11  1  0  0  0
  9  5  1  0  0  0
  7 10  1  0  0  0
M  END
> <minimizedAffinity>
-5.27975

> <minimizedRMSD>
0.86558

$$$$
C95588-P135


 23 24  0  0  0  0  0  0  0  0999 V2000
   11.7696   13.7402   21.2056 N   0  0  0  0  0  0  0  0  0  0  0  0
   12.2204   12.8360   21.0658 H   0  0  0  0  0  0  0  0  0  0  0  0
   13.5143   17.0773   20.2434 N   0  0  0  0  0  0  0  0  0  0  0  0
   12.8516   16.1142   21.1436 C   0  0  0  0  0  0  0  0  0  0  0  0
   12.6170   14.7199   20.5353 C   0  0  0  0  0  0  0  0  0  0  0  0
   12.1433   14.7909   19.0864 C   0  0  0  0  0  0  0  0  0  0  0  0
   12.9264   15.7776   18.2553 C   0  0  0  0  0  0  0  0  0  0  0  0
   13.2869   17.0882   18.8839 C   0  0  0  0  0  0  0  0  0  0  0  0
   13.5054   18.0651   18.1636 O   0  0  0  0  0  0  0  0  0  0  0  0
   14.1605   18.2479   20.8052 C   0  0  0  0  0  0  0  0  0  0  0  0
   11.9073   19.3952   21.1717 C   0  0  0  0  0  0  0  0  0  0  0  0
   13.2416   19.4071   21.0697 C   0  0  0  0  0  0  0  0  0  0  0  0
   11.4442   13.8122   22.6260 C   0  0  0  0  0  0  0  0  0  0  0  0
   10.0053   13.2092   22.8148 C   0  0  0  0  0  0  0  0  0  0  0  0
    9.6939   12.3626   24.0451 C   0  0  0  0  0  0  0  0  0  0  0  0
    9.4404   12.9213   25.2957 C   0  0  0  0  0  0  0  0  0  0  0  0
    8.5708   12.2819   26.1688 C   0  0  0  0  0  0  0  0  0  0  0  0
    8.0948   11.0374   25.8188 C   0  0  0  0  0  0  0  0  0  0  0  0
    8.5188   10.3605   24.7391 N   0  0  0  0  0  0  0  0  0  0  0  0
    9.3104   11.0334   23.8732 C   0  0  0  0  0  0  0  0  0  0  0  0
    8.9275   14.2121   22.5042 N   0  0  0  0  0  0  0  0  0  0  0  0
    7.5693   13.7206   22.5999 C   0  0  0  0  0  0  0  0  0  0  0  0
    8.9804   15.4236   23.2840 C   0  0  0  0  0  0  0  0  0  0  0  0
 11 12  2  0  0  0
 12 10  1  0  0  0
 10  3  1  0  0  0
  3  4  1  0  0  0
  4  5  1  0  0  0
  5  1  1  0  0  0
  1 13  1  0  0  0
 14 13  1  0  0  0
 14 15  1  0  0  0
 15 16  2  0  0  0
 16 17  1  0  0  0
 17 18  2  0  0  0
 18 19  1  0  0  0
 19 20  2  0  0  0
 14 21  1  0  0  0
 21 22  1  0  0  0
 21 23  1  0  0  0
  5  6  1  0  0  0
  6  7  1  0  0  0
  7  8  1  0  0  0
  8  9  2  0  0  0
  8  3  1  0  0  0
 20 15  1  0  0  0
  1  2  1  0  0  0
M  END
> <minimizedAffinity>
-6.54352

> <minimizedRMSD>
0.23427

$$$$
C56176-P71


 23 25  0  0  0  0  0  0  0  0999 V2000
    2.6207   11.9299    3.4615 C   0  0  0  0  0  0  0  0  0  0  0  0
    1.5063   12.4486    3.4528 O   0  0  0  0  0  0  0  0  0  0  0  0
    3.8602   12.7179    3.6451 C   0  0  0  0  0  0  0  0  0  0  0  0
    3.8704   13.9496    4.2803 C   0  0  0  0  0  0  0  0  0  0  0  0
    5.4678   14.5402    4.4369 S   0  0  0  0  0  0  0  0  0  0  0  0
    6.0349   13.2729    3.4194 C   0  0  0  0  0  0  0  0  0  0  0  0
    5.1285   12.3382    3.1800 N   0  0  0  0  0  0  0  0  0  0  0  0
    7.3643   13.3456    2.7818 C   0  0  0  0  0  0  0  0  0  0  0  0
    7.7887   12.3127    1.9394 C   0  0  0  0  0  0  0  0  0  0  0  0
    8.9473   12.4536    1.1751 C   0  0  0  0  0  0  0  0  0  0  0  0
    9.6731   13.6270    1.2864 C   0  0  0  0  0  0  0  0  0  0  0  0
    9.3477   14.6286    2.1305 N   0  0  0  0  0  0  0  0  0  0  0  0
    8.2010   14.4640    2.8447 C   0  0  0  0  0  0  0  0  0  0  0  0
    2.8182   10.5847    3.3277 O   0  0  0  0  0  0  0  0  0  0  0  0
    1.6672    9.7265    3.5223 C   0  0  0  0  0  0  0  0  0  0  0  0
    0.2896    6.9590    6.8851 O   0  0  0  0  0  0  0  0  0  0  0  0
    0.2958    7.9281    6.1425 C   0  0  0  0  0  0  0  0  0  0  0  0
   -0.7960    8.3955    5.4399 N   0  0  0  0  0  0  0  0  0  0  0  0
   -0.5153    9.6753    4.8412 C   0  0  0  0  0  0  0  0  0  0  0  0
    1.0143    9.8258    4.9238 C   0  0  0  0  0  0  0  0  0  0  0  0
    1.3712    8.7434    5.8351 N   0  0  0  0  0  0  0  0  0  0  0  0
   -1.6529    7.9177    5.3586 H   0  0  0  0  0  0  0  0  0  0  0  0
    2.2785    8.6078    6.1925 H   0  0  0  0  0  0  0  0  0  0  0  0
 16 17  2  0  0  0
 17 18  1  0  0  0
 18 19  1  0  0  0
 19 20  1  0  0  0
 20 15  1  0  0  0
 15 14  1  0  0  0
 14  1  1  0  0  0
  1  2  2  0  0  0
  1  3  1  0  0  0
  3  4  2  0  0  0
  4  5  1  0  0  0
  5  6  1  0  0  0
  6  8  1  0  0  0
  8  9  2  0  0  0
  9 10  1  0  0  0
 10 11  2  0  0  0
 11 12  1  0  0  0
 12 13  2  0  0  0
  6  7  2  0  0  0
 20 21  1  0  0  0
 21 17  1  0  0  0
  7  3  1  0  0  0
 13  8  1  0  0  0
 18 22  1  0  0  0
 21 23  1  0  0  0
M  END
> <minimizedAffinity>
-3.59195

> <minimizedRMSD>
0.33279

$$$$
C95867-P543


 18 19  0  0  0  0  0  0  0  0999 V2000
    7.5248   14.0417   24.2181 C   0  0  0  0  0  0  0  0  0  0  0  0
    7.9375   14.5582   25.1846 O   0  0  0  0  0  0  0  0  0  0  0  0
    6.2502   14.2315   23.5057 N   0  0  0  0  0  0  0  0  0  0  0  0
    6.3632   15.3265   22.4274 C   0  0  0  0  0  0  0  0  0  0  0  0
    4.8598   15.3142   22.3741 C   0  0  0  0  0  0  0  0  0  0  0  0
    5.0404   15.0719   23.8505 C   0  0  0  0  0  0  0  0  0  0  0  0
    4.2814   14.1930   21.7007 N   0  0  0  0  0  0  0  0  0  0  0  0
    4.5203   13.2951   22.0263 H   0  0  0  0  0  0  0  0  0  0  0  0
    3.4447   14.2693   20.6674 C   0  0  0  0  0  0  0  0  0  0  0  0
    2.3605   14.9961   20.5190 N   0  0  0  0  0  0  0  0  0  0  0  0
    1.9041   14.6363   19.2710 C   0  0  0  0  0  0  0  0  0  0  0  0
    2.7639   13.7344   18.7008 C   0  0  0  0  0  0  0  0  0  0  0  0
    3.7519   13.4776   19.6001 O   0  0  0  0  0  0  0  0  0  0  0  0
    8.1962   13.0985   23.4833 O   0  0  0  0  0  0  0  0  0  0  0  0
    9.6715   11.1851   23.2695 C   0  0  0  0  0  0  0  0  0  0  0  0
    9.1149   12.2577   24.2069 C   0  0  0  0  0  0  0  0  0  0  0  0
    8.2374   11.5260   25.2296 C   0  0  0  0  0  0  0  0  0  0  0  0
   10.2989   13.0930   24.7255 C   0  0  0  0  0  0  0  0  0  0  0  0
 15 16  1  0  0  0
 16 17  1  0  0  0
 16 18  1  0  0  0
 16 14  1  0  0  0
 14  1  1  0  0  0
  1  2  2  0  0  0
  1  3  1  0  0  0
  3  4  1  0  0  0
  4  5  1  0  0  0
  5  7  1  0  0  0
  7  9  1  0  0  0
  9 10  2  0  0  0
 10 11  1  0  0  0
 11 12  2  0  0  0
 12 13  1  0  0  0
  5  6  1  0  0  0
  6  3  1  0  0  0
 13  9  1  0  0  0
  7  8  1  0  0  0
M  END
> <minimizedAffinity>
-4.86045

> <minimizedRMSD>
0.49263

$$$$
C79259-P174


 24 27  0  0  0  0  0  0  0  0999 V2000
   10.0371   14.1824   22.1378 C   0  0  0  0  0  0  0  0  0  0  0  0
   10.8214   15.4345   22.1222 N   0  0  0  0  0  0  0  0  0  0  0  0
   11.7202   15.2579   22.5710 H   0  0  0  0  0  0  0  0  0  0  0  0
   11.0717   15.9556   20.7658 C   0  0  0  0  0  0  0  0  0  0  0  0
    9.9556   16.8420   20.3151 C   0  0  0  0  0  0  0  0  0  0  0  0
    9.8680   17.4401   19.1555 N   0  0  0  0  0  0  0  0  0  0  0  0
    9.1824   18.5833   19.4279 C   0  0  0  0  0  0  0  0  0  0  0  0
    8.7093   18.5968   20.7202 C   0  0  0  0  0  0  0  0  0  0  0  0
    9.0657   17.3839   21.2149 N   0  0  0  0  0  0  0  0  0  0  0  0
    8.7501   16.9729   22.0520 H   0  0  0  0  0  0  0  0  0  0  0  0
   12.3180   16.8583   20.6920 C   0  0  0  0  0  0  0  0  0  0  0  0
   13.6671   16.6247   21.2901 C   0  0  0  0  0  0  0  0  0  0  0  0
   13.4596   16.3477   19.8360 C   0  0  0  0  0  0  0  0  0  0  0  0
    9.8495   13.6992   23.5870 C   0  0  0  0  0  0  0  0  0  0  0  0
    6.2582   10.7341   26.2924 C   0  0  0  0  0  0  0  0  0  0  0  0
    6.3672   12.1215   26.3080 C   0  0  0  0  0  0  0  0  0  0  0  0
    7.3045   12.7713   25.4967 C   0  0  0  0  0  0  0  0  0  0  0  0
    8.1401   12.0140   24.6481 C   0  0  0  0  0  0  0  0  0  0  0  0
    9.2199   12.3420   23.7584 C   0  0  0  0  0  0  0  0  0  0  0  0
    9.5753   11.1596   23.1415 C   0  0  0  0  0  0  0  0  0  0  0  0
    8.8481   10.1349   23.6850 N   0  0  0  0  0  0  0  0  0  0  0  0
    7.9778   10.6269   24.6285 C   0  0  0  0  0  0  0  0  0  0  0  0
    7.0613    9.9592   25.4505 C   0  0  0  0  0  0  0  0  0  0  0  0
    8.9354    9.1862   23.4369 H   0  0  0  0  0  0  0  0  0  0  0  0
 15 16  2  0  0  0
 16 17  1  0  0  0
 17 18  2  0  0  0
 18 19  1  0  0  0
 19 14  1  0  0  0
 14  1  1  0  0  0
  1  2  1  0  0  0
  4  2  1  0  0  0
  4  5  1  0  0  0
  5  6  2  0  0  0
  6  7  1  0  0  0
  7  8  2  0  0  0
  8  9  1  0  0  0
  4 11  1  0  0  0
 11 12  1  0  0  0
 12 13  1  0  0  0
 19 20  2  0  0  0
 20 21  1  0  0  0
 21 22  1  0  0  0
 22 23  2  0  0  0
 23 15  1  0  0  0
 22 18  1  0  0  0
  9  5  1  0  0  0
 13 11  1  0  0  0
  2  3  1  0  0  0
  9 10  1  0  0  0
 21 24  1  0  0  0
M  END
> <minimizedAffinity>
-6.97466

> <minimizedRMSD>
1.11482

$$$$
C72495-P174


 23 24  0  0  0  0  0  0  0  0999 V2000
    9.0827   11.6451   24.1665 C   0  0  0  0  0  0  0  0  0  0  0  0
    9.2750   10.5087   23.3893 C   0  0  0  0  0  0  0  0  0  0  0  0
    8.5558    9.3539   23.6600 C   0  0  0  0  0  0  0  0  0  0  0  0
    7.6627    9.2741   24.6531 N   0  0  0  0  0  0  0  0  0  0  0  0
    7.5237   10.3704   25.4086 C   0  0  0  0  0  0  0  0  0  0  0  0
    8.1865   11.5650   25.2173 C   0  0  0  0  0  0  0  0  0  0  0  0
   10.2758   13.4094   24.9796 O   0  0  0  0  0  0  0  0  0  0  0  0
    9.8583   12.9197   24.0085 C   0  0  0  0  0  0  0  0  0  0  0  0
    9.9431   13.3803   22.5451 N   0  0  0  0  0  0  0  0  0  0  0  0
    9.5716   12.7451   21.8911 H   0  0  0  0  0  0  0  0  0  0  0  0
   10.4785   14.5921   21.9729 C   0  0  0  0  0  0  0  0  0  0  0  0
   11.9908   14.6329   22.1224 C   0  0  0  0  0  0  0  0  0  0  0  0
   12.6307   15.4896   21.1035 C   0  0  0  0  0  0  0  0  0  0  0  0
   13.4353   16.5938   21.2484 C   0  0  0  0  0  0  0  0  0  0  0  0
   13.7841   17.0337   20.0072 O   0  0  0  0  0  0  0  0  0  0  0  0
   13.1723   16.1474   19.1707 C   0  0  0  0  0  0  0  0  0  0  0  0
   12.4711   15.2124   19.7697 N   0  0  0  0  0  0  0  0  0  0  0  0
    6.8522   10.1803   26.5760 O   0  0  0  0  0  0  0  0  0  0  0  0
    5.4897   10.5626   26.4545 C   0  0  0  0  0  0  0  0  0  0  0  0
    5.2375   11.9034   27.1117 C   0  0  0  0  0  0  0  0  0  0  0  0
    5.1286   12.8958   26.2069 F   0  0  0  0  0  0  0  0  0  0  0  0
    6.2483   12.2459   27.9443 F   0  0  0  0  0  0  0  0  0  0  0  0
    4.1087   11.8579   27.8551 F   0  0  0  0  0  0  0  0  0  0  0  0
  7  8  2  0  0  0
  8  9  1  0  0  0
  9 11  1  0  0  0
 11 12  1  0  0  0
 12 13  1  0  0  0
 13 14  2  0  0  0
 14 15  1  0  0  0
 15 16  1  0  0  0
 16 17  2  0  0  0
  8  1  1  0  0  0
  1  2  2  0  0  0
  2  3  1  0  0  0
  3  4  2  0  0  0
  4  5  1  0  0  0
  5 18  1  0  0  0
 18 19  1  0  0  0
 19 20  1  0  0  0
 20 21  1  0  0  0
 20 22  1  0  0  0
 20 23  1  0  0  0
  5  6  2  0  0  0
 17 13  1  0  0  0
  6  1  1  0  0  0
  9 10  1  0  0  0
M  END
> <minimizedAffinity>
-6.62275

> <minimizedRMSD>
0.89062

$$$$
C72496-P174


 22 23  0  0  0  0  0  0  0  0999 V2000
    9.3859   13.8010   24.8809 O   0  0  0  0  0  0  0  0  0  0  0  0
    9.3352   13.1518   23.9150 C   0  0  0  0  0  0  0  0  0  0  0  0
    9.7290   13.4877   22.4652 N   0  0  0  0  0  0  0  0  0  0  0  0
    9.5173   12.7863   21.8076 H   0  0  0  0  0  0  0  0  0  0  0  0
    8.8074   11.7584   24.0479 C   0  0  0  0  0  0  0  0  0  0  0  0
    9.3902   10.6819   23.3932 C   0  0  0  0  0  0  0  0  0  0  0  0
    8.8816    9.4064   23.5867 C   0  0  0  0  0  0  0  0  0  0  0  0
    7.8543    9.1546   24.4043 N   0  0  0  0  0  0  0  0  0  0  0  0
    7.3070   10.2099   25.0207 C   0  0  0  0  0  0  0  0  0  0  0  0
    7.7250   11.5197   24.8770 C   0  0  0  0  0  0  0  0  0  0  0  0
    6.1655    9.9234   25.6990 O   0  0  0  0  0  0  0  0  0  0  0  0
    6.2247   10.3576   27.0469 C   0  0  0  0  0  0  0  0  0  0  0  0
    5.0127   11.1895   27.4059 C   0  0  0  0  0  0  0  0  0  0  0  0
    4.8360   12.1450   26.4560 F   0  0  0  0  0  0  0  0  0  0  0  0
    5.2416   11.8392   28.5765 F   0  0  0  0  0  0  0  0  0  0  0  0
   10.3578   14.6627   21.9132 C   0  0  0  0  0  0  0  0  0  0  0  0
   11.8713   14.6006   22.0971 C   0  0  0  0  0  0  0  0  0  0  0  0
   12.5774   15.4384   21.1057 C   0  0  0  0  0  0  0  0  0  0  0  0
   13.4104   16.5166   21.2811 C   0  0  0  0  0  0  0  0  0  0  0  0
   13.7895   16.9675   20.0525 O   0  0  0  0  0  0  0  0  0  0  0  0
   13.1673   16.1119   19.1921 C   0  0  0  0  0  0  0  0  0  0  0  0
   12.4412   15.1800   19.7657 N   0  0  0  0  0  0  0  0  0  0  0  0
  1  2  2  0  0  0
  2  3  1  0  0  0
  3 16  1  0  0  0
 16 17  1  0  0  0
 17 18  1  0  0  0
 18 19  2  0  0  0
 19 20  1  0  0  0
 20 21  1  0  0  0
 21 22  2  0  0  0
  2  5  1  0  0  0
  5  6  2  0  0  0
  6  7  1  0  0  0
  7  8  2  0  0  0
  8  9  1  0  0  0
  9 11  1  0  0  0
 11 12  1  0  0  0
 12 13  1  0  0  0
 13 14  1  0  0  0
 13 15  1  0  0  0
  9 10  2  0  0  0
 22 18  1  0  0  0
 10  5  1  0  0  0
  3  4  1  0  0  0
M  END
> <minimizedAffinity>
-6.70700

> <minimizedRMSD>
1.04878

$$$$
C59884-P322


 19 21  0  0  0  0  0  0  0  0999 V2000
   25.5001   20.3386   21.4139 C   0  0  0  0  0  0  0  0  0  0  0  0
   24.9381   21.0581   20.3348 C   0  0  0  0  0  0  0  0  0  0  0  0
   25.7448   21.6158   19.3251 C   0  0  0  0  0  0  0  0  0  0  0  0
   27.1105   21.4114   19.4274 C   0  0  0  0  0  0  0  0  0  0  0  0
   27.6623   20.7155   20.4771 C   0  0  0  0  0  0  0  0  0  0  0  0
   26.8897   20.1776   21.4838 C   0  0  0  0  0  0  0  0  0  0  0  0
   29.0159   20.6253   20.3907 O   0  0  0  0  0  0  0  0  0  0  0  0
   29.2487   21.2642   19.1238 C   0  0  0  0  0  0  0  0  0  0  0  0
   28.0587   21.8460   18.5504 O   0  0  0  0  0  0  0  0  0  0  0  0
   24.2801   18.4164   22.1493 F   0  0  0  0  0  0  0  0  0  0  0  0
   24.6168   19.7015   22.4529 C   0  0  0  0  0  0  0  0  0  0  0  0
   25.1389   22.3908   18.1857 C   0  0  0  0  0  0  0  0  0  0  0  0
   23.7381   22.9540   18.4939 C   0  0  0  0  0  0  0  0  0  0  0  0
   23.6285   24.4508   18.1593 C   0  0  0  0  0  0  0  0  0  0  0  0
   22.1953   24.9423   18.3444 C   0  0  0  0  0  0  0  0  0  0  0  0
   21.2056   24.0727   17.5752 C   0  0  0  0  0  0  0  0  0  0  0  0
   21.3263   22.6650   17.9548 N   0  0  0  0  0  0  0  0  0  0  0  0
   22.6789   22.1616   17.7078 C   0  0  0  0  0  0  0  0  0  0  0  0
   20.6625   22.1156   17.4090 H   0  0  0  0  0  0  0  0  0  0  0  0
 10 11  1  0  0  0
 11  1  1  0  0  0
  1  2  2  0  0  0
  2  3  1  0  0  0
  3 12  1  0  0  0
 13 12  1  0  0  0
 13 14  1  0  0  0
 14 15  1  0  0  0
 15 16  1  0  0  0
 16 17  1  0  0  0
 17 18  1  0  0  0
  3  4  2  0  0  0
  4  5  1  0  0  0
  5  6  2  0  0  0
  5  7  1  0  0  0
  7  8  1  0  0  0
  8  9  1  0  0  0
  6  1  1  0  0  0
 18 13  1  0  0  0
  9  4  1  0  0  0
 17 19  1  0  0  0
M  END
> <minimizedAffinity>
-3.57931

> <minimizedRMSD>
4.04173

$$$$
C55138-P204


 26 28  0  0  0  0  0  0  0  0999 V2000
    7.9807   14.2075   24.9993 C   0  0  0  0  0  0  0  0  0  0  0  0
    7.7417   14.8013   26.4321 C   0  0  0  0  0  0  0  0  0  0  0  0
    6.4688   14.1267   26.9661 C   0  0  0  0  0  0  0  0  0  0  0  0
    6.5994   12.7721   26.3488 C   0  0  0  0  0  0  0  0  0  0  0  0
    5.9953   11.5997   26.7667 C   0  0  0  0  0  0  0  0  0  0  0  0
    6.3267   10.4192   26.1054 C   0  0  0  0  0  0  0  0  0  0  0  0
    7.2337   10.4245   25.0379 C   0  0  0  0  0  0  0  0  0  0  0  0
    7.7974   11.6204   24.5927 C   0  0  0  0  0  0  0  0  0  0  0  0
    7.4805   12.7985   25.2548 C   0  0  0  0  0  0  0  0  0  0  0  0
   10.3662   14.6613   25.3953 O   0  0  0  0  0  0  0  0  0  0  0  0
    9.4688   14.3079   24.6400 C   0  0  0  0  0  0  0  0  0  0  0  0
    9.7467   14.0114   23.3555 O   0  0  0  0  0  0  0  0  0  0  0  0
    9.0602   13.7411   22.7780 H   0  0  0  0  0  0  0  0  0  0  0  0
    7.0764   15.0104   24.1512 N   0  0  0  0  0  0  0  0  0  0  0  0
    7.2990   15.9891   24.3331 H   0  0  0  0  0  0  0  0  0  0  0  0
    7.0725   14.8221   22.4868 S   0  0  0  0  0  0  0  0  0  0  0  0
    8.0727   15.7385   21.9920 O   0  0  0  0  0  0  0  0  0  0  0  0
    7.0815   13.4287   22.1153 O   0  0  0  0  0  0  0  0  0  0  0  0
    5.4674   15.5161   22.2034 C   0  0  0  0  0  0  0  0  0  0  0  0
    4.4160   14.5958   21.6149 C   0  0  0  0  0  0  0  0  0  0  0  0
    4.6005   14.3653   20.1112 C   0  0  0  0  0  0  0  0  0  0  0  0
    3.4150   13.7340   19.5345 N   0  0  0  0  0  0  0  0  0  0  0  0
    3.3631   12.2853   19.7416 C   0  0  0  0  0  0  0  0  0  0  0  0
    2.2210   11.8927   18.8228 C   0  0  0  0  0  0  0  0  0  0  0  0
    2.3418   12.8433   17.6371 C   0  0  0  0  0  0  0  0  0  0  0  0
    3.3341   13.9120   18.0814 C   0  0  0  0  0  0  0  0  0  0  0  0
 10 11  2  0  0  0
 11 12  1  0  0  0
 11  1  1  0  0  0
  1 14  1  0  0  0
 14 16  1  0  0  0
 16 17  2  0  0  0
 16 18  2  0  0  0
 16 19  1  0  0  0
 19 20  1  0  0  0
 20 21  1  0  0  0
 21 22  1  0  0  0
 22 23  1  0  0  0
 23 24  1  0  0  0
 24 25  1  0  0  0
 25 26  1  0  0  0
  1  2  1  0  0  0
  2  3  1  0  0  0
  3  4  1  0  0  0
  4  5  2  0  0  0
  5  6  1  0  0  0
  6  7  2  0  0  0
  7  8  1  0  0  0
  8  9  2  0  0  0
  9  1  1  0  0  0
 26 22  1  0  0  0
  9  4  1  0  0  0
 12 13  1  0  0  0
 14 15  1  0  0  0
M  END
> <minimizedAffinity>
-6.49927

> <minimizedRMSD>
0.91502

$$$$
C45792-P497


 24 26  0  0  0  0  0  0  0  0999 V2000
    6.9869   12.7786   25.9520 C   0  0  0  0  0  0  0  0  0  0  0  0
    7.9157   13.9943   25.8459 C   0  0  0  0  0  0  0  0  0  0  0  0
    8.8499   13.6825   24.7054 N   0  0  0  0  0  0  0  0  0  0  0  0
    8.8614   12.2452   24.6235 C   0  0  0  0  0  0  0  0  0  0  0  0
    9.6850   11.4464   23.8607 C   0  0  0  0  0  0  0  0  0  0  0  0
    9.4964   10.0675   23.9176 C   0  0  0  0  0  0  0  0  0  0  0  0
    8.5318    9.5192   24.7609 C   0  0  0  0  0  0  0  0  0  0  0  0
    7.7020   10.3263   25.5285 C   0  0  0  0  0  0  0  0  0  0  0  0
    7.8688   11.6933   25.4309 C   0  0  0  0  0  0  0  0  0  0  0  0
    8.4190   14.4935   23.2527 S   0  0  0  0  0  0  0  0  0  0  0  0
    7.5582   13.6210   22.4789 O   0  0  0  0  0  0  0  0  0  0  0  0
    7.9968   15.8295   23.6223 O   0  0  0  0  0  0  0  0  0  0  0  0
    9.9936   14.6441   22.4397 C   0  0  0  0  0  0  0  0  0  0  0  0
   10.8902   15.6931   23.0929 C   0  0  0  0  0  0  0  0  0  0  0  0
   12.2112   15.7196   22.3473 C   0  0  0  0  0  0  0  0  0  0  0  0
   12.0091   15.9665   20.8562 C   0  0  0  0  0  0  0  0  0  0  0  0
   11.0950   14.9934   20.2506 N   0  0  0  0  0  0  0  0  0  0  0  0
    9.8045   14.9675   20.9605 C   0  0  0  0  0  0  0  0  0  0  0  0
   11.5182   14.0663   20.2942 H   0  0  0  0  0  0  0  0  0  0  0  0
    6.3969   12.5535   27.3283 C   0  0  0  0  0  0  0  0  0  0  0  0
    4.2533   13.0576   26.1750 N   0  0  0  0  0  0  0  0  0  0  0  0
    4.8865   12.3316   27.2717 C   0  0  0  0  0  0  0  0  0  0  0  0
    3.2496   12.8762   26.1819 H   0  0  0  0  0  0  0  0  0  0  0  0
    4.6490   12.7463   25.2879 H   0  0  0  0  0  0  0  0  0  0  0  0
 21 22  1  0  0  0
 22 20  1  0  0  0
  1 20  1  0  0  0
  1  2  1  0  0  0
  2  3  1  0  0  0
  3 10  1  0  0  0
 10 11  2  0  0  0
 10 12  2  0  0  0
 13 10  1  0  0  0
 13 14  1  0  0  0
 14 15  1  0  0  0
 15 16  1  0  0  0
 16 17  1  0  0  0
 17 18  1  0  0  0
  3  4  1  0  0  0
  4  5  2  0  0  0
  5  6  1  0  0  0
  6  7  2  0  0  0
  7  8  1  0  0  0
  8  9  2  0  0  0
  9  1  1  0  0  0
 18 13  1  0  0  0
  9  4  1  0  0  0
 21 23  1  0  0  0
 21 24  1  0  0  0
 17 19  1  0  0  0
M  END
> <minimizedAffinity>
-6.73390

> <minimizedRMSD>
0.47507

$$$$
C19322-P22


 15 15  0  0  0  0  0  0  0  0999 V2000
    8.4321   15.5028   23.6751 C   0  0  0  0  0  0  0  0  0  0  0  0
    8.3845   15.3185   22.1772 C   0  0  0  0  0  0  0  0  0  0  0  0
    8.3010   17.5237   20.8227 N   0  0  0  0  0  0  0  0  0  0  0  0
    9.4200   16.3514   21.1719 S   0  0  0  0  0  0  0  0  0  0  0  0
   10.3774   17.0760   21.9668 O   0  0  0  0  0  0  0  0  0  0  0  0
    9.7685   15.6729   19.9395 O   0  0  0  0  0  0  0  0  0  0  0  0
    8.7278   18.2351   20.2291 H   0  0  0  0  0  0  0  0  0  0  0  0
    7.9771   17.9535   21.6891 H   0  0  0  0  0  0  0  0  0  0  0  0
    9.4532   14.6365   24.3932 C   0  0  0  0  0  0  0  0  0  0  0  0
    9.3648   13.2177   24.1721 N   0  0  0  0  0  0  0  0  0  0  0  0
    8.4245   12.4344   24.9123 C   0  0  0  0  0  0  0  0  0  0  0  0
    8.6836   10.9935   24.5378 C   0  0  0  0  0  0  0  0  0  0  0  0
    9.8830   11.0200   23.6081 C   0  0  0  0  0  0  0  0  0  0  0  0
   10.3720   12.4238   23.6596 C   0  0  0  0  0  0  0  0  0  0  0  0
   11.4753   12.7780   23.2926 O   0  0  0  0  0  0  0  0  0  0  0  0
  3  4  1  0  0  0
  4  5  2  0  0  0
  4  6  2  0  0  0
  4  2  1  0  0  0
  2  1  1  0  0  0
  1  9  1  0  0  0
  9 10  1  0  0  0
 10 11  1  0  0  0
 11 12  1  0  0  0
 12 13  1  0  0  0
 13 14  1  0  0  0
 14 15  2  0  0  0
 14 10  1  0  0  0
  3  7  1  0  0  0
  3  8  1  0  0  0
M  END
> <minimizedAffinity>
-5.48738

> <minimizedRMSD>
2.19302

$$$$
C76028-P273


 21 23  0  0  0  0  0  0  0  0999 V2000
    8.9678   14.7268   23.5714 C   0  0  0  0  0  0  0  0  0  0  0  0
    8.6859   13.8596   24.6308 C   0  0  0  0  0  0  0  0  0  0  0  0
    7.3710   13.6346   25.0579 C   0  0  0  0  0  0  0  0  0  0  0  0
    6.3038   14.2824   24.4397 C   0  0  0  0  0  0  0  0  0  0  0  0
    6.5428   15.1954   23.4233 C   0  0  0  0  0  0  0  0  0  0  0  0
    7.8672   15.3930   23.0105 C   0  0  0  0  0  0  0  0  0  0  0  0
   11.4136   15.2337   25.0946 O   0  0  0  0  0  0  0  0  0  0  0  0
   11.3928   15.2477   23.8612 C   0  0  0  0  0  0  0  0  0  0  0  0
   12.7069   15.5051   23.1691 C   0  0  0  0  0  0  0  0  0  0  0  0
   12.5571   16.1499   21.8135 C   0  0  0  0  0  0  0  0  0  0  0  0
   11.7888   15.1784   20.9608 C   0  0  0  0  0  0  0  0  0  0  0  0
   10.4108   14.9756   21.5605 C   0  0  0  0  0  0  0  0  0  0  0  0
   10.2981   14.9583   23.0414 N   0  0  0  0  0  0  0  0  0  0  0  0
    5.5733   15.8494   22.6833 N   0  0  0  0  0  0  0  0  0  0  0  0
    5.8159   16.6943   22.2399 H   0  0  0  0  0  0  0  0  0  0  0  0
    4.2209   15.3566   22.5268 C   0  0  0  0  0  0  0  0  0  0  0  0
    4.0032   14.7562   21.1825 C   0  0  0  0  0  0  0  0  0  0  0  0
    4.7772   13.8198   20.5357 C   0  0  0  0  0  0  0  0  0  0  0  0
    4.2426   13.6059   19.3051 O   0  0  0  0  0  0  0  0  0  0  0  0
    3.1643   14.4364   19.2724 C   0  0  0  0  0  0  0  0  0  0  0  0
    2.9786   15.1625   20.3555 N   0  0  0  0  0  0  0  0  0  0  0  0
  7  8  2  0  0  0
  8  9  1  0  0  0
  9 10  1  0  0  0
 10 11  1  0  0  0
 11 12  1  0  0  0
 12 13  1  0  0  0
 13  1  1  0  0  0
  1  2  2  0  0  0
  2  3  1  0  0  0
  3  4  2  0  0  0
  4  5  1  0  0  0
  5 14  1  0  0  0
 14 16  1  0  0  0
 16 17  1  0  0  0
 17 18  2  0  0  0
 18 19  1  0  0  0
 19 20  1  0  0  0
 20 21  2  0  0  0
  5  6  2  0  0  0
 13  8  1  0  0  0
  6  1  1  0  0  0
 21 17  1  0  0  0
 14 15  1  0  0  0
M  END
> <minimizedAffinity>
-6.49302

> <minimizedRMSD>
0.94262

$$$$
C51396-P274


 19 19  0  0  0  0  0  0  0  0999 V2000
    9.9359   13.3663   23.5291 C   0  0  0  0  0  0  0  0  0  0  0  0
    9.9543   12.6677   22.5901 O   0  0  0  0  0  0  0  0  0  0  0  0
    9.0465   13.3169   24.8018 N   0  0  0  0  0  0  0  0  0  0  0  0
    9.1757   14.0689   25.4239 H   0  0  0  0  0  0  0  0  0  0  0  0
    8.0941   12.3808   25.2074 C   0  0  0  0  0  0  0  0  0  0  0  0
    8.1983   11.0729   24.7346 C   0  0  0  0  0  0  0  0  0  0  0  0
    7.3217   10.1194   25.2165 C   0  0  0  0  0  0  0  0  0  0  0  0
    6.3300   10.3855   26.0975 N   0  0  0  0  0  0  0  0  0  0  0  0
    6.2192   11.6706   26.5078 C   0  0  0  0  0  0  0  0  0  0  0  0
    7.0714   12.6913   26.1070 C   0  0  0  0  0  0  0  0  0  0  0  0
    6.8730   14.0027   26.6281 C   0  0  0  0  0  0  0  0  0  0  0  0
    6.7317   15.0532   27.1024 N   0  0  0  0  0  0  0  0  0  0  0  0
   10.9229   14.5077   23.6990 C   0  0  0  0  0  0  0  0  0  0  0  0
    9.2008   15.8424   22.3962 C   0  0  0  0  0  0  0  0  0  0  0  0
   10.6765   15.6872   22.7561 C   0  0  0  0  0  0  0  0  0  0  0  0
   11.5658   15.7732   21.5243 C   0  0  0  0  0  0  0  0  0  0  0  0
   12.7273   16.3857   21.8240 F   0  0  0  0  0  0  0  0  0  0  0  0
   11.8019   14.5855   20.9617 F   0  0  0  0  0  0  0  0  0  0  0  0
   10.9367   16.5319   20.5968 F   0  0  0  0  0  0  0  0  0  0  0  0
 15 14  1  0  0  0
 15 13  1  0  0  0
 13  1  1  0  0  0
  1  2  2  0  0  0
  1  3  1  0  0  0
  3  5  1  0  0  0
  5  6  2  0  0  0
  6  7  1  0  0  0
  7  8  2  0  0  0
  8  9  1  0  0  0
  9 10  2  0  0  0
 10 11  1  0  0  0
 11 12  3  0  0  0
 15 16  1  0  0  0
 16 17  1  0  0  0
 16 18  1  0  0  0
 16 19  1  0  0  0
 10  5  1  0  0  0
  3  4  1  0  0  0
M  END
> <minimizedAffinity>
-5.78387

> <minimizedRMSD>
0.95379

$$$$
C51403-P274


 22 22  0  0  0  0  0  0  0  0999 V2000
    9.5970   12.7352   23.6574 C   0  0  0  0  0  0  0  0  0  0  0  0
    9.5215   11.3658   23.4535 C   0  0  0  0  0  0  0  0  0  0  0  0
    8.6228   10.6175   24.2220 C   0  0  0  0  0  0  0  0  0  0  0  0
    7.8052   11.2663   25.1403 C   0  0  0  0  0  0  0  0  0  0  0  0
    7.9359   12.6468   25.2458 C   0  0  0  0  0  0  0  0  0  0  0  0
    8.8291   13.3854   24.5446 N   0  0  0  0  0  0  0  0  0  0  0  0
    6.9105   10.5544   25.9391 N   0  0  0  0  0  0  0  0  0  0  0  0
    5.6280   11.0267   26.6904 C   0  0  0  0  0  0  0  0  0  0  0  0
    5.0892   12.0626   26.6890 O   0  0  0  0  0  0  0  0  0  0  0  0
    7.1229    9.5991   26.0460 H   0  0  0  0  0  0  0  0  0  0  0  0
    5.2000    9.8638   27.5808 C   0  0  0  0  0  0  0  0  0  0  0  0
    4.8921   10.2161   29.0509 C   0  0  0  0  0  0  0  0  0  0  0  0
    5.8978   11.1787   29.6886 C   0  0  0  0  0  0  0  0  0  0  0  0
    3.4687   10.6972   29.2845 C   0  0  0  0  0  0  0  0  0  0  0  0
    2.9582   10.1071   30.3896 F   0  0  0  0  0  0  0  0  0  0  0  0
    2.6794   10.3514   28.2400 F   0  0  0  0  0  0  0  0  0  0  0  0
    3.3725   12.0279   29.4363 F   0  0  0  0  0  0  0  0  0  0  0  0
   10.4065   13.4678   22.8221 O   0  0  0  0  0  0  0  0  0  0  0  0
   10.7324   14.7748   23.3082 C   0  0  0  0  0  0  0  0  0  0  0  0
    9.9644   15.3757   20.9829 C   0  0  0  0  0  0  0  0  0  0  0  0
   10.8173   15.8051   22.1729 C   0  0  0  0  0  0  0  0  0  0  0  0
   12.2559   16.0728   21.7413 C   0  0  0  0  0  0  0  0  0  0  0  0
 20 21  1  0  0  0
 21 22  1  0  0  0
 21 19  1  0  0  0
 19 18  1  0  0  0
 18  1  1  0  0  0
  1  2  2  0  0  0
  2  3  1  0  0  0
  3  4  2  0  0  0
  4  7  1  0  0  0
  7  8  1  0  0  0
  8  9  2  0  0  0
  8 11  1  0  0  0
 11 12  1  0  0  0
 12 13  1  0  0  0
 12 14  1  0  0  0
 14 15  1  0  0  0
 14 16  1  0  0  0
 14 17  1  0  0  0
  4  5  1  0  0  0
  5  6  2  0  0  0
  6  1  1  0  0  0
  7 10  1  0  0  0
M  END
> <minimizedAffinity>
-5.33654

> <minimizedRMSD>
1.64447

$$$$
C45982-P244


 23 26  0  0  0  0  0  0  0  0999 V2000
    8.0026   13.0793   23.0387 O   0  0  0  0  0  0  0  0  0  0  0  0
    9.1274   13.2155   23.9474 S   0  0  0  0  0  0  0  0  0  0  0  0
   10.2858   12.3494   23.8547 O   0  0  0  0  0  0  0  0  0  0  0  0
    8.5106   13.0040   25.5317 N   0  0  0  0  0  0  0  0  0  0  0  0
    7.6458   14.0993   26.0803 C   0  0  0  0  0  0  0  0  0  0  0  0
    6.7365   13.4461   27.1277 C   0  0  0  0  0  0  0  0  0  0  0  0
    6.7318   12.0301   26.6658 C   0  0  0  0  0  0  0  0  0  0  0  0
    5.8802   11.0175   27.0709 C   0  0  0  0  0  0  0  0  0  0  0  0
    6.0581    9.7545   26.5155 C   0  0  0  0  0  0  0  0  0  0  0  0
    7.0949    9.5235   25.6014 C   0  0  0  0  0  0  0  0  0  0  0  0
    7.9707   10.5402   25.2260 C   0  0  0  0  0  0  0  0  0  0  0  0
    7.7513   11.8017   25.7398 C   0  0  0  0  0  0  0  0  0  0  0  0
    9.6249   14.9480   23.9950 C   0  0  0  0  0  0  0  0  0  0  0  0
   10.8978   15.1643   24.8238 C   0  0  0  0  0  0  0  0  0  0  0  0
   12.1653   14.8343   24.0407 C   0  0  0  0  0  0  0  0  0  0  0  0
   12.1652   15.5792   22.7185 C   0  0  0  0  0  0  0  0  0  0  0  0
   10.9884   15.1605   21.9774 N   0  0  0  0  0  0  0  0  0  0  0  0
    9.7191   15.5211   22.5850 C   0  0  0  0  0  0  0  0  0  0  0  0
   11.0980   15.3854   20.6606 C   0  0  0  0  0  0  0  0  0  0  0  0
   12.1471   15.2069   19.9033 N   0  0  0  0  0  0  0  0  0  0  0  0
   11.7600   15.6587   18.6970 C   0  0  0  0  0  0  0  0  0  0  0  0
   10.5313   16.2373   18.8036 C   0  0  0  0  0  0  0  0  0  0  0  0
   10.0549   16.0152   20.0488 O   0  0  0  0  0  0  0  0  0  0  0  0
  1  2  2  0  0  0
  2  3  2  0  0  0
 13  2  1  0  0  0
 13 14  1  0  0  0
 14 15  1  0  0  0
 15 16  1  0  0  0
 16 17  1  0  0  0
 17 19  1  0  0  0
 19 20  2  0  0  0
 20 21  1  0  0  0
 21 22  2  0  0  0
 22 23  1  0  0  0
 17 18  1  0  0  0
  2  4  1  0  0  0
  4  5  1  0  0  0
  5  6  1  0  0  0
  6  7  1  0  0  0
  7  8  2  0  0  0
  8  9  1  0  0  0
  9 10  2  0  0  0
 10 11  1  0  0  0
 11 12  2  0  0  0
 18 13  1  0  0  0
 12  4  1  0  0  0
 23 19  1  0  0  0
 12  7  1  0  0  0
M  END
> <minimizedAffinity>
-7.15826

> <minimizedRMSD>
0.59276

$$$$
C98152-P58


 24 27  0  0  0  0  0  0  0  0999 V2000
   10.6394   22.1290   26.3204 N   0  0  0  0  0  0  0  0  0  0  0  0
    9.3344   22.6743   25.9150 C   0  0  0  0  0  0  0  0  0  0  0  0
    8.1552   21.9667   26.6150 C   0  0  0  0  0  0  0  0  0  0  0  0
    8.1373   22.1180   28.0776 N   0  0  0  0  0  0  0  0  0  0  0  0
    9.4825   22.4422   28.5907 C   0  0  0  0  0  0  0  0  0  0  0  0
   10.6717   21.8609   27.7763 C   0  0  0  0  0  0  0  0  0  0  0  0
    7.4262   21.0585   28.8163 C   0  0  0  0  0  0  0  0  0  0  0  0
    8.3110   19.9582   29.4138 C   0  0  0  0  0  0  0  0  0  0  0  0
    7.3750   18.9860   30.1058 C   0  0  0  0  0  0  0  0  0  0  0  0
    6.0208   18.8110   28.9751 S   0  0  0  0  0  0  0  0  0  0  0  0
    6.3088   17.6480   28.1620 O   0  0  0  0  0  0  0  0  0  0  0  0
    4.7839   18.9589   29.7128 O   0  0  0  0  0  0  0  0  0  0  0  0
    6.3329   20.3005   28.0318 C   0  0  0  0  0  0  0  0  0  0  0  0
   11.7213   23.2329   24.3328 C   0  0  0  0  0  0  0  0  0  0  0  0
   11.7929   22.9300   25.8409 C   0  0  0  0  0  0  0  0  0  0  0  0
   13.1427   22.3101   26.1563 C   0  0  0  0  0  0  0  0  0  0  0  0
   13.9031   22.5338   27.2185 N   0  0  0  0  0  0  0  0  0  0  0  0
   15.0409   21.8134   26.9611 C   0  0  0  0  0  0  0  0  0  0  0  0
   16.2117   21.6406   27.7112 C   0  0  0  0  0  0  0  0  0  0  0  0
   17.2397   20.8561   27.1652 C   0  0  0  0  0  0  0  0  0  0  0  0
   17.1061   20.2658   25.9021 C   0  0  0  0  0  0  0  0  0  0  0  0
   15.9423   20.4308   25.1416 C   0  0  0  0  0  0  0  0  0  0  0  0
   14.9428   21.2028   25.7225 C   0  0  0  0  0  0  0  0  0  0  0  0
   13.7187   21.5053   25.2022 O   0  0  0  0  0  0  0  0  0  0  0  0
 15 14  1  0  0  0
 15 16  1  0  0  0
 16 17  2  0  0  0
 17 18  1  0  0  0
 18 19  2  0  0  0
 19 20  1  0  0  0
 20 21  2  0  0  0
 21 22  1  0  0  0
 22 23  2  0  0  0
 23 24  1  0  0  0
 15  1  1  0  0  0
  1  2  1  0  0  0
  2  3  1  0  0  0
  3  4  1  0  0  0
  7  4  1  0  0  0
  7  8  1  0  0  0
  8  9  1  0  0  0
  9 10  1  0  0  0
 10 11  2  0  0  0
 10 12  2  0  0  0
 10 13  1  0  0  0
  4  5  1  0  0  0
  5  6  1  0  0  0
 24 16  1  0  0  0
  6  1  1  0  0  0
 23 18  1  0  0  0
 13  7  1  0  0  0
M  END
> <minimizedAffinity>
-3.60934

> <minimizedRMSD>
0.41006

$$$$
C45884-P374


 25 28  0  0  0  0  0  0  0  0999 V2000
   26.6889   21.1346   20.1714 C   0  0  0  0  0  0  0  0  0  0  0  0
   26.1545   22.2732   19.6287 C   0  0  0  0  0  0  0  0  0  0  0  0
   27.0543   23.2466   19.2524 C   0  0  0  0  0  0  0  0  0  0  0  0
   28.3770   23.0939   19.4426 N   0  0  0  0  0  0  0  0  0  0  0  0
   28.8062   21.9485   19.9913 C   0  0  0  0  0  0  0  0  0  0  0  0
   28.0043   20.9362   20.3344 N   0  0  0  0  0  0  0  0  0  0  0  0
   26.5851   24.4528   18.6884 N   0  0  0  0  0  0  0  0  0  0  0  0
   27.4127   25.3624   17.9418 C   0  0  0  0  0  0  0  0  0  0  0  0
   26.1062   25.9442   17.3469 C   0  0  0  0  0  0  0  0  0  0  0  0
   26.1831   26.1946   15.8341 C   0  0  0  0  0  0  0  0  0  0  0  0
   25.0617   27.1427   15.4261 C   0  0  0  0  0  0  0  0  0  0  0  0
   25.2032   28.4921   16.1424 C   0  0  0  0  0  0  0  0  0  0  0  0
   25.8204   28.3950   17.4687 N   0  0  0  0  0  0  0  0  0  0  0  0
   25.5079   27.1277   18.1287 C   0  0  0  0  0  0  0  0  0  0  0  0
   25.4968   24.5788   17.7614 C   0  0  0  0  0  0  0  0  0  0  0  0
   25.4773   29.1611   18.0482 H   0  0  0  0  0  0  0  0  0  0  0  0
   30.1669   21.8851   20.2340 N   0  0  0  0  0  0  0  0  0  0  0  0
   30.6232   22.5663   20.7790 H   0  0  0  0  0  0  0  0  0  0  0  0
   30.8952   20.7681   19.6493 C   0  0  0  0  0  0  0  0  0  0  0  0
   32.3057   20.7172   20.2609 C   0  0  0  0  0  0  0  0  0  0  0  0
   33.3576   21.4041   19.3867 C   0  0  0  0  0  0  0  0  0  0  0  0
   32.7788   22.5805   18.6058 C   0  0  0  0  0  0  0  0  0  0  0  0
   31.6484   22.2225   17.7436 N   0  0  0  0  0  0  0  0  0  0  0  0
   30.9946   20.9548   18.1220 C   0  0  0  0  0  0  0  0  0  0  0  0
   31.9880   22.1367   16.7856 H   0  0  0  0  0  0  0  0  0  0  0  0
  1  2  2  0  0  0
  2  3  1  0  0  0
  3  7  1  0  0  0
  7  8  1  0  0  0
  8  9  1  0  0  0
  9 10  1  0  0  0
 10 11  1  0  0  0
 11 12  1  0  0  0
 12 13  1  0  0  0
 13 14  1  0  0  0
  9 15  1  0  0  0
  3  4  2  0  0  0
  4  5  1  0  0  0
  5 17  1  0  0  0
 19 17  1  0  0  0
 19 20  1  0  0  0
 20 21  1  0  0  0
 21 22  1  0  0  0
 22 23  1  0  0  0
 23 24  1  0  0  0
  5  6  2  0  0  0
  6  1  1  0  0  0
 15  7  1  0  0  0
 24 19  1  0  0  0
 14  9  1  0  0  0
 13 16  1  0  0  0
 17 18  1  0  0  0
 23 25  1  0  0  0
M  END
> <minimizedAffinity>
-2.71763

> <minimizedRMSD>
4.53394

$$$$
C51427-P384


 25 27  0  0  0  0  0  0  0  0999 V2000
    5.7196   14.9330   23.6752 N   0  0  0  0  0  0  0  0  0  0  0  0
    6.9673   14.1946   23.1885 C   0  0  0  0  0  0  0  0  0  0  0  0
    7.0903   13.3857   22.3634 O   0  0  0  0  0  0  0  0  0  0  0  0
    5.8911   15.6362   24.3425 H   0  0  0  0  0  0  0  0  0  0  0  0
    8.1246   14.5501   24.0002 C   0  0  0  0  0  0  0  0  0  0  0  0
    8.6991   15.7991   24.0102 N   0  0  0  0  0  0  0  0  0  0  0  0
    9.7328   15.6593   24.8046 C   0  0  0  0  0  0  0  0  0  0  0  0
    9.8236   14.4540   25.4216 O   0  0  0  0  0  0  0  0  0  0  0  0
    8.8039   13.7167   24.8785 C   0  0  0  0  0  0  0  0  0  0  0  0
    8.7564   12.2948   25.3396 C   0  0  0  0  0  0  0  0  0  0  0  0
    9.8769   11.4872   24.6632 C   0  0  0  0  0  0  0  0  0  0  0  0
    9.3081   10.3834   23.7972 C   0  0  0  0  0  0  0  0  0  0  0  0
    8.3678    9.4834   24.5796 C   0  0  0  0  0  0  0  0  0  0  0  0
    7.4162   10.1816   25.4485 N   0  0  0  0  0  0  0  0  0  0  0  0
    7.3715   11.6263   25.2239 C   0  0  0  0  0  0  0  0  0  0  0  0
    7.6822   10.0138   26.4188 H   0  0  0  0  0  0  0  0  0  0  0  0
    4.3221   14.7658   23.3133 C   0  0  0  0  0  0  0  0  0  0  0  0
    4.0172   14.8595   21.8183 C   0  0  0  0  0  0  0  0  0  0  0  0
    4.5620   13.9082   20.9446 C   0  0  0  0  0  0  0  0  0  0  0  0
    4.1331   13.8261   19.6246 C   0  0  0  0  0  0  0  0  0  0  0  0
    3.1541   14.7007   19.2065 C   0  0  0  0  0  0  0  0  0  0  0  0
    2.6897   15.6502   20.1062 C   0  0  0  0  0  0  0  0  0  0  0  0
    3.1085   15.7715   21.3905 N   0  0  0  0  0  0  0  0  0  0  0  0
    4.1485   16.6364   25.0399 C   0  0  0  0  0  0  0  0  0  0  0  0
    3.3929   15.6078   24.2044 C   0  0  0  0  0  0  0  0  0  0  0  0
 24 25  1  0  0  0
 17 25  1  0  0  0
 17  1  1  0  0  0
  1  2  1  0  0  0
  2  3  2  0  0  0
  2  5  1  0  0  0
  5  6  1  0  0  0
  6  7  2  0  0  0
  7  8  1  0  0  0
  8  9  1  0  0  0
 10  9  1  0  0  0
 10 11  1  0  0  0
 11 12  1  0  0  0
 12 13  1  0  0  0
 13 14  1  0  0  0
 14 15  1  0  0  0
 17 18  1  0  0  0
 18 19  2  0  0  0
 19 20  1  0  0  0
 20 21  2  0  0  0
 21 22  1  0  0  0
 22 23  2  0  0  0
  9  5  2  0  0  0
 15 10  1  0  0  0
 23 18  1  0  0  0
  1  4  1  0  0  0
 14 16  1  0  0  0
M  END
> <minimizedAffinity>
-5.89367

> <minimizedRMSD>
0.86199

$$$$
C48037-P492


 22 23  0  0  0  0  0  0  0  0999 V2000
    7.6265   12.3865   25.2497 C   0  0  0  0  0  0  0  0  0  0  0  0
    6.4728   12.9608   25.7601 C   0  0  0  0  0  0  0  0  0  0  0  0
    5.4689   12.1555   26.2965 C   0  0  0  0  0  0  0  0  0  0  0  0
    5.6171   10.7665   26.3602 C   0  0  0  0  0  0  0  0  0  0  0  0
    6.7714   10.1995   25.7951 C   0  0  0  0  0  0  0  0  0  0  0  0
    7.7767   11.0013   25.2490 C   0  0  0  0  0  0  0  0  0  0  0  0
    8.6803   13.2722   24.8549 N   0  0  0  0  0  0  0  0  0  0  0  0
    9.2407   13.7577   25.5027 H   0  0  0  0  0  0  0  0  0  0  0  0
    8.8801   13.4134   23.1848 S   0  0  0  0  0  0  0  0  0  0  0  0
    7.5777   13.3683   22.5535 O   0  0  0  0  0  0  0  0  0  0  0  0
    9.9043   12.4442   22.8731 O   0  0  0  0  0  0  0  0  0  0  0  0
    9.5151   15.0734   23.0166 C   0  0  0  0  0  0  0  0  0  0  0  0
   11.8760   15.6718   22.2984 C   0  0  0  0  0  0  0  0  0  0  0  0
   10.9672   15.2413   23.4376 C   0  0  0  0  0  0  0  0  0  0  0  0
    4.6012    9.8626   27.0348 C   0  0  0  0  0  0  0  0  0  0  0  0
    3.4467   10.5473   27.8011 C   0  0  0  0  0  0  0  0  0  0  0  0
    2.8606    9.8312   28.9507 N   0  0  0  0  0  0  0  0  0  0  0  0
    2.1575    8.6017   28.5630 C   0  0  0  0  0  0  0  0  0  0  0  0
    1.4195    8.0024   29.7620 C   0  0  0  0  0  0  0  0  0  0  0  0
    2.3652    7.7546   30.9323 C   0  0  0  0  0  0  0  0  0  0  0  0
    3.1716    9.0075   31.2508 C   0  0  0  0  0  0  0  0  0  0  0  0
    3.8521    9.5625   29.9986 C   0  0  0  0  0  0  0  0  0  0  0  0
 13 14  1  0  0  0
 14 12  1  0  0  0
 12  9  1  0  0  0
  9 10  2  0  0  0
  9 11  2  0  0  0
  9  7  1  0  0  0
  7  1  1  0  0  0
  1  2  2  0  0  0
  2  3  1  0  0  0
  3  4  2  0  0  0
  4 15  1  0  0  0
 15 16  1  0  0  0
 16 17  1  0  0  0
 17 18  1  0  0  0
 18 19  1  0  0  0
 19 20  1  0  0  0
 20 21  1  0  0  0
 21 22  1  0  0  0
  4  5  1  0  0  0
  5  6  2  0  0  0
  6  1  1  0  0  0
 22 17  1  0  0  0
  7  8  1  0  0  0
M  END
> <minimizedAffinity>
-5.12027

> <minimizedRMSD>
0.52094

$$$$
C99430-P339


 21 23  0  0  0  0  0  0  0  0999 V2000
    7.3919   14.8098   25.1121 O   0  0  0  0  0  0  0  0  0  0  0  0
    8.5172   15.0964   24.7072 C   0  0  0  0  0  0  0  0  0  0  0  0
    9.4608   15.7867   25.6319 C   0  0  0  0  0  0  0  0  0  0  0  0
   10.6978   15.2100   25.9517 C   0  0  0  0  0  0  0  0  0  0  0  0
   11.6032   15.8452   26.8102 C   0  0  0  0  0  0  0  0  0  0  0  0
   11.1930   17.0564   27.3644 C   0  0  0  0  0  0  0  0  0  0  0  0
   11.8047   17.9255   28.2325 N   0  0  0  0  0  0  0  0  0  0  0  0
   10.9328   18.9380   28.5061 C   0  0  0  0  0  0  0  0  0  0  0  0
    9.7992   18.7786   27.8645 N   0  0  0  0  0  0  0  0  0  0  0  0
    9.9498   17.6310   27.1183 C   0  0  0  0  0  0  0  0  0  0  0  0
    9.0660   16.9988   26.2248 C   0  0  0  0  0  0  0  0  0  0  0  0
   12.7155   17.8341   28.5951 H   0  0  0  0  0  0  0  0  0  0  0  0
    8.9708   14.7212   23.3053 C   0  0  0  0  0  0  0  0  0  0  0  0
    8.7901   15.8536   22.2901 C   0  0  0  0  0  0  0  0  0  0  0  0
   10.0027   16.6419   22.0370 N   0  0  0  0  0  0  0  0  0  0  0  0
   11.2608   15.9404   22.3463 C   0  0  0  0  0  0  0  0  0  0  0  0
   11.7162   14.8952   21.3127 C   0  0  0  0  0  0  0  0  0  0  0  0
   11.7916   15.4272   19.9543 N   0  0  0  0  0  0  0  0  0  0  0  0
   10.5031   16.0417   19.5971 C   0  0  0  0  0  0  0  0  0  0  0  0
   10.0501   17.1075   20.6237 C   0  0  0  0  0  0  0  0  0  0  0  0
   11.9994   14.6699   19.3035 H   0  0  0  0  0  0  0  0  0  0  0  0
  1  2  2  0  0  0
  2 13  1  0  0  0
 13 14  1  0  0  0
 14 15  1  0  0  0
 15 16  1  0  0  0
 16 17  1  0  0  0
 17 18  1  0  0  0
 18 19  1  0  0  0
 19 20  1  0  0  0
  2  3  1  0  0  0
  3  4  2  0  0  0
  4  5  1  0  0  0
  5  6  2  0  0  0
  6  7  1  0  0  0
  7  8  1  0  0  0
  8  9  2  0  0  0
  9 10  1  0  0  0
 10 11  2  0  0  0
 20 15  1  0  0  0
 11  3  1  0  0  0
 10  6  1  0  0  0
 18 21  1  0  0  0
  7 12  1  0  0  0
M  END
> <minimizedAffinity>
-4.99285

> <minimizedRMSD>
2.24874

$$$$
C51749-P174


 23 24  0  0  0  0  0  0  0  0999 V2000
    9.2889   13.8394   24.7420 O   0  0  0  0  0  0  0  0  0  0  0  0
    9.4360   13.1986   23.7773 C   0  0  0  0  0  0  0  0  0  0  0  0
   10.0129   13.5855   22.3951 N   0  0  0  0  0  0  0  0  0  0  0  0
   10.1030   12.8371   21.7618 H   0  0  0  0  0  0  0  0  0  0  0  0
    8.9908   11.7606   23.8590 C   0  0  0  0  0  0  0  0  0  0  0  0
    9.6693   10.7303   23.2245 C   0  0  0  0  0  0  0  0  0  0  0  0
    9.2063    9.4363   23.3597 C   0  0  0  0  0  0  0  0  0  0  0  0
    8.1159    9.1286   24.0763 N   0  0  0  0  0  0  0  0  0  0  0  0
    7.4572   10.1182   24.7045 C   0  0  0  0  0  0  0  0  0  0  0  0
    7.8638   11.4428   24.6289 C   0  0  0  0  0  0  0  0  0  0  0  0
    6.3536    9.6361   25.3197 O   0  0  0  0  0  0  0  0  0  0  0  0
    5.9306   10.3208   26.4673 C   0  0  0  0  0  0  0  0  0  0  0  0
    5.4764   11.5537   26.1834 F   0  0  0  0  0  0  0  0  0  0  0  0
    4.9145    9.6279   27.0314 F   0  0  0  0  0  0  0  0  0  0  0  0
    6.9207   10.4273   27.3739 F   0  0  0  0  0  0  0  0  0  0  0  0
   10.4423   14.8703   21.8807 C   0  0  0  0  0  0  0  0  0  0  0  0
   11.9523   14.9048   21.5894 C   0  0  0  0  0  0  0  0  0  0  0  0
   12.3452   16.1312   20.8726 N   0  0  0  0  0  0  0  0  0  0  0  0
   13.5954   16.6770   21.3929 C   0  0  0  0  0  0  0  0  0  0  0  0
   13.9131   18.0433   20.7773 C   0  0  0  0  0  0  0  0  0  0  0  0
   13.8021   18.0297   19.2597 C   0  0  0  0  0  0  0  0  0  0  0  0
   13.6278   16.6111   18.7479 C   0  0  0  0  0  0  0  0  0  0  0  0
   12.4248   15.9180   19.4097 C   0  0  0  0  0  0  0  0  0  0  0  0
  1  2  2  0  0  0
  2  3  1  0  0  0
  3 16  1  0  0  0
 16 17  1  0  0  0
 17 18  1  0  0  0
 18 19  1  0  0  0
 19 20  1  0  0  0
 20 21  1  0  0  0
 21 22  1  0  0  0
 22 23  1  0  0  0
  2  5  1  0  0  0
  5  6  2  0  0  0
  6  7  1  0  0  0
  7  8  2  0  0  0
  8  9  1  0  0  0
  9 11  1  0  0  0
 11 12  1  0  0  0
 12 13  1  0  0  0
 12 14  1  0  0  0
 12 15  1  0  0  0
  9 10  2  0  0  0
 23 18  1  0  0  0
 10  5  1  0  0  0
  3  4  1  0  0  0
M  END
> <minimizedAffinity>
-7.21476

> <minimizedRMSD>
0.48939

$$$$
C45982-P401


 23 26  0  0  0  0  0  0  0  0999 V2000
    7.1740   13.2785   22.6212 O   0  0  0  0  0  0  0  0  0  0  0  0
    7.3450   13.9339   23.9034 S   0  0  0  0  0  0  0  0  0  0  0  0
    6.1745   14.3586   24.6505 O   0  0  0  0  0  0  0  0  0  0  0  0
    8.2636   12.8805   24.9066 N   0  0  0  0  0  0  0  0  0  0  0  0
    8.8297   11.6720   24.1936 C   0  0  0  0  0  0  0  0  0  0  0  0
    8.0719   10.4423   24.7075 C   0  0  0  0  0  0  0  0  0  0  0  0
    7.3688   10.9820   25.9045 C   0  0  0  0  0  0  0  0  0  0  0  0
    6.5735   10.3056   26.8037 C   0  0  0  0  0  0  0  0  0  0  0  0
    6.0116   10.9985   27.8775 C   0  0  0  0  0  0  0  0  0  0  0  0
    6.2452   12.3651   28.0327 C   0  0  0  0  0  0  0  0  0  0  0  0
    6.9984   13.0573   27.0852 C   0  0  0  0  0  0  0  0  0  0  0  0
    7.5264   12.3528   26.0166 C   0  0  0  0  0  0  0  0  0  0  0  0
    8.3541   15.4174   23.7955 C   0  0  0  0  0  0  0  0  0  0  0  0
    9.4023   15.6268   24.8961 C   0  0  0  0  0  0  0  0  0  0  0  0
   10.7969   15.1159   24.5509 C   0  0  0  0  0  0  0  0  0  0  0  0
   11.2033   15.5179   23.1488 C   0  0  0  0  0  0  0  0  0  0  0  0
   10.1907   15.0410   22.2062 N   0  0  0  0  0  0  0  0  0  0  0  0
    8.8730   15.6588   22.3945 C   0  0  0  0  0  0  0  0  0  0  0  0
   10.6399   15.2297   20.9500 C   0  0  0  0  0  0  0  0  0  0  0  0
    9.9670   15.6918   19.9290 N   0  0  0  0  0  0  0  0  0  0  0  0
   10.9381   15.8660   19.0012 C   0  0  0  0  0  0  0  0  0  0  0  0
   12.1402   15.4216   19.4577 C   0  0  0  0  0  0  0  0  0  0  0  0
   11.9683   15.0757   20.7467 O   0  0  0  0  0  0  0  0  0  0  0  0
  1  2  2  0  0  0
  2  3  2  0  0  0
 13  2  1  0  0  0
 13 14  1  0  0  0
 14 15  1  0  0  0
 15 16  1  0  0  0
 16 17  1  0  0  0
 17 19  1  0  0  0
 19 20  2  0  0  0
 20 21  1  0  0  0
 21 22  2  0  0  0
 22 23  1  0  0  0
 17 18  1  0  0  0
  2  4  1  0  0  0
  4  5  1  0  0  0
  5  6  1  0  0  0
  6  7  1  0  0  0
  7  8  2  0  0  0
  8  9  1  0  0  0
  9 10  2  0  0  0
 10 11  1  0  0  0
 11 12  2  0  0  0
 18 13  1  0  0  0
 12  4  1  0  0  0
 23 19  1  0  0  0
 12  7  1  0  0  0
M  END
> <minimizedAffinity>
-7.24195

> <minimizedRMSD>
1.01751

$$$$
C78052-P22


 24 25  0  0  0  0  0  0  0  0999 V2000
   11.1896   15.3480   21.7366 C   0  0  0  0  0  0  0  0  0  0  0  0
   12.4281   15.7311   22.5534 C   0  0  0  0  0  0  0  0  0  0  0  0
   12.9734   16.9473   21.8511 C   0  0  0  0  0  0  0  0  0  0  0  0
   12.6971   16.6893   20.4704 N   0  0  0  0  0  0  0  0  0  0  0  0
   11.5267   15.9316   20.3566 C   0  0  0  0  0  0  0  0  0  0  0  0
   10.8476   15.7896   19.3509 O   0  0  0  0  0  0  0  0  0  0  0  0
   13.5751   17.2345   19.4117 C   0  0  0  0  0  0  0  0  0  0  0  0
   13.1134   18.5638   18.8879 C   0  0  0  0  0  0  0  0  0  0  0  0
   13.9852   19.1680   17.7957 C   0  0  0  0  0  0  0  0  0  0  0  0
   14.1485   18.2839   16.6637 N   0  0  0  0  0  0  0  0  0  0  0  0
   14.6039   16.9901   17.1402 C   0  0  0  0  0  0  0  0  0  0  0  0
   13.6427   16.3520   18.1591 C   0  0  0  0  0  0  0  0  0  0  0  0
   14.8377   18.6741   16.0210 H   0  0  0  0  0  0  0  0  0  0  0  0
    9.9322   15.8877   22.3023 N   0  0  0  0  0  0  0  0  0  0  0  0
   10.1169   16.8498   22.5863 H   0  0  0  0  0  0  0  0  0  0  0  0
    9.2591   15.1083   23.6094 S   0  0  0  0  0  0  0  0  0  0  0  0
   10.3170   14.8586   24.5558 O   0  0  0  0  0  0  0  0  0  0  0  0
    8.0825   15.8511   23.9985 O   0  0  0  0  0  0  0  0  0  0  0  0
    8.6669   13.5548   22.9737 C   0  0  0  0  0  0  0  0  0  0  0  0
    7.7831   12.8547   24.0111 C   0  0  0  0  0  0  0  0  0  0  0  0
    8.5470   11.8655   24.8866 C   0  0  0  0  0  0  0  0  0  0  0  0
    8.7565   10.6652   24.1677 O   0  0  0  0  0  0  0  0  0  0  0  0
   10.2372    9.1646   22.9718 C   0  0  0  0  0  0  0  0  0  0  0  0
   10.0108   10.5314   23.5207 C   0  0  0  0  0  0  0  0  0  0  0  0
 23 24  1  0  0  0
 24 22  1  0  0  0
 22 21  1  0  0  0
 21 20  1  0  0  0
 20 19  1  0  0  0
 19 16  1  0  0  0
 16 17  2  0  0  0
 16 18  2  0  0  0
 16 14  1  0  0  0
  1 14  1  0  0  0
  1  2  1  0  0  0
  2  3  1  0  0  0
  3  4  1  0  0  0
  4  7  1  0  0  0
  7  8  1  0  0  0
  8  9  1  0  0  0
  9 10  1  0  0  0
 10 11  1  0  0  0
 11 12  1  0  0  0
  4  5  1  0  0  0
  5  6  2  0  0  0
  5  1  1  0  0  0
 12  7  1  0  0  0
 14 15  1  0  0  0
 10 13  1  0  0  0
M  END
> <minimizedAffinity>
-5.24170

> <minimizedRMSD>
1.45708

$$$$
C12359-P239


 14 14  0  0  0  0  0  0  0  0999 V2000
    9.5149   12.5194   23.7835 N   0  0  0  0  0  0  0  0  0  0  0  0
   10.4891   12.3863   23.8342 H   0  0  0  0  0  0  0  0  0  0  0  0
    8.6380   11.6394   24.5091 C   0  0  0  0  0  0  0  0  0  0  0  0
    7.7775   12.1034   25.5033 C   0  0  0  0  0  0  0  0  0  0  0  0
    6.9402   11.2336   26.1955 C   0  0  0  0  0  0  0  0  0  0  0  0
    7.0153    9.8945   25.8940 C   0  0  0  0  0  0  0  0  0  0  0  0
    7.8801    9.3846   24.9947 N   0  0  0  0  0  0  0  0  0  0  0  0
    8.6655   10.2643   24.3148 C   0  0  0  0  0  0  0  0  0  0  0  0
    8.8880   13.7853   22.8402 S   0  0  0  0  0  0  0  0  0  0  0  0
    9.8981   14.0635   21.8435 O   0  0  0  0  0  0  0  0  0  0  0  0
    7.5528   13.4079   22.4346 O   0  0  0  0  0  0  0  0  0  0  0  0
    8.8356   15.1859   23.9539 C   0  0  0  0  0  0  0  0  0  0  0  0
    9.9180   15.1626   26.2289 C   0  0  0  0  0  0  0  0  0  0  0  0
   10.1343   15.3497   24.7380 C   0  0  0  0  0  0  0  0  0  0  0  0
 13 14  1  0  0  0
 14 12  1  0  0  0
 12  9  1  0  0  0
  9 10  2  0  0  0
  9 11  2  0  0  0
  9  1  1  0  0  0
  1  3  1  0  0  0
  3  4  2  0  0  0
  4  5  1  0  0  0
  5  6  2  0  0  0
  6  7  1  0  0  0
  7  8  2  0  0  0
  8  3  1  0  0  0
  1  2  1  0  0  0
M  END
> <minimizedAffinity>
-4.54260

> <minimizedRMSD>
1.29005

$$$$
C69744-P182


 16 18  0  0  0  0  0  0  0  0999 V2000
   10.1535   13.1890   24.0386 C   0  0  0  0  0  0  0  0  0  0  0  0
   11.4620   13.1263   24.1720 N   0  0  0  0  0  0  0  0  0  0  0  0
   11.9148   13.8932   23.1199 C   0  0  0  0  0  0  0  0  0  0  0  0
   10.8585   14.4295   22.4287 C   0  0  0  0  0  0  0  0  0  0  0  0
    9.7229   14.0750   23.1107 O   0  0  0  0  0  0  0  0  0  0  0  0
    7.0518   10.7885   25.6447 C   0  0  0  0  0  0  0  0  0  0  0  0
    7.1308   12.1340   25.9928 C   0  0  0  0  0  0  0  0  0  0  0  0
    8.1446   12.9297   25.4629 C   0  0  0  0  0  0  0  0  0  0  0  0
    9.0939   12.3773   24.5945 C   0  0  0  0  0  0  0  0  0  0  0  0
    8.9776   11.0381   24.2115 C   0  0  0  0  0  0  0  0  0  0  0  0
    7.9643   10.2465   24.7418 C   0  0  0  0  0  0  0  0  0  0  0  0
   10.7713   15.1238   21.2009 C   0  0  0  0  0  0  0  0  0  0  0  0
   11.4617   14.7789   20.1332 N   0  0  0  0  0  0  0  0  0  0  0  0
   10.7110   15.2760   19.1143 C   0  0  0  0  0  0  0  0  0  0  0  0
    9.6930   16.0558   19.5809 C   0  0  0  0  0  0  0  0  0  0  0  0
    9.7236   15.9533   20.9228 O   0  0  0  0  0  0  0  0  0  0  0  0
  6  7  2  0  0  0
  7  8  1  0  0  0
  8  9  2  0  0  0
  9  1  1  0  0  0
  1  2  2  0  0  0
  2  3  1  0  0  0
  3  4  2  0  0  0
  4 12  1  0  0  0
 12 13  2  0  0  0
 13 14  1  0  0  0
 14 15  2  0  0  0
 15 16  1  0  0  0
  4  5  1  0  0  0
  9 10  1  0  0  0
 10 11  2  0  0  0
 11  6  1  0  0  0
  5  1  1  0  0  0
 16 12  1  0  0  0
M  END
> <minimizedAffinity>
-6.20302

> <minimizedRMSD>
0.63559

$$$$
C35464-P248


 23 24  0  0  0  0  0  0  0  0999 V2000
    8.5822   12.1428   24.7476 C   0  0  0  0  0  0  0  0  0  0  0  0
    8.1002   10.7165   24.4975 C   0  0  0  0  0  0  0  0  0  0  0  0
    6.9415   10.5694   25.4137 C   0  0  0  0  0  0  0  0  0  0  0  0
    6.4053    9.4939   25.6030 O   0  0  0  0  0  0  0  0  0  0  0  0
    6.6123   11.8232   25.9203 N   0  0  0  0  0  0  0  0  0  0  0  0
    7.3330   12.8527   25.2124 C   0  0  0  0  0  0  0  0  0  0  0  0
    5.6649   12.0303   26.9094 C   0  0  0  0  0  0  0  0  0  0  0  0
    4.5116   12.8477   26.8788 C   0  0  0  0  0  0  0  0  0  0  0  0
    3.8429   12.8410   28.0367 N   0  0  0  0  0  0  0  0  0  0  0  0
    4.5746   12.0294   28.8159 N   0  0  0  0  0  0  0  0  0  0  0  0
    5.6612   11.5067   28.1820 C   0  0  0  0  0  0  0  0  0  0  0  0
    4.3483   11.8313   29.7534 H   0  0  0  0  0  0  0  0  0  0  0  0
    9.7790   11.8210   22.7970 O   0  0  0  0  0  0  0  0  0  0  0  0
    9.2770   12.6026   23.4939 C   0  0  0  0  0  0  0  0  0  0  0  0
    9.2507   14.1316   23.4143 N   0  0  0  0  0  0  0  0  0  0  0  0
    8.6858   14.5698   24.0912 H   0  0  0  0  0  0  0  0  0  0  0  0
    9.9153   15.0296   22.5139 C   0  0  0  0  0  0  0  0  0  0  0  0
   11.4154   15.1639   22.8432 C   0  0  0  0  0  0  0  0  0  0  0  0
   12.0070   13.9110   23.2105 O   0  0  0  0  0  0  0  0  0  0  0  0
   11.9440   13.2929   22.4656 H   0  0  0  0  0  0  0  0  0  0  0  0
   12.1526   15.7297   21.6415 C   0  0  0  0  0  0  0  0  0  0  0  0
   12.0021   14.8496   20.5395 O   0  0  0  0  0  0  0  0  0  0  0  0
   12.3700   13.9813   20.7665 H   0  0  0  0  0  0  0  0  0  0  0  0
 13 14  2  0  0  0
 14 15  1  0  0  0
 15 17  1  0  0  0
 17 18  1  0  0  0
 18 19  1  0  0  0
 18 21  1  0  0  0
 21 22  1  0  0  0
  1 14  1  0  0  0
  1  2  1  0  0  0
  2  3  1  0  0  0
  3  4  2  0  0  0
  3  5  1  0  0  0
  5  7  1  0  0  0
  7  8  1  0  0  0
  8  9  2  0  0  0
  9 10  1  0  0  0
 10 11  1  0  0  0
  5  6  1  0  0  0
  6  1  1  0  0  0
 11  7  2  0  0  0
 15 16  1  0  0  0
 19 20  1  0  0  0
 22 23  1  0  0  0
 10 12  1  0  0  0
M  END
> <minimizedAffinity>
-5.62240

> <minimizedRMSD>
0.39956

$$$$
C35473-P248


 22 24  0  0  0  0  0  0  0  0999 V2000
    8.7542   12.2261   24.8123 C   0  0  0  0  0  0  0  0  0  0  0  0
    8.3108   10.8231   24.4212 C   0  0  0  0  0  0  0  0  0  0  0  0
    7.1142   10.5666   25.2709 C   0  0  0  0  0  0  0  0  0  0  0  0
    6.5935    9.4672   25.3329 O   0  0  0  0  0  0  0  0  0  0  0  0
    6.7426   11.7614   25.8861 N   0  0  0  0  0  0  0  0  0  0  0  0
    7.4952   12.8682   25.3465 C   0  0  0  0  0  0  0  0  0  0  0  0
    5.7058   11.8757   26.7989 C   0  0  0  0  0  0  0  0  0  0  0  0
    4.6227   12.7862   26.8002 C   0  0  0  0  0  0  0  0  0  0  0  0
    3.8184   12.6331   27.8574 N   0  0  0  0  0  0  0  0  0  0  0  0
    4.3951   11.6364   28.5469 N   0  0  0  0  0  0  0  0  0  0  0  0
    5.5107   11.1389   27.9435 C   0  0  0  0  0  0  0  0  0  0  0  0
    4.0467   11.2985   29.4035 H   0  0  0  0  0  0  0  0  0  0  0  0
    9.6389   12.2414   22.6234 O   0  0  0  0  0  0  0  0  0  0  0  0
    9.3346   12.8883   23.6127 C   0  0  0  0  0  0  0  0  0  0  0  0
    9.5322   14.2172   23.7692 O   0  0  0  0  0  0  0  0  0  0  0  0
    9.1086   14.9852   22.6236 C   0  0  0  0  0  0  0  0  0  0  0  0
   10.1611   15.1247   21.5845 C   0  0  0  0  0  0  0  0  0  0  0  0
    9.9419   15.2460   20.1957 C   0  0  0  0  0  0  0  0  0  0  0  0
   11.0796   15.3460   19.5176 N   0  0  0  0  0  0  0  0  0  0  0  0
   12.0288   15.2320   20.4432 N   0  0  0  0  0  0  0  0  0  0  0  0
   11.5413   15.1137   21.7093 C   0  0  0  0  0  0  0  0  0  0  0  0
   12.9906   15.2331   20.2330 H   0  0  0  0  0  0  0  0  0  0  0  0
 13 14  2  0  0  0
 14 15  1  0  0  0
 15 16  1  0  0  0
 16 17  1  0  0  0
 17 18  1  0  0  0
 18 19  2  0  0  0
 19 20  1  0  0  0
 20 21  1  0  0  0
  1 14  1  0  0  0
  1  2  1  0  0  0
  2  3  1  0  0  0
  3  4  2  0  0  0
  3  5  1  0  0  0
  5  7  1  0  0  0
  7  8  1  0  0  0
  8  9  2  0  0  0
  9 10  1  0  0  0
 10 11  1  0  0  0
  5  6  1  0  0  0
 21 17  2  0  0  0
  6  1  1  0  0  0
 11  7  2  0  0  0
 20 22  1  0  0  0
 10 12  1  0  0  0
M  END
> <minimizedAffinity>
-5.91664

> <minimizedRMSD>
0.85732

$$$$
C54505-P214


 20 21  0  0  0  0  0  0  0  0999 V2000
    6.3819   13.9104   22.0458 O   0  0  0  0  0  0  0  0  0  0  0  0
    7.2024   14.3063   22.7741 C   0  0  0  0  0  0  0  0  0  0  0  0
    8.6220   14.8577   22.4831 N   0  0  0  0  0  0  0  0  0  0  0  0
    9.0994   15.2040   23.2713 H   0  0  0  0  0  0  0  0  0  0  0  0
    7.1212   14.2878   24.3286 C   0  0  0  0  0  0  0  0  0  0  0  0
    7.0264   12.9679   24.9789 N   0  0  0  0  0  0  0  0  0  0  0  0
    5.6564   12.6615   25.3910 C   0  0  0  0  0  0  0  0  0  0  0  0
    5.6565   11.4255   26.2862 C   0  0  0  0  0  0  0  0  0  0  0  0
    6.2689   10.2193   25.5923 C   0  0  0  0  0  0  0  0  0  0  0  0
    7.5731   10.5507   24.8880 C   0  0  0  0  0  0  0  0  0  0  0  0
    7.5887   11.8860   24.1664 C   0  0  0  0  0  0  0  0  0  0  0  0
    9.3531   14.9452   21.2512 C   0  0  0  0  0  0  0  0  0  0  0  0
   10.8270   15.2168   21.5598 C   0  0  0  0  0  0  0  0  0  0  0  0
   11.0463   16.2295   22.7199 C   0  0  0  0  0  0  0  0  0  0  0  0
   12.1018   15.2891   23.3095 C   0  0  0  0  0  0  0  0  0  0  0  0
   11.5922   14.1569   22.4154 C   0  0  0  0  0  0  0  0  0  0  0  0
   11.6505   15.5555   20.3066 C   0  0  0  0  0  0  0  0  0  0  0  0
   10.7996   16.0463   19.1625 C   0  0  0  0  0  0  0  0  0  0  0  0
   11.5833   16.0068   17.9905 O   0  0  0  0  0  0  0  0  0  0  0  0
   12.3648   16.5698   18.1051 H   0  0  0  0  0  0  0  0  0  0  0  0
  1  2  2  0  0  0
  2  5  1  0  0  0
  5  6  1  0  0  0
  6  7  1  0  0  0
  7  8  1  0  0  0
  8  9  1  0  0  0
  9 10  1  0  0  0
 10 11  1  0  0  0
  2  3  1  0  0  0
  3 12  1  0  0  0
 12 13  1  0  0  0
 13 17  1  0  0  0
 17 18  1  0  0  0
 18 19  1  0  0  0
 13 14  1  0  0  0
 14 15  1  0  0  0
 15 16  1  0  0  0
 11  6  1  0  0  0
 16 13  1  0  0  0
  3  4  1  0  0  0
 19 20  1  0  0  0
M  END
> <minimizedAffinity>
-5.81603

> <minimizedRMSD>
0.57394

$$$$
C101512-P38


 17 18  0  0  0  0  0  0  0  0999 V2000
   14.5035   12.3820   -0.4308 N   0  0  0  0  0  0  0  0  0  0  0  0
   14.0318   13.1846   -0.8475 H   0  0  0  0  0  0  0  0  0  0  0  0
   11.4498   11.4745   -0.5933 O   0  0  0  0  0  0  0  0  0  0  0  0
   12.5842   10.6797   -0.2850 C   0  0  0  0  0  0  0  0  0  0  0  0
   12.4874    9.2755   -0.8619 C   0  0  0  0  0  0  0  0  0  0  0  0
   13.8275    8.7763   -0.9578 O   0  0  0  0  0  0  0  0  0  0  0  0
   14.7225    9.9043   -0.9439 C   0  0  0  0  0  0  0  0  0  0  0  0
   13.8676   11.1751   -0.9568 C   0  0  0  0  0  0  0  0  0  0  0  0
   10.6704   11.1144   -0.1419 H   0  0  0  0  0  0  0  0  0  0  0  0
   14.4857   12.5641    1.0178 C   0  0  0  0  0  0  0  0  0  0  0  0
   15.9143   12.4942    1.6460 C   0  0  0  0  0  0  0  0  0  0  0  0
   16.1180   13.6798    2.6025 C   0  0  0  0  0  0  0  0  0  0  0  0
   17.5248   13.7044    3.1878 C   0  0  0  0  0  0  0  0  0  0  0  0
   18.5628   13.6285    2.0763 C   0  0  0  0  0  0  0  0  0  0  0  0
   18.3099   12.4278    1.1707 C   0  0  0  0  0  0  0  0  0  0  0  0
   16.9631   12.4170    0.6185 N   0  0  0  0  0  0  0  0  0  0  0  0
   16.8364   11.5537    0.0903 H   0  0  0  0  0  0  0  0  0  0  0  0
  4  3  1  0  0  0
  4  5  1  0  0  0
  5  6  1  0  0  0
  6  7  1  0  0  0
  7  8  1  0  0  0
  8  1  1  0  0  0
  1 10  1  0  0  0
 11 10  1  0  0  0
 11 12  1  0  0  0
 12 13  1  0  0  0
 13 14  1  0  0  0
 14 15  1  0  0  0
 15 16  1  0  0  0
  8  4  1  0  0  0
 16 11  1  0  0  0
  3  9  1  0  0  0
  1  2  1  0  0  0
 16 17  1  0  0  0
M  END
> <minimizedAffinity>
-2.61812

> <minimizedRMSD>
1.77501

$$$$
C48908-P374


 26 29  0  0  0  0  0  0  0  0999 V2000
   19.4939   13.3003    3.5367 O   0  0  0  0  0  0  0  0  0  0  0  0
   19.7534   14.1645    2.7975 C   0  0  0  0  0  0  0  0  0  0  0  0
   21.1050   14.8342    2.4783 N   0  0  0  0  0  0  0  0  0  0  0  0
   21.0495   15.6028    1.8655 H   0  0  0  0  0  0  0  0  0  0  0  0
   18.6603   14.8375    2.0375 C   0  0  0  0  0  0  0  0  0  0  0  0
   18.6854   16.1451    1.5806 C   0  0  0  0  0  0  0  0  0  0  0  0
   17.2795   16.5084    0.6815 S   0  0  0  0  0  0  0  0  0  0  0  0
   16.6645   14.9360    1.0190 C   0  0  0  0  0  0  0  0  0  0  0  0
   17.4548   14.1830    1.7563 N   0  0  0  0  0  0  0  0  0  0  0  0
   15.3446   14.4945    0.4179 C   0  0  0  0  0  0  0  0  0  0  0  0
   14.7235   13.3123    1.1815 C   0  0  0  0  0  0  0  0  0  0  0  0
   14.0499   13.7483    2.4837 C   0  0  0  0  0  0  0  0  0  0  0  0
   13.0477   14.7994    2.2477 N   0  0  0  0  0  0  0  0  0  0  0  0
   13.6890   15.9766    1.6561 C   0  0  0  0  0  0  0  0  0  0  0  0
   14.3205   15.6368    0.3091 C   0  0  0  0  0  0  0  0  0  0  0  0
   12.6153   15.0595    3.1341 H   0  0  0  0  0  0  0  0  0  0  0  0
   22.4301   14.5200    2.9286 C   0  0  0  0  0  0  0  0  0  0  0  0
   23.1182   13.7383    1.8729 C   0  0  0  0  0  0  0  0  0  0  0  0
   22.6867   13.4939    0.6477 N   0  0  0  0  0  0  0  0  0  0  0  0
   23.6356   12.7449   -0.0060 N   0  0  0  0  0  0  0  0  0  0  0  0
   24.6364   12.5572    0.8234 C   0  0  0  0  0  0  0  0  0  0  0  0
   24.3555   13.1734    2.0127 N   0  0  0  0  0  0  0  0  0  0  0  0
   25.2929   13.3074    3.1059 C   0  0  0  0  0  0  0  0  0  0  0  0
   26.4874   12.3575    2.9809 C   0  0  0  0  0  0  0  0  0  0  0  0
   27.0008   12.2924    1.5406 C   0  0  0  0  0  0  0  0  0  0  0  0
   25.9013   11.8205    0.5869 C   0  0  0  0  0  0  0  0  0  0  0  0
  1  2  2  0  0  0
  2  3  1  0  0  0
  3 17  1  0  0  0
 17 18  1  0  0  0
 18 19  2  0  0  0
 19 20  1  0  0  0
 20 21  2  0  0  0
 21 22  1  0  0  0
 22 23  1  0  0  0
 23 24  1  0  0  0
 24 25  1  0  0  0
 25 26  1  0  0  0
  2  5  1  0  0  0
  5  6  2  0  0  0
  6  7  1  0  0  0
  7  8  1  0  0  0
  8 10  1  0  0  0
 10 11  1  0  0  0
 11 12  1  0  0  0
 12 13  1  0  0  0
 13 14  1  0  0  0
 14 15  1  0  0  0
  8  9  2  0  0  0
 22 18  1  0  0  0
  9  5  1  0  0  0
 26 21  1  0  0  0
 15 10  1  0  0  0
  3  4  1  0  0  0
 13 16  1  0  0  0
M  END
> <minimizedAffinity>
-4.87555

> <minimizedRMSD>
0.95355

$$$$
C59012-P256


 19 20  0  0  0  0  0  0  0  0999 V2000
    9.1186   14.8691   23.7959 C   0  0  0  0  0  0  0  0  0  0  0  0
   10.0576   15.3716   23.1842 O   0  0  0  0  0  0  0  0  0  0  0  0
    7.8281   14.8906   23.2980 N   0  0  0  0  0  0  0  0  0  0  0  0
    7.3846   13.7959   22.4581 C   0  0  0  0  0  0  0  0  0  0  0  0
    6.3528   14.2010   21.4260 C   0  0  0  0  0  0  0  0  0  0  0  0
    5.2599   15.0544   22.0530 C   0  0  0  0  0  0  0  0  0  0  0  0
    5.8958   16.3391   22.5633 C   0  0  0  0  0  0  0  0  0  0  0  0
    6.9446   16.0074   23.6258 C   0  0  0  0  0  0  0  0  0  0  0  0
    4.1243   15.2471   21.1109 C   0  0  0  0  0  0  0  0  0  0  0  0
    3.1494   16.1358   21.1104 N   0  0  0  0  0  0  0  0  0  0  0  0
    2.4642   15.8568   19.9481 C   0  0  0  0  0  0  0  0  0  0  0  0
    3.0717   14.8273   19.2766 C   0  0  0  0  0  0  0  0  0  0  0  0
    4.1395   14.4231   20.0134 O   0  0  0  0  0  0  0  0  0  0  0  0
    9.2794   14.2867   25.1906 C   0  0  0  0  0  0  0  0  0  0  0  0
   10.2976   12.7862   25.3385 S   0  0  0  0  0  0  0  0  0  0  0  0
    9.6709   11.7132   24.0284 C   0  0  0  0  0  0  0  0  0  0  0  0
    7.6094   10.9663   25.3505 C   0  0  0  0  0  0  0  0  0  0  0  0
    8.7798   10.5948   24.4925 C   0  0  0  0  0  0  0  0  0  0  0  0
    8.9817    9.4233   24.1821 O   0  0  0  0  0  0  0  0  0  0  0  0
 17 18  1  0  0  0
 18 19  2  0  0  0
 18 16  1  0  0  0
 16 15  1  0  0  0
 15 14  1  0  0  0
 14  1  1  0  0  0
  1  2  2  0  0  0
  1  3  1  0  0  0
  3  4  1  0  0  0
  4  5  1  0  0  0
  5  6  1  0  0  0
  6  9  1  0  0  0
  9 10  2  0  0  0
 10 11  1  0  0  0
 11 12  2  0  0  0
 12 13  1  0  0  0
  6  7  1  0  0  0
  7  8  1  0  0  0
  8  3  1  0  0  0
 13  9  1  0  0  0
M  END
> <minimizedAffinity>
-5.47559

> <minimizedRMSD>
1.34499

$$$$
C46501-P322


 18 19  0  0  0  0  0  0  0  0999 V2000
    7.6936   12.0345    2.3807 N   0  0  0  0  0  0  0  0  0  0  0  0
    6.9077   11.9635    2.9693 H   0  0  0  0  0  0  0  0  0  0  0  0
    8.1491   14.2013    3.3966 C   0  0  0  0  0  0  0  0  0  0  0  0
    8.9003   15.3734    3.4100 C   0  0  0  0  0  0  0  0  0  0  0  0
    9.9063   15.6444    2.5482 N   0  0  0  0  0  0  0  0  0  0  0  0
   10.1306   14.7138    1.6002 C   0  0  0  0  0  0  0  0  0  0  0  0
    9.4357   13.5139    1.5106 C   0  0  0  0  0  0  0  0  0  0  0  0
    8.4475   13.2032    2.4515 C   0  0  0  0  0  0  0  0  0  0  0  0
    6.1176   14.1465    4.9962 N   0  0  0  0  0  0  0  0  0  0  0  0
    7.0419   14.1127    4.2947 C   0  0  0  0  0  0  0  0  0  0  0  0
    7.9810   10.9063    1.4994 C   0  0  0  0  0  0  0  0  0  0  0  0
    9.1806   10.0396    1.9253 C   0  0  0  0  0  0  0  0  0  0  0  0
    9.2697    8.8097    1.0005 C   0  0  0  0  0  0  0  0  0  0  0  0
   10.3536    7.8376    1.4596 C   0  0  0  0  0  0  0  0  0  0  0  0
   10.1935    7.4898    2.9365 C   0  0  0  0  0  0  0  0  0  0  0  0
   10.2157    8.7056    3.7389 N   0  0  0  0  0  0  0  0  0  0  0  0
    9.1035    9.5975    3.3912 C   0  0  0  0  0  0  0  0  0  0  0  0
   11.0962    9.1943    3.5765 H   0  0  0  0  0  0  0  0  0  0  0  0
  9 10  3  0  0  0
 10  3  1  0  0  0
  3  4  2  0  0  0
  4  5  1  0  0  0
  5  6  2  0  0  0
  6  7  1  0  0  0
  7  8  2  0  0  0
  8  1  1  0  0  0
  1 11  1  0  0  0
 12 11  1  0  0  0
 12 13  1  0  0  0
 13 14  1  0  0  0
 14 15  1  0  0  0
 15 16  1  0  0  0
 16 17  1  0  0  0
  8  3  1  0  0  0
 17 12  1  0  0  0
  1  2  1  0  0  0
 16 18  1  0  0  0
M  END
> <minimizedAffinity>
-3.26690

> <minimizedRMSD>
0.70990

$$$$
C46024-P325


 20 22  0  0  0  0  0  0  0  0999 V2000
   10.1186   12.7482   24.3152 C   0  0  0  0  0  0  0  0  0  0  0  0
   11.1422   12.4165   24.9125 O   0  0  0  0  0  0  0  0  0  0  0  0
    8.8258   12.5911   25.0048 C   0  0  0  0  0  0  0  0  0  0  0  0
    8.2807   13.7130   25.6468 C   0  0  0  0  0  0  0  0  0  0  0  0
    7.1134   13.5870   26.3968 C   0  0  0  0  0  0  0  0  0  0  0  0
    6.4914   12.3565   26.4486 C   0  0  0  0  0  0  0  0  0  0  0  0
    7.0285   11.2448   25.7998 C   0  0  0  0  0  0  0  0  0  0  0  0
    8.2161   11.3314   25.0863 C   0  0  0  0  0  0  0  0  0  0  0  0
    6.1593   10.0761   26.0959 C   0  0  0  0  0  0  0  0  0  0  0  0
    4.9389   10.7532   26.7311 C   0  0  0  0  0  0  0  0  0  0  0  0
    5.3425   12.0800   27.2389 N   0  0  0  0  0  0  0  0  0  0  0  0
    4.9250   12.6294   27.9411 H   0  0  0  0  0  0  0  0  0  0  0  0
   10.1020   13.2933   22.8904 C   0  0  0  0  0  0  0  0  0  0  0  0
   10.7006   15.7817   19.1796 C   0  0  0  0  0  0  0  0  0  0  0  0
   10.9592   15.2172   20.5734 C   0  0  0  0  0  0  0  0  0  0  0  0
   12.0770   16.0062   21.2567 C   0  0  0  0  0  0  0  0  0  0  0  0
   12.2900   15.4999   22.6763 C   0  0  0  0  0  0  0  0  0  0  0  0
   10.9746   15.5410   23.4498 C   0  0  0  0  0  0  0  0  0  0  0  0
    9.8920   14.7550   22.8369 N   0  0  0  0  0  0  0  0  0  0  0  0
    9.6825   15.2089   21.4402 C   0  0  0  0  0  0  0  0  0  0  0  0
 15 14  1  0  0  0
 15 16  1  0  0  0
 16 17  1  0  0  0
 17 18  1  0  0  0
 18 19  1  0  0  0
 19 13  1  0  0  0
 13  1  1  0  0  0
  1  2  2  0  0  0
  1  3  1  0  0  0
  3  4  2  0  0  0
  4  5  1  0  0  0
  5  6  2  0  0  0
  6  7  1  0  0  0
  7  8  2  0  0  0
  7  9  1  0  0  0
  9 10  1  0  0  0
 10 11  1  0  0  0
 19 20  1  0  0  0
 20 15  1  0  0  0
  8  3  1  0  0  0
 11  6  1  0  0  0
 11 12  1  0  0  0
M  END
> <minimizedAffinity>
-6.71198

> <minimizedRMSD>
0.97165

$$$$
C46033-P325


 22 24  0  0  0  0  0  0  0  0999 V2000
    8.8472   15.0420   23.6556 N   0  0  0  0  0  0  0  0  0  0  0  0
    8.8189   13.5063   23.7921 C   0  0  0  0  0  0  0  0  0  0  0  0
    9.4882   12.6907   23.2951 O   0  0  0  0  0  0  0  0  0  0  0  0
    8.1196   15.5108   24.1245 H   0  0  0  0  0  0  0  0  0  0  0  0
    7.8082   13.0995   24.8112 C   0  0  0  0  0  0  0  0  0  0  0  0
    7.2954   14.0718   25.7004 C   0  0  0  0  0  0  0  0  0  0  0  0
    6.4283   13.7168   26.7362 C   0  0  0  0  0  0  0  0  0  0  0  0
    6.1119   12.3882   26.8906 C   0  0  0  0  0  0  0  0  0  0  0  0
    6.5944   11.4388   25.9923 C   0  0  0  0  0  0  0  0  0  0  0  0
    7.4663   11.7575   24.9610 C   0  0  0  0  0  0  0  0  0  0  0  0
    6.0100   10.1293   26.3606 C   0  0  0  0  0  0  0  0  0  0  0  0
    5.5142   10.4080   27.7845 C   0  0  0  0  0  0  0  0  0  0  0  0
    5.2379   11.8546   27.8658 N   0  0  0  0  0  0  0  0  0  0  0  0
    4.6046   12.3291   28.4515 H   0  0  0  0  0  0  0  0  0  0  0  0
   10.5269   15.6456   19.1378 C   0  0  0  0  0  0  0  0  0  0  0  0
   10.5483   15.1880   20.5978 C   0  0  0  0  0  0  0  0  0  0  0  0
    9.5634   16.0104   21.4348 C   0  0  0  0  0  0  0  0  0  0  0  0
    9.7708   15.9080   22.9491 C   0  0  0  0  0  0  0  0  0  0  0  0
   11.2252   15.7369   23.3783 C   0  0  0  0  0  0  0  0  0  0  0  0
   12.0086   14.8191   22.4578 C   0  0  0  0  0  0  0  0  0  0  0  0
   11.9191   15.3294   21.0966 N   0  0  0  0  0  0  0  0  0  0  0  0
   12.5532   14.8026   20.4960 H   0  0  0  0  0  0  0  0  0  0  0  0
 16 15  1  0  0  0
 16 17  1  0  0  0
 17 18  1  0  0  0
 18  1  1  0  0  0
  1  2  1  0  0  0
  2  3  2  0  0  0
  2  5  1  0  0  0
  5  6  2  0  0  0
  6  7  1  0  0  0
  7  8  2  0  0  0
  8  9  1  0  0  0
  9 10  2  0  0  0
  9 11  1  0  0  0
 11 12  1  0  0  0
 12 13  1  0  0  0
 18 19  1  0  0  0
 19 20  1  0  0  0
 20 21  1  0  0  0
 21 16  1  0  0  0
 10  5  1  0  0  0
 13  8  1  0  0  0
  1  4  1  0  0  0
 13 14  1  0  0  0
 21 22  1  0  0  0
M  END
> <minimizedAffinity>
-6.14994

> <minimizedRMSD>
0.77260

$$$$
C45835-P252


 22 24  0  0  0  0  0  0  0  0999 V2000
    6.8285   13.7632   25.2236 C   0  0  0  0  0  0  0  0  0  0  0  0
    6.6067   12.3789   25.8459 C   0  0  0  0  0  0  0  0  0  0  0  0
    7.5323   11.5180   25.0466 C   0  0  0  0  0  0  0  0  0  0  0  0
    7.6258   10.1404   25.0578 C   0  0  0  0  0  0  0  0  0  0  0  0
    8.6140    9.5373   24.2783 C   0  0  0  0  0  0  0  0  0  0  0  0
    9.4914   10.3032   23.5080 C   0  0  0  0  0  0  0  0  0  0  0  0
    9.3809   11.6902   23.4913 C   0  0  0  0  0  0  0  0  0  0  0  0
    8.3727   12.2758   24.2371 C   0  0  0  0  0  0  0  0  0  0  0  0
    8.0773   13.6619   24.3735 N   0  0  0  0  0  0  0  0  0  0  0  0
    7.9353   14.5915   22.9790 S   0  0  0  0  0  0  0  0  0  0  0  0
    7.2211   13.8044   21.9955 O   0  0  0  0  0  0  0  0  0  0  0  0
    7.4513   15.8879   23.3959 O   0  0  0  0  0  0  0  0  0  0  0  0
    9.5215   14.7849   22.4455 N   0  0  0  0  0  0  0  0  0  0  0  0
   10.4947   15.2551   23.4586 C   0  0  0  0  0  0  0  0  0  0  0  0
   11.8961   15.1106   22.8740 C   0  0  0  0  0  0  0  0  0  0  0  0
   12.0395   15.9840   21.6332 C   0  0  0  0  0  0  0  0  0  0  0  0
   10.9793   15.6106   20.6067 C   0  0  0  0  0  0  0  0  0  0  0  0
    9.5829   15.6402   21.2142 C   0  0  0  0  0  0  0  0  0  0  0  0
    7.0194   14.8234   26.2920 C   0  0  0  0  0  0  0  0  0  0  0  0
    8.0698   15.0742   26.8730 O   0  0  0  0  0  0  0  0  0  0  0  0
    5.9452   16.6767   27.2414 C   0  0  0  0  0  0  0  0  0  0  0  0
    5.8231   15.4257   26.5640 O   0  0  0  0  0  0  0  0  0  0  0  0
 21 22  1  0  0  0
 22 19  1  0  0  0
 19 20  2  0  0  0
  1 19  1  0  0  0
  1  2  1  0  0  0
  2  3  1  0  0  0
  3  4  2  0  0  0
  4  5  1  0  0  0
  5  6  2  0  0  0
  6  7  1  0  0  0
  7  8  2  0  0  0
  8  9  1  0  0  0
  9 10  1  0  0  0
 10 11  2  0  0  0
 10 12  2  0  0  0
 10 13  1  0  0  0
 13 14  1  0  0  0
 14 15  1  0  0  0
 15 16  1  0  0  0
 16 17  1  0  0  0
 17 18  1  0  0  0
  9  1  1  0  0  0
 18 13  1  0  0  0
  8  3  1  0  0  0
M  END
> <minimizedAffinity>
-6.80665

> <minimizedRMSD>
0.31195

$$$$
C46024-P303


 20 22  0  0  0  0  0  0  0  0999 V2000
    8.3197   12.1838   24.3011 C   0  0  0  0  0  0  0  0  0  0  0  0
    9.0522   11.2146   24.1132 O   0  0  0  0  0  0  0  0  0  0  0  0
    7.6135   12.2780   25.6017 C   0  0  0  0  0  0  0  0  0  0  0  0
    7.0343   11.1094   26.1335 C   0  0  0  0  0  0  0  0  0  0  0  0
    6.3953   11.1323   27.3767 C   0  0  0  0  0  0  0  0  0  0  0  0
    6.3292   12.3306   28.0574 C   0  0  0  0  0  0  0  0  0  0  0  0
    6.9099   13.4825   27.5318 C   0  0  0  0  0  0  0  0  0  0  0  0
    7.5549   13.4825   26.3102 C   0  0  0  0  0  0  0  0  0  0  0  0
    6.7330   14.6091   28.4887 C   0  0  0  0  0  0  0  0  0  0  0  0
    5.6773   14.0005   29.4279 C   0  0  0  0  0  0  0  0  0  0  0  0
    5.8002   12.5287   29.3535 N   0  0  0  0  0  0  0  0  0  0  0  0
    5.5713   11.8561   30.0350 H   0  0  0  0  0  0  0  0  0  0  0  0
    8.0967   13.3184   23.3031 C   0  0  0  0  0  0  0  0  0  0  0  0
   10.2066   15.4314   19.3777 C   0  0  0  0  0  0  0  0  0  0  0  0
   10.2236   15.3258   20.8998 C   0  0  0  0  0  0  0  0  0  0  0  0
   11.6062   14.8696   21.3566 C   0  0  0  0  0  0  0  0  0  0  0  0
   11.6512   14.3388   22.7784 C   0  0  0  0  0  0  0  0  0  0  0  0
   10.3113   14.3205   23.4671 C   0  0  0  0  0  0  0  0  0  0  0  0
    9.3345   13.6734   22.6076 N   0  0  0  0  0  0  0  0  0  0  0  0
    9.0499   14.4808   21.4188 C   0  0  0  0  0  0  0  0  0  0  0  0
 15 14  1  0  0  0
 15 16  1  0  0  0
 16 17  1  0  0  0
 17 18  1  0  0  0
 18 19  1  0  0  0
 19 13  1  0  0  0
 13  1  1  0  0  0
  1  2  2  0  0  0
  1  3  1  0  0  0
  3  4  2  0  0  0
  4  5  1  0  0  0
  5  6  2  0  0  0
  6  7  1  0  0  0
  7  8  2  0  0  0
  7  9  1  0  0  0
  9 10  1  0  0  0
 10 11  1  0  0  0
 19 20  1  0  0  0
 20 15  1  0  0  0
  8  3  1  0  0  0
 11  6  1  0  0  0
 11 12  1  0  0  0
M  END
> <minimizedAffinity>
-6.59070

> <minimizedRMSD>
1.22166

$$$$
C46025-P303


 20 22  0  0  0  0  0  0  0  0999 V2000
    9.1743   11.8862   23.8767 C   0  0  0  0  0  0  0  0  0  0  0  0
    9.6964   10.7687   23.9486 O   0  0  0  0  0  0  0  0  0  0  0  0
    8.1003   12.1988   24.8593 C   0  0  0  0  0  0  0  0  0  0  0  0
    7.6545   11.1234   25.6663 C   0  0  0  0  0  0  0  0  0  0  0  0
    6.6118   11.2731   26.5810 C   0  0  0  0  0  0  0  0  0  0  0  0
    5.9950   12.5005   26.6544 C   0  0  0  0  0  0  0  0  0  0  0  0
    6.4442   13.5741   25.8825 C   0  0  0  0  0  0  0  0  0  0  0  0
    7.4966   13.4505   24.9801 C   0  0  0  0  0  0  0  0  0  0  0  0
    5.6384   14.7796   26.2155 C   0  0  0  0  0  0  0  0  0  0  0  0
    4.4818   14.1388   27.0025 C   0  0  0  0  0  0  0  0  0  0  0  0
    4.9242   12.8231   27.5319 N   0  0  0  0  0  0  0  0  0  0  0  0
    4.5685   12.3087   28.2923 H   0  0  0  0  0  0  0  0  0  0  0  0
    9.4999   12.7992   22.7112 C   0  0  0  0  0  0  0  0  0  0  0  0
   12.1106   13.4291   23.8013 C   0  0  0  0  0  0  0  0  0  0  0  0
   11.2202   14.5459   23.2654 C   0  0  0  0  0  0  0  0  0  0  0  0
   11.9521   15.3347   22.1594 C   0  0  0  0  0  0  0  0  0  0  0  0
   11.6671   14.7913   20.7842 C   0  0  0  0  0  0  0  0  0  0  0  0
   10.1715   14.7664   20.5208 C   0  0  0  0  0  0  0  0  0  0  0  0
    9.3311   14.9799   21.7774 C   0  0  0  0  0  0  0  0  0  0  0  0
    9.7977   14.2161   22.9759 N   0  0  0  0  0  0  0  0  0  0  0  0
 15 14  1  0  0  0
 15 16  1  0  0  0
 16 17  1  0  0  0
 17 18  1  0  0  0
 18 19  1  0  0  0
 19 20  1  0  0  0
 20 13  1  0  0  0
 13  1  1  0  0  0
  1  2  2  0  0  0
  1  3  1  0  0  0
  3  4  2  0  0  0
  4  5  1  0  0  0
  5  6  2  0  0  0
  6  7  1  0  0  0
  7  8  2  0  0  0
  7  9  1  0  0  0
  9 10  1  0  0  0
 10 11  1  0  0  0
 20 15  1  0  0  0
  8  3  1  0  0  0
 11  6  1  0  0  0
 11 12  1  0  0  0
M  END
> <minimizedAffinity>
-6.44125

> <minimizedRMSD>
0.49771

$$$$
C55226-P87


 12 12  0  0  0  0  0  0  0  0999 V2000
   12.6564   12.2701   24.7020 C   0  0  0  0  0  0  0  0  0  0  0  0
   12.0214   13.1640   25.7191 C   0  0  0  0  0  0  0  0  0  0  0  0
   10.5661   13.3682   25.4164 C   0  0  0  0  0  0  0  0  0  0  0  0
   10.3201   13.7140   24.0218 N   0  0  0  0  0  0  0  0  0  0  0  0
   10.9011   12.7717   23.0595 C   0  0  0  0  0  0  0  0  0  0  0  0
   11.5867   11.6176   23.7837 C   0  0  0  0  0  0  0  0  0  0  0  0
   15.3846   12.0861   25.3511 C   0  0  0  0  0  0  0  0  0  0  0  0
   13.8646   11.1127   25.4028 S   0  0  0  0  0  0  0  0  0  0  0  0
    8.9160   14.0671   23.8529 C   0  0  0  0  0  0  0  0  0  0  0  0
    7.8500   12.9982   23.7590 C   0  0  0  0  0  0  0  0  0  0  0  0
    7.5155   12.4013   25.1043 C   0  0  0  0  0  0  0  0  0  0  0  0
    7.7434   11.2447   25.4434 O   0  0  0  0  0  0  0  0  0  0  0  0
  7  8  1  0  0  0
  8  1  1  0  0  0
  1  2  1  0  0  0
  2  3  1  0  0  0
  3  4  1  0  0  0
  4  9  1  0  0  0
  9 10  1  0  0  0
 10 11  1  0  0  0
 11 12  2  0  0  0
  4  5  1  0  0  0
  5  6  1  0  0  0
  6  1  1  0  0  0
M  END
> <minimizedAffinity>
-3.24315

> <minimizedRMSD>
0.72525

$$$$
C55237-P87


 13 13  0  0  0  0  0  0  0  0999 V2000
   12.5201   12.0853   24.7078 C   0  0  0  0  0  0  0  0  0  0  0  0
   12.0016   13.1055   25.6829 C   0  0  0  0  0  0  0  0  0  0  0  0
   10.5493   13.4437   25.4430 C   0  0  0  0  0  0  0  0  0  0  0  0
   10.2242   13.7875   24.0707 N   0  0  0  0  0  0  0  0  0  0  0  0
   10.8783   12.9816   23.0561 C   0  0  0  0  0  0  0  0  0  0  0  0
   11.9002   13.9488   22.4537 C   0  0  0  0  0  0  0  0  0  0  0  0
   11.3891   11.6983   23.7235 C   0  0  0  0  0  0  0  0  0  0  0  0
   14.6083   11.0490   25.2050 C   0  0  0  0  0  0  0  0  0  0  0  0
   13.1747   10.9729   25.3252 O   0  0  0  0  0  0  0  0  0  0  0  0
    8.8345   14.1246   23.8584 C   0  0  0  0  0  0  0  0  0  0  0  0
    7.7472   13.0646   23.8077 C   0  0  0  0  0  0  0  0  0  0  0  0
    7.7019   12.2300   25.0572 C   0  0  0  0  0  0  0  0  0  0  0  0
    8.0017   11.0433   25.1217 O   0  0  0  0  0  0  0  0  0  0  0  0
  8  9  1  0  0  0
  1  9  1  0  0  0
  1  2  1  0  0  0
  2  3  1  0  0  0
  3  4  1  0  0  0
  4 10  1  0  0  0
 10 11  1  0  0  0
 11 12  1  0  0  0
 12 13  2  0  0  0
  4  5  1  0  0  0
  5  6  1  0  0  0
  5  7  1  0  0  0
  7  1  1  0  0  0
M  END
> <minimizedAffinity>
-4.32837

> <minimizedRMSD>
0.79370

$$$$
C12359-P320


 14 14  0  0  0  0  0  0  0  0999 V2000
   10.6328   12.6602   23.6162 N   0  0  0  0  0  0  0  0  0  0  0  0
   11.5737   12.4479   23.8131 H   0  0  0  0  0  0  0  0  0  0  0  0
    9.5939   11.8182   24.1489 C   0  0  0  0  0  0  0  0  0  0  0  0
    8.7074   12.2552   25.1326 C   0  0  0  0  0  0  0  0  0  0  0  0
    7.7509   11.4000   25.6743 C   0  0  0  0  0  0  0  0  0  0  0  0
    7.7225   10.0999   25.2287 C   0  0  0  0  0  0  0  0  0  0  0  0
    8.5871    9.6123   24.3169 N   0  0  0  0  0  0  0  0  0  0  0  0
    9.4975   10.4783   23.7920 C   0  0  0  0  0  0  0  0  0  0  0  0
   10.2694   14.0108   22.6566 S   0  0  0  0  0  0  0  0  0  0  0  0
   11.4714   14.2784   21.8986 O   0  0  0  0  0  0  0  0  0  0  0  0
    9.0279   13.7229   21.9774 O   0  0  0  0  0  0  0  0  0  0  0  0
   10.0599   15.3529   23.8223 C   0  0  0  0  0  0  0  0  0  0  0  0
   10.6916   15.2493   26.2576 C   0  0  0  0  0  0  0  0  0  0  0  0
   11.1971   15.4173   24.8369 C   0  0  0  0  0  0  0  0  0  0  0  0
 13 14  1  0  0  0
 14 12  1  0  0  0
 12  9  1  0  0  0
  9 10  2  0  0  0
  9 11  2  0  0  0
  9  1  1  0  0  0
  1  3  1  0  0  0
  3  4  2  0  0  0
  4  5  1  0  0  0
  5  6  2  0  0  0
  6  7  1  0  0  0
  7  8  2  0  0  0
  8  3  1  0  0  0
  1  2  1  0  0  0
M  END
> <minimizedAffinity>
-4.75432

> <minimizedRMSD>
2.25528

$$$$
C37158-P124


 17 19  0  0  0  0  0  0  0  0999 V2000
   10.8025    8.4058   23.1845 Br  0  0  0  0  0  0  0  0  0  0  0  0
   10.3216   10.1705   23.5096 C   0  0  0  0  0  0  0  0  0  0  0  0
   11.0314   11.1732   22.8620 C   0  0  0  0  0  0  0  0  0  0  0  0
   10.7449   12.4931   23.1472 C   0  0  0  0  0  0  0  0  0  0  0  0
    9.6652   12.7681   23.9590 C   0  0  0  0  0  0  0  0  0  0  0  0
    8.9771   11.7650   24.6418 C   0  0  0  0  0  0  0  0  0  0  0  0
    9.3161   10.4508   24.4284 C   0  0  0  0  0  0  0  0  0  0  0  0
    8.0651   12.2866   25.5637 N   0  0  0  0  0  0  0  0  0  0  0  0
    7.8562   13.6577   25.0988 C   0  0  0  0  0  0  0  0  0  0  0  0
    9.0849   14.0939   24.2950 C   0  0  0  0  0  0  0  0  0  0  0  0
    6.8774   11.5278   25.9352 C   0  0  0  0  0  0  0  0  0  0  0  0
    5.9795   12.1134   26.9949 C   0  0  0  0  0  0  0  0  0  0  0  0
    4.8403   12.8778   26.8247 C   0  0  0  0  0  0  0  0  0  0  0  0
    4.3873   13.1488   28.0848 N   0  0  0  0  0  0  0  0  0  0  0  0
    5.2445   12.5504   28.9638 C   0  0  0  0  0  0  0  0  0  0  0  0
    6.2118   11.9161   28.3411 N   0  0  0  0  0  0  0  0  0  0  0  0
    3.5901   13.6778   28.3166 H   0  0  0  0  0  0  0  0  0  0  0  0
  1  2  1  0  0  0
  2  3  2  0  0  0
  3  4  1  0  0  0
  4  5  2  0  0  0
  5  6  1  0  0  0
  6  7  2  0  0  0
  6  8  1  0  0  0
  8 11  1  0  0  0
 11 12  1  0  0  0
 12 13  2  0  0  0
 13 14  1  0  0  0
 14 15  1  0  0  0
 15 16  2  0  0  0
  8  9  1  0  0  0
  9 10  1  0  0  0
  7  2  1  0  0  0
 16 12  1  0  0  0
 10  5  1  0  0  0
 14 17  1  0  0  0
M  END
> <minimizedAffinity>
-5.06645

> <minimizedRMSD>
0.83039

$$$$
C37167-P124


 20 22  0  0  0  0  0  0  0  0999 V2000
    9.7516    9.9017   23.8334 C   0  0  0  0  0  0  0  0  0  0  0  0
   10.9572   10.4896   23.4683 C   0  0  0  0  0  0  0  0  0  0  0  0
   11.2691   11.7374   23.9711 C   0  0  0  0  0  0  0  0  0  0  0  0
   10.2933   12.4313   24.6613 C   0  0  0  0  0  0  0  0  0  0  0  0
    9.1008   11.8263   25.0427 C   0  0  0  0  0  0  0  0  0  0  0  0
    8.8421   10.5305   24.6810 C   0  0  0  0  0  0  0  0  0  0  0  0
    8.4479   12.6465   26.0014 N   0  0  0  0  0  0  0  0  0  0  0  0
    9.0482   13.9887   25.9069 C   0  0  0  0  0  0  0  0  0  0  0  0
   10.3456   13.8450   25.1251 C   0  0  0  0  0  0  0  0  0  0  0  0
    6.7889   12.6873   26.2232 S   0  0  0  0  0  0  0  0  0  0  0  0
    6.5414   13.3623   27.4847 O   0  0  0  0  0  0  0  0  0  0  0  0
    6.2327   11.3795   25.9751 O   0  0  0  0  0  0  0  0  0  0  0  0
    6.1404   13.8108   25.0482 C   0  0  0  0  0  0  0  0  0  0  0  0
    5.1736   14.7718   25.2779 C   0  0  0  0  0  0  0  0  0  0  0  0
    5.0816   15.4703   24.1053 N   0  0  0  0  0  0  0  0  0  0  0  0
    6.0268   14.9734   23.2508 C   0  0  0  0  0  0  0  0  0  0  0  0
    6.7096   13.9906   23.7917 N   0  0  0  0  0  0  0  0  0  0  0  0
    4.4489   16.1994   23.9115 H   0  0  0  0  0  0  0  0  0  0  0  0
   10.7239    8.0590   23.0373 C   0  0  0  0  0  0  0  0  0  0  0  0
    9.4866    8.6557   23.3531 O   0  0  0  0  0  0  0  0  0  0  0  0
 19 20  1  0  0  0
 20  1  1  0  0  0
  1  2  2  0  0  0
  2  3  1  0  0  0
  3  4  2  0  0  0
  4  5  1  0  0  0
  5  6  2  0  0  0
  5  7  1  0  0  0
  7 10  1  0  0  0
 10 11  2  0  0  0
 10 12  2  0  0  0
 10 13  1  0  0  0
 13 14  2  0  0  0
 14 15  1  0  0  0
 15 16  1  0  0  0
 16 17  2  0  0  0
  7  8  1  0  0  0
  8  9  1  0  0  0
  6  1  1  0  0  0
 17 13  1  0  0  0
  9  4  1  0  0  0
 15 18  1  0  0  0
M  END
> <minimizedAffinity>
-5.45792

> <minimizedRMSD>
0.64616

$$$$
C37174-P124


 20 22  0  0  0  0  0  0  0  0999 V2000
   10.0454   10.1179   23.7228 C   0  0  0  0  0  0  0  0  0  0  0  0
   11.1930   10.8381   23.3882 C   0  0  0  0  0  0  0  0  0  0  0  0
   11.3902   12.0920   23.9321 C   0  0  0  0  0  0  0  0  0  0  0  0
   10.3776   12.6504   24.6855 C   0  0  0  0  0  0  0  0  0  0  0  0
    9.2287   11.9341   25.0022 C   0  0  0  0  0  0  0  0  0  0  0  0
    9.0607   10.6483   24.5527 C   0  0  0  0  0  0  0  0  0  0  0  0
    8.5311   12.5967   26.0454 N   0  0  0  0  0  0  0  0  0  0  0  0
    9.0930   13.9531   26.1619 C   0  0  0  0  0  0  0  0  0  0  0  0
   10.3734   13.9876   25.3389 C   0  0  0  0  0  0  0  0  0  0  0  0
    6.8640   12.5592   26.2046 S   0  0  0  0  0  0  0  0  0  0  0  0
    6.5430   13.1410   27.4947 O   0  0  0  0  0  0  0  0  0  0  0  0
    6.3779   11.2476   25.8492 O   0  0  0  0  0  0  0  0  0  0  0  0
    6.2237   13.7283   25.0705 C   0  0  0  0  0  0  0  0  0  0  0  0
    5.2607   14.6861   25.3265 C   0  0  0  0  0  0  0  0  0  0  0  0
    5.1803   15.4236   24.1763 N   0  0  0  0  0  0  0  0  0  0  0  0
    6.1321   14.9532   23.3140 C   0  0  0  0  0  0  0  0  0  0  0  0
    6.8040   13.9470   23.8248 N   0  0  0  0  0  0  0  0  0  0  0  0
    4.5507   16.1600   24.0012 H   0  0  0  0  0  0  0  0  0  0  0  0
    9.9674    7.6379   23.0892 N   0  0  0  0  0  0  0  0  0  0  0  0
    9.9789    8.7664   23.3213 C   0  0  0  0  0  0  0  0  0  0  0  0
 19 20  3  0  0  0
 20  1  1  0  0  0
  1  2  2  0  0  0
  2  3  1  0  0  0
  3  4  2  0  0  0
  4  5  1  0  0  0
  5  6  2  0  0  0
  5  7  1  0  0  0
  7 10  1  0  0  0
 10 11  2  0  0  0
 10 12  2  0  0  0
 10 13  1  0  0  0
 13 14  2  0  0  0
 14 15  1  0  0  0
 15 16  1  0  0  0
 16 17  2  0  0  0
  7  8  1  0  0  0
  8  9  1  0  0  0
  6  1  1  0  0  0
 17 13  1  0  0  0
  9  4  1  0  0  0
 15 18  1  0  0  0
M  END
> <minimizedAffinity>
-4.94510

> <minimizedRMSD>
0.52433

$$$$
C46502-P159


 17 18  0  0  0  0  0  0  0  0999 V2000
    6.6078   13.8965   22.2347 C   0  0  0  0  0  0  0  0  0  0  0  0
    7.5969   13.3096   23.1502 N   0  0  0  0  0  0  0  0  0  0  0  0
    9.0274   13.6627   22.9401 C   0  0  0  0  0  0  0  0  0  0  0  0
    9.5592   14.6122   24.0115 C   0  0  0  0  0  0  0  0  0  0  0  0
   11.0647   14.7815   23.8277 C   0  0  0  0  0  0  0  0  0  0  0  0
   11.4588   15.1887   22.4123 C   0  0  0  0  0  0  0  0  0  0  0  0
   10.8258   14.3825   21.3767 N   0  0  0  0  0  0  0  0  0  0  0  0
    9.3766   14.3244   21.5881 C   0  0  0  0  0  0  0  0  0  0  0  0
   11.2078   13.4372   21.4064 H   0  0  0  0  0  0  0  0  0  0  0  0
    7.1387   12.7397   24.3534 C   0  0  0  0  0  0  0  0  0  0  0  0
    6.0261   13.2931   25.0197 C   0  0  0  0  0  0  0  0  0  0  0  0
    5.4835   12.6914   26.1482 C   0  0  0  0  0  0  0  0  0  0  0  0
    5.9333   11.5419   26.6664 N   0  0  0  0  0  0  0  0  0  0  0  0
    7.0116   11.0195   26.0596 C   0  0  0  0  0  0  0  0  0  0  0  0
    7.6677   11.5896   24.9719 C   0  0  0  0  0  0  0  0  0  0  0  0
    8.9260   10.9939   24.6914 C   0  0  0  0  0  0  0  0  0  0  0  0
    9.9722   10.4945   24.6603 N   0  0  0  0  0  0  0  0  0  0  0  0
  1  2  1  0  0  0
  2 10  1  0  0  0
 10 11  2  0  0  0
 11 12  1  0  0  0
 12 13  2  0  0  0
 13 14  1  0  0  0
 14 15  2  0  0  0
 15 16  1  0  0  0
 16 17  3  0  0  0
  3  2  1  0  0  0
  3  4  1  0  0  0
  4  5  1  0  0  0
  5  6  1  0  0  0
  6  7  1  0  0  0
  7  8  1  0  0  0
 15 10  1  0  0  0
  8  3  1  0  0  0
  7  9  1  0  0  0
M  END
> <minimizedAffinity>
-5.53841

> <minimizedRMSD>
1.09900

$$$$
C48482-P487


 24 26  0  0  0  0  0  0  0  0999 V2000
    6.2261   13.8174   22.7908 C   0  0  0  0  0  0  0  0  0  0  0  0
    7.4960   13.2156   23.3811 C   0  0  0  0  0  0  0  0  0  0  0  0
    7.4118   12.7101   24.8400 C   0  0  0  0  0  0  0  0  0  0  0  0
    7.8617   11.2340   24.9258 C   0  0  0  0  0  0  0  0  0  0  0  0
    6.8788   10.3345   25.6591 C   0  0  0  0  0  0  0  0  0  0  0  0
    6.4653   10.9088   26.9314 N   0  0  0  0  0  0  0  0  0  0  0  0
    6.0631   12.3144   26.9437 C   0  0  0  0  0  0  0  0  0  0  0  0
    6.0660   12.9254   25.5411 C   0  0  0  0  0  0  0  0  0  0  0  0
    5.5381   10.1267   27.6301 C   0  0  0  0  0  0  0  0  0  0  0  0
    4.3368    9.8746   27.0890 N   0  0  0  0  0  0  0  0  0  0  0  0
    3.4751    9.1097   27.7923 C   0  0  0  0  0  0  0  0  0  0  0  0
    3.7574    8.5963   29.0279 C   0  0  0  0  0  0  0  0  0  0  0  0
    4.9995    8.9187   29.5094 C   0  0  0  0  0  0  0  0  0  0  0  0
    5.8919    9.6870   28.8489 N   0  0  0  0  0  0  0  0  0  0  0  0
    8.5702   14.1668   23.2149 N   0  0  0  0  0  0  0  0  0  0  0  0
   10.1116   13.9939   23.3857 C   0  0  0  0  0  0  0  0  0  0  0  0
   10.7349   13.0762   23.7614 O   0  0  0  0  0  0  0  0  0  0  0  0
    8.2834   15.0708   22.9511 H   0  0  0  0  0  0  0  0  0  0  0  0
   10.7635   15.3231   23.0124 C   0  0  0  0  0  0  0  0  0  0  0  0
   10.8161   15.5282   21.5815 N   0  0  0  0  0  0  0  0  0  0  0  0
    9.9500   16.2642   20.8221 C   0  0  0  0  0  0  0  0  0  0  0  0
   10.2358   15.9396   19.5197 C   0  0  0  0  0  0  0  0  0  0  0  0
   11.3801   15.1407   19.5927 C   0  0  0  0  0  0  0  0  0  0  0  0
   11.7402   14.8955   20.8516 N   0  0  0  0  0  0  0  0  0  0  0  0
  2  1  1  0  0  0
  2 15  1  0  0  0
 15 16  1  0  0  0
 16 17  2  0  0  0
 16 19  1  0  0  0
 19 20  1  0  0  0
 20 21  1  0  0  0
 21 22  2  0  0  0
 22 23  1  0  0  0
 23 24  2  0  0  0
  2  3  1  0  0  0
  3  4  1  0  0  0
  4  5  1  0  0  0
  5  6  1  0  0  0
  6  9  1  0  0  0
  9 10  2  0  0  0
 10 11  1  0  0  0
 11 12  2  0  0  0
 12 13  1  0  0  0
 13 14  2  0  0  0
  6  7  1  0  0  0
  7  8  1  0  0  0
 24 20  1  0  0  0
  8  3  1  0  0  0
 14  9  1  0  0  0
 15 18  1  0  0  0
M  END
> <minimizedAffinity>
-6.65069

> <minimizedRMSD>
0.42681

$$$$
C48489-P487


 22 23  0  0  0  0  0  0  0  0999 V2000
    6.3361   14.5147   22.5191 C   0  0  0  0  0  0  0  0  0  0  0  0
    7.2938   13.4088   22.9252 C   0  0  0  0  0  0  0  0  0  0  0  0
    6.7982   12.5775   24.1087 C   0  0  0  0  0  0  0  0  0  0  0  0
    7.8170   11.5519   24.5796 C   0  0  0  0  0  0  0  0  0  0  0  0
    7.1618   10.5402   25.5202 C   0  0  0  0  0  0  0  0  0  0  0  0
    6.0058   11.0301   26.2843 N   0  0  0  0  0  0  0  0  0  0  0  0
    6.0813   12.4667   26.5604 C   0  0  0  0  0  0  0  0  0  0  0  0
    6.1817   13.3267   25.2923 C   0  0  0  0  0  0  0  0  0  0  0  0
    5.7855   10.2486   27.5159 C   0  0  0  0  0  0  0  0  0  0  0  0
    4.3477    9.7851   27.7508 C   0  0  0  0  0  0  0  0  0  0  0  0
    3.9863    8.7603   26.8235 O   0  0  0  0  0  0  0  0  0  0  0  0
    4.0506    9.1052   25.9191 H   0  0  0  0  0  0  0  0  0  0  0  0
    8.6385   13.8861   22.9954 N   0  0  0  0  0  0  0  0  0  0  0  0
    9.3184   14.8263   24.0172 C   0  0  0  0  0  0  0  0  0  0  0  0
    8.9069   15.2958   25.0038 O   0  0  0  0  0  0  0  0  0  0  0  0
    9.2283   13.5638   22.2759 H   0  0  0  0  0  0  0  0  0  0  0  0
   10.6991   15.1643   23.4903 C   0  0  0  0  0  0  0  0  0  0  0  0
   10.7236   15.4844   22.0761 N   0  0  0  0  0  0  0  0  0  0  0  0
    9.9200   16.3591   21.4035 C   0  0  0  0  0  0  0  0  0  0  0  0
   10.1954   16.1839   20.0685 C   0  0  0  0  0  0  0  0  0  0  0  0
   11.1841   15.1913   20.0396 C   0  0  0  0  0  0  0  0  0  0  0  0
   11.4682   14.7211   21.2601 N   0  0  0  0  0  0  0  0  0  0  0  0
  2  1  1  0  0  0
  2 13  1  0  0  0
 13 14  1  0  0  0
 14 15  2  0  0  0
 14 17  1  0  0  0
 17 18  1  0  0  0
 18 19  1  0  0  0
 19 20  2  0  0  0
 20 21  1  0  0  0
 21 22  2  0  0  0
  2  3  1  0  0  0
  3  4  1  0  0  0
  4  5  1  0  0  0
  5  6  1  0  0  0
  6  9  1  0  0  0
  9 10  1  0  0  0
 10 11  1  0  0  0
  6  7  1  0  0  0
  7  8  1  0  0  0
 22 18  1  0  0  0
  8  3  1  0  0  0
 13 16  1  0  0  0
 11 12  1  0  0  0
M  END
> <minimizedAffinity>
-5.97112

> <minimizedRMSD>
0.32810

$$$$
C48494-P487


 23 24  0  0  0  0  0  0  0  0999 V2000
    6.8729   13.9583   22.0524 C   0  0  0  0  0  0  0  0  0  0  0  0
    7.9647   13.1327   22.7146 C   0  0  0  0  0  0  0  0  0  0  0  0
    7.6947   12.6771   24.1645 C   0  0  0  0  0  0  0  0  0  0  0  0
    7.9177   11.1654   24.2342 C   0  0  0  0  0  0  0  0  0  0  0  0
    7.4300   10.5355   25.5173 C   0  0  0  0  0  0  0  0  0  0  0  0
    6.0983   10.9480   25.9811 N   0  0  0  0  0  0  0  0  0  0  0  0
    6.0262   12.4145   26.0619 C   0  0  0  0  0  0  0  0  0  0  0  0
    6.3112   13.0535   24.7056 C   0  0  0  0  0  0  0  0  0  0  0  0
    5.8322   10.3462   27.3002 C   0  0  0  0  0  0  0  0  0  0  0  0
    4.3687   10.1218   27.6415 C   0  0  0  0  0  0  0  0  0  0  0  0
    4.2297    9.2219   28.8628 C   0  0  0  0  0  0  0  0  0  0  0  0
    2.8562    8.9240   29.0590 O   0  0  0  0  0  0  0  0  0  0  0  0
    2.3630    9.7480   29.1959 H   0  0  0  0  0  0  0  0  0  0  0  0
    9.2140   13.8326   22.5945 N   0  0  0  0  0  0  0  0  0  0  0  0
    9.8979   14.8421   23.5511 C   0  0  0  0  0  0  0  0  0  0  0  0
    9.5887   15.2018   24.6197 O   0  0  0  0  0  0  0  0  0  0  0  0
    9.7172   13.6395   21.7707 H   0  0  0  0  0  0  0  0  0  0  0  0
   11.0984   15.4633   22.8522 C   0  0  0  0  0  0  0  0  0  0  0  0
   10.9754   15.6173   21.4201 N   0  0  0  0  0  0  0  0  0  0  0  0
   10.0619   16.3723   20.7441 C   0  0  0  0  0  0  0  0  0  0  0  0
   10.2194   16.0496   19.4193 C   0  0  0  0  0  0  0  0  0  0  0  0
   11.2919   15.1519   19.3937 C   0  0  0  0  0  0  0  0  0  0  0  0
   11.7243   14.8507   20.6186 N   0  0  0  0  0  0  0  0  0  0  0  0
  2  1  1  0  0  0
  2 14  1  0  0  0
 14 15  1  0  0  0
 15 16  2  0  0  0
 15 18  1  0  0  0
 18 19  1  0  0  0
 19 20  1  0  0  0
 20 21  2  0  0  0
 21 22  1  0  0  0
 22 23  2  0  0  0
  2  3  1  0  0  0
  3  4  1  0  0  0
  4  5  1  0  0  0
  5  6  1  0  0  0
  6  9  1  0  0  0
  9 10  1  0  0  0
 10 11  1  0  0  0
 11 12  1  0  0  0
  6  7  1  0  0  0
  7  8  1  0  0  0
 23 19  1  0  0  0
  8  3  1  0  0  0
 14 17  1  0  0  0
 12 13  1  0  0  0
M  END
> <minimizedAffinity>
-5.68207

> <minimizedRMSD>
0.38371

$$$$
C48501-P487


 23 24  0  0  0  0  0  0  0  0999 V2000
    7.5399   14.3270   23.2234 C   0  0  0  0  0  0  0  0  0  0  0  0
    6.7454   13.9988   21.9617 C   0  0  0  0  0  0  0  0  0  0  0  0
    6.1298   11.0702   25.8806 N   0  0  0  0  0  0  0  0  0  0  0  0
    7.4947   11.0060   25.3113 C   0  0  0  0  0  0  0  0  0  0  0  0
    7.7329   11.9259   24.1175 C   0  0  0  0  0  0  0  0  0  0  0  0
    7.3349   13.3678   24.4143 C   0  0  0  0  0  0  0  0  0  0  0  0
    5.8893   13.3697   24.9263 C   0  0  0  0  0  0  0  0  0  0  0  0
    5.7385   12.4647   26.1509 C   0  0  0  0  0  0  0  0  0  0  0  0
    6.0871   10.2808   27.1333 C   0  0  0  0  0  0  0  0  0  0  0  0
    4.8521   10.2891   28.0428 C   0  0  0  0  0  0  0  0  0  0  0  0
    5.2898    9.8966   29.2860 F   0  0  0  0  0  0  0  0  0  0  0  0
    2.4148    9.7617   28.2100 C   0  0  0  0  0  0  0  0  0  0  0  0
    3.7549    9.3083   27.6579 C   0  0  0  0  0  0  0  0  0  0  0  0
    8.9429   14.4250   22.8716 N   0  0  0  0  0  0  0  0  0  0  0  0
   10.1597   14.9280   23.7014 C   0  0  0  0  0  0  0  0  0  0  0  0
   10.2268   15.2666   24.8198 O   0  0  0  0  0  0  0  0  0  0  0  0
    9.1614   14.1247   21.9599 H   0  0  0  0  0  0  0  0  0  0  0  0
   11.3828   14.9212   22.7902 C   0  0  0  0  0  0  0  0  0  0  0  0
   11.1335   15.3855   21.4379 N   0  0  0  0  0  0  0  0  0  0  0  0
   10.2307   16.3124   21.0152 C   0  0  0  0  0  0  0  0  0  0  0  0
   10.1848   16.1973   19.6483 C   0  0  0  0  0  0  0  0  0  0  0  0
   11.1562   15.2431   19.3265 C   0  0  0  0  0  0  0  0  0  0  0  0
   11.7447   14.7567   20.4204 N   0  0  0  0  0  0  0  0  0  0  0  0
 12 13  1  0  0  0
 13 10  1  0  0  0
 10 11  1  0  0  0
 10  9  1  0  0  0
  9  3  1  0  0  0
  3  4  1  0  0  0
  4  5  1  0  0  0
  5  6  1  0  0  0
  6  1  1  0  0  0
  1  2  1  0  0  0
  1 14  1  0  0  0
 14 15  1  0  0  0
 15 16  2  0  0  0
 15 18  1  0  0  0
 18 19  1  0  0  0
 19 20  1  0  0  0
 20 21  2  0  0  0
 21 22  1  0  0  0
 22 23  2  0  0  0
  6  7  1  0  0  0
  7  8  1  0  0  0
  8  3  1  0  0  0
 23 19  1  0  0  0
 14 17  1  0  0  0
M  END
> <minimizedAffinity>
-5.84662

> <minimizedRMSD>
0.59190

$$$$
C54239-P151


 15 16  0  0  0  0  0  0  0  0999 V2000
    9.2892   13.9362   25.3380 C   0  0  0  0  0  0  0  0  0  0  0  0
    9.5791   13.0165   24.1538 C   0  0  0  0  0  0  0  0  0  0  0  0
    9.0445   11.6024   24.3222 C   0  0  0  0  0  0  0  0  0  0  0  0
    7.9940   11.2931   25.1954 C   0  0  0  0  0  0  0  0  0  0  0  0
    7.5974    9.9782   25.3293 C   0  0  0  0  0  0  0  0  0  0  0  0
    8.1702    8.9632   24.6613 N   0  0  0  0  0  0  0  0  0  0  0  0
    9.1635    9.2662   23.7972 C   0  0  0  0  0  0  0  0  0  0  0  0
    9.6326   10.5531   23.6017 C   0  0  0  0  0  0  0  0  0  0  0  0
    9.0536   13.6866   22.8765 C   0  0  0  0  0  0  0  0  0  0  0  0
    7.8924   13.4798   22.5071 O   0  0  0  0  0  0  0  0  0  0  0  0
    9.9743   14.5401   22.0912 C   0  0  0  0  0  0  0  0  0  0  0  0
   11.3106   14.9596   22.4437 C   0  0  0  0  0  0  0  0  0  0  0  0
   11.9136   15.6290   21.3997 C   0  0  0  0  0  0  0  0  0  0  0  0
   10.7948   15.7530   20.1182 S   0  0  0  0  0  0  0  0  0  0  0  0
    9.5676   14.9672   20.8904 N   0  0  0  0  0  0  0  0  0  0  0  0
  2  1  1  0  0  0
  2  9  1  0  0  0
  9 10  2  0  0  0
  9 11  1  0  0  0
 11 12  1  0  0  0
 12 13  2  0  0  0
 13 14  1  0  0  0
 14 15  1  0  0  0
  2  3  1  0  0  0
  3  4  2  0  0  0
  4  5  1  0  0  0
  5  6  2  0  0  0
  6  7  1  0  0  0
  7  8  2  0  0  0
 15 11  2  0  0  0
  8  3  1  0  0  0
M  END
> <minimizedAffinity>
-6.21073

> <minimizedRMSD>
0.89204

$$$$
C3756-P159


 13 14  0  0  0  0  0  0  0  0999 V2000
    6.5214   14.2817   24.5371 C   0  0  0  0  0  0  0  0  0  0  0  0
    5.0031   14.1646   24.3219 C   0  0  0  0  0  0  0  0  0  0  0  0
    4.4335   15.3801   23.6223 C   0  0  0  0  0  0  0  0  0  0  0  0
    5.2029   15.6342   22.3357 C   0  0  0  0  0  0  0  0  0  0  0  0
    6.6122   15.8961   22.6050 N   0  0  0  0  0  0  0  0  0  0  0  0
    7.2447   14.7588   23.2624 C   0  0  0  0  0  0  0  0  0  0  0  0
    6.6888   16.7143   23.2093 H   0  0  0  0  0  0  0  0  0  0  0  0
    8.1758   11.0655   25.1252 C   0  0  0  0  0  0  0  0  0  0  0  0
    8.2242   12.3043   24.5479 C   0  0  0  0  0  0  0  0  0  0  0  0
    7.0470   12.9558   24.9904 C   0  0  0  0  0  0  0  0  0  0  0  0
    6.3507   12.1927   25.8426 N   0  0  0  0  0  0  0  0  0  0  0  0
    7.0325   11.0395   25.8637 N   0  0  0  0  0  0  0  0  0  0  0  0
    6.7344   10.2472   26.3665 H   0  0  0  0  0  0  0  0  0  0  0  0
  8  9  2  0  0  0
  9 10  1  0  0  0
  1 10  1  0  0  0
  1  2  1  0  0  0
  2  3  1  0  0  0
  3  4  1  0  0  0
  4  5  1  0  0  0
  5  6  1  0  0  0
 10 11  2  0  0  0
 11 12  1  0  0  0
 12  8  1  0  0  0
  6  1  1  0  0  0
  5  7  1  0  0  0
 12 13  1  0  0  0
M  END
> <minimizedAffinity>
-3.52445

> <minimizedRMSD>
1.32380

$$$$
C3275-P439


 12 13  0  0  0  0  0  0  0  0999 V2000
    9.3438   10.6762   23.9645 C   0  0  0  0  0  0  0  0  0  0  0  0
    9.6569   11.9200   23.4572 C   0  0  0  0  0  0  0  0  0  0  0  0
    8.9204   12.9992   23.9007 C   0  0  0  0  0  0  0  0  0  0  0  0
    7.9093   12.8222   24.7674 N   0  0  0  0  0  0  0  0  0  0  0  0
    7.6926   11.5744   25.2129 C   0  0  0  0  0  0  0  0  0  0  0  0
    8.3673   10.4747   24.8598 N   0  0  0  0  0  0  0  0  0  0  0  0
    9.2177   14.2999   23.5302 N   0  0  0  0  0  0  0  0  0  0  0  0
   10.5476   14.8007   23.8627 C   0  0  0  0  0  0  0  0  0  0  0  0
   11.4873   14.7808   22.6632 C   0  0  0  0  0  0  0  0  0  0  0  0
   10.8725   15.4904   21.4674 C   0  0  0  0  0  0  0  0  0  0  0  0
    9.5152   14.8849   21.1377 C   0  0  0  0  0  0  0  0  0  0  0  0
    8.5738   14.8597   22.3405 C   0  0  0  0  0  0  0  0  0  0  0  0
  1  2  2  0  0  0
  2  3  1  0  0  0
  3  7  1  0  0  0
  7  8  1  0  0  0
  8  9  1  0  0  0
  9 10  1  0  0  0
 10 11  1  0  0  0
 11 12  1  0  0  0
  3  4  2  0  0  0
  4  5  1  0  0  0
  5  6  2  0  0  0
  6  1  1  0  0  0
 12  7  1  0  0  0
M  END
> <minimizedAffinity>
-5.19086

> <minimizedRMSD>
0.31231

$$$$
C45912-P439


 22 23  0  0  0  0  0  0  0  0999 V2000
    6.9323   12.9211   24.8149 C   0  0  0  0  0  0  0  0  0  0  0  0
    7.6085   11.7377   24.9520 C   0  0  0  0  0  0  0  0  0  0  0  0
    8.8349   11.6674   24.3375 C   0  0  0  0  0  0  0  0  0  0  0  0
    9.5538   10.3664   24.3319 C   0  0  0  0  0  0  0  0  0  0  0  0
    9.3976   12.7054   23.6916 N   0  0  0  0  0  0  0  0  0  0  0  0
    8.7095   13.8476   23.6429 C   0  0  0  0  0  0  0  0  0  0  0  0
    7.4985   13.9763   24.1951 N   0  0  0  0  0  0  0  0  0  0  0  0
    9.2930   15.0073   23.1573 N   0  0  0  0  0  0  0  0  0  0  0  0
   10.7441   15.0013   23.2916 C   0  0  0  0  0  0  0  0  0  0  0  0
   11.4698   14.4355   22.0808 C   0  0  0  0  0  0  0  0  0  0  0  0
   11.0067   15.1184   20.8063 C   0  0  0  0  0  0  0  0  0  0  0  0
    9.5002   14.9702   20.6660 C   0  0  0  0  0  0  0  0  0  0  0  0
    8.7494   15.4928   21.8860 C   0  0  0  0  0  0  0  0  0  0  0  0
    5.5794   13.0635   25.4880 C   0  0  0  0  0  0  0  0  0  0  0  0
    4.4168   13.3541   24.6473 N   0  0  0  0  0  0  0  0  0  0  0  0
    4.6109   13.0284   23.7004 H   0  0  0  0  0  0  0  0  0  0  0  0
    4.0909   14.7886   24.5923 C   0  0  0  0  0  0  0  0  0  0  0  0
    3.9949   15.2985   23.1424 C   0  0  0  0  0  0  0  0  0  0  0  0
    3.4400   13.7391   18.9843 C   0  0  0  0  0  0  0  0  0  0  0  0
    2.7175   13.4026   20.2454 C   0  0  0  0  0  0  0  0  0  0  0  0
    2.7330   14.1284   21.3245 C   0  0  0  0  0  0  0  0  0  0  0  0
    2.7568   14.8628   22.3990 C   0  0  0  0  0  0  0  0  0  0  0  0
 19 20  1  0  0  0
 20 21  2  0  0  0
 21 22  2  0  0  0
 22 18  1  0  0  0
 18 17  1  0  0  0
 17 15  1  0  0  0
 15 14  1  0  0  0
 14  1  1  0  0  0
  1  2  2  0  0  0
  2  3  1  0  0  0
  3  4  1  0  0  0
  3  5  2  0  0  0
  5  6  1  0  0  0
  6  8  1  0  0  0
  8  9  1  0  0  0
  9 10  1  0  0  0
 10 11  1  0  0  0
 11 12  1  0  0  0
 12 13  1  0  0  0
  6  7  2  0  0  0
  7  1  1  0  0  0
 13  8  1  0  0  0
 15 16  1  0  0  0
M  END
> <minimizedAffinity>
-6.16716

> <minimizedRMSD>
2.99967

$$$$
C1794-P481


 13 14  0  0  0  0  0  0  0  0999 V2000
    9.7330   15.2356   23.5251 C   0  0  0  0  0  0  0  0  0  0  0  0
    9.2824   15.6620   22.1106 C   0  0  0  0  0  0  0  0  0  0  0  0
   10.3253   15.4577   21.0169 C   0  0  0  0  0  0  0  0  0  0  0  0
   11.7016   15.9285   21.4576 C   0  0  0  0  0  0  0  0  0  0  0  0
   12.0762   15.3225   22.8025 C   0  0  0  0  0  0  0  0  0  0  0  0
   11.1078   15.6677   23.8512 N   0  0  0  0  0  0  0  0  0  0  0  0
   11.1101   16.6800   23.9766 H   0  0  0  0  0  0  0  0  0  0  0  0
    8.5689   12.1682   25.4988 C   0  0  0  0  0  0  0  0  0  0  0  0
    8.8642   11.1742   24.5872 C   0  0  0  0  0  0  0  0  0  0  0  0
    9.4231   11.4198   23.3892 N   0  0  0  0  0  0  0  0  0  0  0  0
    9.6921   12.7138   23.0824 C   0  0  0  0  0  0  0  0  0  0  0  0
    9.4450   13.7949   23.9160 C   0  0  0  0  0  0  0  0  0  0  0  0
    8.8765   13.4871   25.1624 C   0  0  0  0  0  0  0  0  0  0  0  0
  8  9  2  0  0  0
  9 10  1  0  0  0
 10 11  2  0  0  0
 11 12  1  0  0  0
  1 12  1  0  0  0
  1  2  1  0  0  0
  2  3  1  0  0  0
  3  4  1  0  0  0
  4  5  1  0  0  0
  5  6  1  0  0  0
 12 13  2  0  0  0
 13  8  1  0  0  0
  6  1  1  0  0  0
  6  7  1  0  0  0
M  END
> <minimizedAffinity>
-5.02908

> <minimizedRMSD>
0.49431

$$$$
C715-P481


 12 13  0  0  0  0  0  0  0  0999 V2000
    9.5893   11.4370   23.5465 C   0  0  0  0  0  0  0  0  0  0  0  0
    9.1166   11.3157   24.8386 C   0  0  0  0  0  0  0  0  0  0  0  0
    8.8702   12.3683   25.6433 N   0  0  0  0  0  0  0  0  0  0  0  0
    9.1017   13.5975   25.1087 C   0  0  0  0  0  0  0  0  0  0  0  0
    9.5696   13.8463   23.8148 C   0  0  0  0  0  0  0  0  0  0  0  0
    9.8160   12.7175   23.0390 C   0  0  0  0  0  0  0  0  0  0  0  0
    9.7810   15.1514   23.3729 N   0  0  0  0  0  0  0  0  0  0  0  0
   11.1371   15.6708   23.5710 C   0  0  0  0  0  0  0  0  0  0  0  0
   12.0167   15.4704   22.3422 C   0  0  0  0  0  0  0  0  0  0  0  0
   11.3684   16.0626   21.0986 C   0  0  0  0  0  0  0  0  0  0  0  0
    9.9814   15.4678   20.8908 C   0  0  0  0  0  0  0  0  0  0  0  0
    9.1041   15.5842   22.1362 C   0  0  0  0  0  0  0  0  0  0  0  0
  1  2  2  0  0  0
  2  3  1  0  0  0
  3  4  2  0  0  0
  4  5  1  0  0  0
  5  7  1  0  0  0
  7  8  1  0  0  0
  8  9  1  0  0  0
  9 10  1  0  0  0
 10 11  1  0  0  0
 11 12  1  0  0  0
  5  6  2  0  0  0
  6  1  1  0  0  0
 12  7  1  0  0  0
M  END
> <minimizedAffinity>
-4.89816

> <minimizedRMSD>
0.72651

$$$$
C48047-P481


 13 14  0  0  0  0  0  0  0  0999 V2000
    9.6405   15.2485   23.5709 C   0  0  0  0  0  0  0  0  0  0  0  0
   11.1233   15.5963   23.7774 C   0  0  0  0  0  0  0  0  0  0  0  0
   11.9798   15.3365   22.5444 C   0  0  0  0  0  0  0  0  0  0  0  0
   11.4521   16.0589   21.4004 N   0  0  0  0  0  0  0  0  0  0  0  0
   10.1217   15.5760   21.0433 C   0  0  0  0  0  0  0  0  0  0  0  0
    9.1252   15.7205   22.1950 C   0  0  0  0  0  0  0  0  0  0  0  0
   12.0784   15.9284   20.6060 H   0  0  0  0  0  0  0  0  0  0  0  0
    8.5547   12.1274   25.4944 C   0  0  0  0  0  0  0  0  0  0  0  0
    8.9016   11.1551   24.5769 C   0  0  0  0  0  0  0  0  0  0  0  0
    9.4490   11.4335   23.3799 N   0  0  0  0  0  0  0  0  0  0  0  0
    9.6493   12.7381   23.0777 C   0  0  0  0  0  0  0  0  0  0  0  0
    9.3557   13.7971   23.9242 C   0  0  0  0  0  0  0  0  0  0  0  0
    8.7972   13.4605   25.1657 C   0  0  0  0  0  0  0  0  0  0  0  0
  8  9  2  0  0  0
  9 10  1  0  0  0
 10 11  2  0  0  0
 11 12  1  0  0  0
 12  1  1  0  0  0
  1  2  1  0  0  0
  2  3  1  0  0  0
  3  4  1  0  0  0
  4  5  1  0  0  0
  5  6  1  0  0  0
 12 13  2  0  0  0
 13  8  1  0  0  0
  6  1  1  0  0  0
  4  7  1  0  0  0
M  END
> <minimizedAffinity>
-4.88731

> <minimizedRMSD>
0.62427

$$$$
C736-P439


 12 13  0  0  0  0  0  0  0  0999 V2000
   10.4897   15.8140   20.8798 C   0  0  0  0  0  0  0  0  0  0  0  0
   11.6402   15.5187   21.5891 C   0  0  0  0  0  0  0  0  0  0  0  0
   11.5191   14.9413   22.8480 C   0  0  0  0  0  0  0  0  0  0  0  0
   10.2536   14.6299   23.3599 C   0  0  0  0  0  0  0  0  0  0  0  0
    9.1324   14.9662   22.6921 N   0  0  0  0  0  0  0  0  0  0  0  0
    9.2743   15.5526   21.4828 C   0  0  0  0  0  0  0  0  0  0  0  0
   10.1560   13.8924   24.5608 N   0  0  0  0  0  0  0  0  0  0  0  0
   10.7552   12.5564   24.4201 C   0  0  0  0  0  0  0  0  0  0  0  0
    9.6944   11.4760   24.2581 C   0  0  0  0  0  0  0  0  0  0  0  0
    8.7297   11.4504   25.4365 C   0  0  0  0  0  0  0  0  0  0  0  0
    8.6783   12.7856   26.1650 C   0  0  0  0  0  0  0  0  0  0  0  0
    8.8193   13.9365   25.1761 C   0  0  0  0  0  0  0  0  0  0  0  0
  1  2  2  0  0  0
  2  3  1  0  0  0
  3  4  2  0  0  0
  4  7  1  0  0  0
  7  8  1  0  0  0
  8  9  1  0  0  0
  9 10  1  0  0  0
 10 11  1  0  0  0
 11 12  1  0  0  0
  4  5  1  0  0  0
  5  6  2  0  0  0
  6  1  1  0  0  0
 12  7  1  0  0  0
M  END
> <minimizedAffinity>
-5.32971

> <minimizedRMSD>
0.68517

$$$$
C46475-P481


 20 22  0  0  0  0  0  0  0  0999 V2000
   13.5469   -7.7673   17.3008 C   0  0  0  0  0  0  0  0  0  0  0  0
   13.6707   -5.2168   17.3313 C   0  0  0  0  0  0  0  0  0  0  0  0
   14.3929   -4.0630   17.6376 C   0  0  0  0  0  0  0  0  0  0  0  0
   15.7191   -4.1662   18.0583 C   0  0  0  0  0  0  0  0  0  0  0  0
   16.3323   -5.3755   18.1199 N   0  0  0  0  0  0  0  0  0  0  0  0
   15.6077   -6.4765   17.8372 C   0  0  0  0  0  0  0  0  0  0  0  0
   14.2726   -6.4656   17.4712 C   0  0  0  0  0  0  0  0  0  0  0  0
   16.4877   -2.9402   18.4971 C   0  0  0  0  0  0  0  0  0  0  0  0
   17.1475   -2.8969   19.8581 C   0  0  0  0  0  0  0  0  0  0  0  0
   17.9892   -2.9965   18.6177 C   0  0  0  0  0  0  0  0  0  0  0  0
   13.7892   -8.3867   16.0002 N   0  0  0  0  0  0  0  0  0  0  0  0
   14.7435   -8.7458   15.9725 H   0  0  0  0  0  0  0  0  0  0  0  0
   12.8530   -9.4897   15.7722 C   0  0  0  0  0  0  0  0  0  0  0  0
   12.1482   -9.3618   14.4106 C   0  0  0  0  0  0  0  0  0  0  0  0
   11.9889   -7.8947   13.9813 C   0  0  0  0  0  0  0  0  0  0  0  0
   11.1523   -7.7907   12.7110 C   0  0  0  0  0  0  0  0  0  0  0  0
    9.8291   -8.5366   12.8462 C   0  0  0  0  0  0  0  0  0  0  0  0
   10.0407   -9.9350   13.2148 N   0  0  0  0  0  0  0  0  0  0  0  0
   10.7713  -10.0461   14.4787 C   0  0  0  0  0  0  0  0  0  0  0  0
   10.5769  -10.3953   12.4793 H   0  0  0  0  0  0  0  0  0  0  0  0
  2  3  2  0  0  0
  3  4  1  0  0  0
  4  8  1  0  0  0
  8  9  1  0  0  0
  9 10  1  0  0  0
  4  5  2  0  0  0
  5  6  1  0  0  0
  6  7  2  0  0  0
  7  1  1  0  0  0
  1 11  1  0  0  0
 11 13  1  0  0  0
 14 13  1  0  0  0
 14 15  1  0  0  0
 15 16  1  0  0  0
 16 17  1  0  0  0
 17 18  1  0  0  0
 18 19  1  0  0  0
  7  2  1  0  0  0
 19 14  1  0  0  0
 10  8  1  0  0  0
 11 12  1  0  0  0
 18 20  1  0  0  0
M  END
> <minimizedAffinity>
-4.95975

> <minimizedRMSD>
1.27865

$$$$
C47047-P322


 17 19  0  0  0  0  0  0  0  0999 V2000
   23.8262   23.4172   15.9780 C   0  0  0  0  0  0  0  0  0  0  0  0
   23.2367   23.0074   17.0794 N   0  0  0  0  0  0  0  0  0  0  0  0
   24.1885   22.4525   17.9212 C   0  0  0  0  0  0  0  0  0  0  0  0
   23.9347   21.8672   19.1770 C   0  0  0  0  0  0  0  0  0  0  0  0
   24.9944   21.3617   19.9368 C   0  0  0  0  0  0  0  0  0  0  0  0
   26.3099   21.4346   19.4697 C   0  0  0  0  0  0  0  0  0  0  0  0
   26.5765   21.9930   18.2095 C   0  0  0  0  0  0  0  0  0  0  0  0
   25.5042   22.4967   17.4558 C   0  0  0  0  0  0  0  0  0  0  0  0
   25.5269   23.2421   15.9036 S   0  0  0  0  0  0  0  0  0  0  0  0
   27.4504   20.9385   20.3271 C   0  0  0  0  0  0  0  0  0  0  0  0
   26.9930   20.3436   21.6725 C   0  0  0  0  0  0  0  0  0  0  0  0
   27.3248   21.2700   22.8583 C   0  0  0  0  0  0  0  0  0  0  0  0
   27.4902   20.5048   24.1723 C   0  0  0  0  0  0  0  0  0  0  0  0
   26.7069   19.1985   24.1659 C   0  0  0  0  0  0  0  0  0  0  0  0
   27.1179   18.2859   23.0980 N   0  0  0  0  0  0  0  0  0  0  0  0
   27.6248   18.9626   21.8966 C   0  0  0  0  0  0  0  0  0  0  0  0
   26.3121   17.7201   22.8317 H   0  0  0  0  0  0  0  0  0  0  0  0
  1  2  2  0  0  0
  2  3  1  0  0  0
  3  4  2  0  0  0
  4  5  1  0  0  0
  5  6  2  0  0  0
  6 10  1  0  0  0
 11 10  1  0  0  0
 11 12  1  0  0  0
 12 13  1  0  0  0
 13 14  1  0  0  0
 14 15  1  0  0  0
 15 16  1  0  0  0
  6  7  1  0  0  0
  7  8  2  0  0  0
  8  9  1  0  0  0
  9  1  1  0  0  0
  8  3  1  0  0  0
 16 11  1  0  0  0
 15 17  1  0  0  0
M  END
> <minimizedAffinity>
-3.73449

> <minimizedRMSD>
3.41109

$$$$
C47049-P322


 19 21  0  0  0  0  0  0  0  0999 V2000
   25.8156   22.8526   16.7014 C   0  0  0  0  0  0  0  0  0  0  0  0
   25.0707   22.4712   17.7171 N   0  0  0  0  0  0  0  0  0  0  0  0
   25.8621   21.8574   18.6723 C   0  0  0  0  0  0  0  0  0  0  0  0
   25.4081   21.3326   19.8969 C   0  0  0  0  0  0  0  0  0  0  0  0
   26.3248   20.7949   20.8031 C   0  0  0  0  0  0  0  0  0  0  0  0
   27.6914   20.7675   20.5091 C   0  0  0  0  0  0  0  0  0  0  0  0
   28.1537   21.2403   19.2711 C   0  0  0  0  0  0  0  0  0  0  0  0
   27.2228   21.7892   18.3742 C   0  0  0  0  0  0  0  0  0  0  0  0
   27.4893   22.4802   16.8223 S   0  0  0  0  0  0  0  0  0  0  0  0
   23.8594   23.2932   15.1915 C   0  0  0  0  0  0  0  0  0  0  0  0
   25.3171   23.5973   15.5021 C   0  0  0  0  0  0  0  0  0  0  0  0
   28.6689   20.2672   21.5472 C   0  0  0  0  0  0  0  0  0  0  0  0
   28.5796   21.0533   22.8757 C   0  0  0  0  0  0  0  0  0  0  0  0
   28.9917   22.5281   22.7230 C   0  0  0  0  0  0  0  0  0  0  0  0
   30.5040   22.6864   22.5715 C   0  0  0  0  0  0  0  0  0  0  0  0
   31.2539   21.9482   23.6786 C   0  0  0  0  0  0  0  0  0  0  0  0
   30.8726   20.5382   23.7675 N   0  0  0  0  0  0  0  0  0  0  0  0
   29.4321   20.3982   23.9776 C   0  0  0  0  0  0  0  0  0  0  0  0
   31.3673   20.1073   24.5485 H   0  0  0  0  0  0  0  0  0  0  0  0
 10 11  1  0  0  0
 11  1  1  0  0  0
  1  2  2  0  0  0
  2  3  1  0  0  0
  3  4  2  0  0  0
  4  5  1  0  0  0
  5  6  2  0  0  0
  6 12  1  0  0  0
 13 12  1  0  0  0
 13 14  1  0  0  0
 14 15  1  0  0  0
 15 16  1  0  0  0
 16 17  1  0  0  0
 17 18  1  0  0  0
  6  7  1  0  0  0
  7  8  2  0  0  0
  8  9  1  0  0  0
  9  1  1  0  0  0
  8  3  1  0  0  0
 18 13  1  0  0  0
 17 19  1  0  0  0
M  END
> <minimizedAffinity>
-3.66189

> <minimizedRMSD>
1.46831

$$$$
C47050-P322


 20 22  0  0  0  0  0  0  0  0999 V2000
   25.7770   22.8390   16.4368 C   0  0  0  0  0  0  0  0  0  0  0  0
   25.0785   22.4629   17.4891 N   0  0  0  0  0  0  0  0  0  0  0  0
   25.9195   21.9267   18.4472 C   0  0  0  0  0  0  0  0  0  0  0  0
   25.5235   21.4461   19.7098 C   0  0  0  0  0  0  0  0  0  0  0  0
   26.4905   21.0135   20.6213 C   0  0  0  0  0  0  0  0  0  0  0  0
   27.8486   21.0477   20.2932 C   0  0  0  0  0  0  0  0  0  0  0  0
   28.2521   21.4584   19.0126 C   0  0  0  0  0  0  0  0  0  0  0  0
   27.2719   21.9028   18.1122 C   0  0  0  0  0  0  0  0  0  0  0  0
   27.4628   22.4998   16.5125 S   0  0  0  0  0  0  0  0  0  0  0  0
   23.6641   23.4007   15.2153 C   0  0  0  0  0  0  0  0  0  0  0  0
   25.1911   23.5364   15.2323 C   0  0  0  0  0  0  0  0  0  0  0  0
   25.5488   25.0275   15.2153 C   0  0  0  0  0  0  0  0  0  0  0  0
   28.8896   20.6856   21.3249 C   0  0  0  0  0  0  0  0  0  0  0  0
   28.4177   20.8783   22.7811 C   0  0  0  0  0  0  0  0  0  0  0  0
   28.7746   19.6377   23.6158 C   0  0  0  0  0  0  0  0  0  0  0  0
   28.4104   19.8430   25.0827 C   0  0  0  0  0  0  0  0  0  0  0  0
   29.0227   21.1303   25.6256 C   0  0  0  0  0  0  0  0  0  0  0  0
   28.6179   22.2835   24.8252 N   0  0  0  0  0  0  0  0  0  0  0  0
   29.0270   22.1371   23.4237 C   0  0  0  0  0  0  0  0  0  0  0  0
   29.0510   23.1227   25.2107 H   0  0  0  0  0  0  0  0  0  0  0  0
 10 11  1  0  0  0
 11 12  1  0  0  0
 11  1  1  0  0  0
  1  2  2  0  0  0
  2  3  1  0  0  0
  3  4  2  0  0  0
  4  5  1  0  0  0
  5  6  2  0  0  0
  6 13  1  0  0  0
 14 13  1  0  0  0
 14 15  1  0  0  0
 15 16  1  0  0  0
 16 17  1  0  0  0
 17 18  1  0  0  0
 18 19  1  0  0  0
  6  7  1  0  0  0
  7  8  2  0  0  0
  8  9  1  0  0  0
  9  1  1  0  0  0
  8  3  1  0  0  0
 19 14  1  0  0  0
 18 20  1  0  0  0
M  END
> <minimizedAffinity>
-3.46971

> <minimizedRMSD>
2.14780

$$$$
C47054-P322


 18 20  0  0  0  0  0  0  0  0999 V2000
   26.1404   23.1621   15.8443 C   0  0  0  0  0  0  0  0  0  0  0  0
   26.4177   22.4804   17.1361 C   0  0  0  0  0  0  0  0  0  0  0  0
   25.5044   22.2237   18.0480 N   0  0  0  0  0  0  0  0  0  0  0  0
   26.0918   21.5737   19.1219 C   0  0  0  0  0  0  0  0  0  0  0  0
   25.4228   21.1134   20.2730 C   0  0  0  0  0  0  0  0  0  0  0  0
   26.1468   20.5069   21.3047 C   0  0  0  0  0  0  0  0  0  0  0  0
   27.5334   20.3622   21.2146 C   0  0  0  0  0  0  0  0  0  0  0  0
   28.2098   20.7838   20.0584 C   0  0  0  0  0  0  0  0  0  0  0  0
   27.4708   21.3862   19.0286 C   0  0  0  0  0  0  0  0  0  0  0  0
   28.0214   22.0109   17.5241 S   0  0  0  0  0  0  0  0  0  0  0  0
   28.3213   19.7933   22.3705 C   0  0  0  0  0  0  0  0  0  0  0  0
   29.2379   20.8272   23.0576 C   0  0  0  0  0  0  0  0  0  0  0  0
   29.9265   20.1903   24.2776 C   0  0  0  0  0  0  0  0  0  0  0  0
   30.4704   21.2247   25.2633 C   0  0  0  0  0  0  0  0  0  0  0  0
   30.6037   22.6027   24.6304 C   0  0  0  0  0  0  0  0  0  0  0  0
   29.3204   23.1069   24.1461 N   0  0  0  0  0  0  0  0  0  0  0  0
   28.4839   22.0953   23.4888 C   0  0  0  0  0  0  0  0  0  0  0  0
   29.5028   23.8547   23.4769 H   0  0  0  0  0  0  0  0  0  0  0  0
  1  2  1  0  0  0
  2  3  2  0  0  0
  3  4  1  0  0  0
  4  5  2  0  0  0
  5  6  1  0  0  0
  6  7  2  0  0  0
  7 11  1  0  0  0
 12 11  1  0  0  0
 12 13  1  0  0  0
 13 14  1  0  0  0
 14 15  1  0  0  0
 15 16  1  0  0  0
 16 17  1  0  0  0
  7  8  1  0  0  0
  8  9  2  0  0  0
  9 10  1  0  0  0
 10  2  1  0  0  0
  9  4  1  0  0  0
 17 12  1  0  0  0
 16 18  1  0  0  0
M  END
> <minimizedAffinity>
-3.38219

> <minimizedRMSD>
1.46202

$$$$
C47072-P322


 23 25  0  0  0  0  0  0  0  0999 V2000
   28.3487   20.6164   21.3024 C   0  0  0  0  0  0  0  0  0  0  0  0
   28.4925   19.6765   22.3384 C   0  0  0  0  0  0  0  0  0  0  0  0
   27.3915   19.0039   22.8525 C   0  0  0  0  0  0  0  0  0  0  0  0
   26.1163   19.2691   22.3510 C   0  0  0  0  0  0  0  0  0  0  0  0
   25.9418   20.2042   21.3075 C   0  0  0  0  0  0  0  0  0  0  0  0
   24.7227   20.5369   20.7376 N   0  0  0  0  0  0  0  0  0  0  0  0
   24.8983   21.4250   19.7771 C   0  0  0  0  0  0  0  0  0  0  0  0
   26.5186   21.9470   19.5565 S   0  0  0  0  0  0  0  0  0  0  0  0
   27.0606   20.8675   20.7882 C   0  0  0  0  0  0  0  0  0  0  0  0
   29.9100   22.2543   21.5180 O   0  0  0  0  0  0  0  0  0  0  0  0
   29.5643   21.3533   20.8667 C   0  0  0  0  0  0  0  0  0  0  0  0
   30.1786   20.7504   19.5957 N   0  0  0  0  0  0  0  0  0  0  0  0
   29.6493   20.0294   19.1843 H   0  0  0  0  0  0  0  0  0  0  0  0
   31.4138   21.0704   18.9008 C   0  0  0  0  0  0  0  0  0  0  0  0
   31.3269   22.4434   18.2377 C   0  0  0  0  0  0  0  0  0  0  0  0
   30.4417   22.4435   16.9865 C   0  0  0  0  0  0  0  0  0  0  0  0
   30.2082   21.0530   16.3956 C   0  0  0  0  0  0  0  0  0  0  0  0
   31.3992   20.2270   16.4940 N   0  0  0  0  0  0  0  0  0  0  0  0
   31.8112   19.9789   17.8815 C   0  0  0  0  0  0  0  0  0  0  0  0
   32.1623   20.6973   16.0073 H   0  0  0  0  0  0  0  0  0  0  0  0
   23.8025   21.9990   18.9300 C   0  0  0  0  0  0  0  0  0  0  0  0
   23.3901   23.2059   19.4175 F   0  0  0  0  0  0  0  0  0  0  0  0
   24.1891   22.2331   17.6444 F   0  0  0  0  0  0  0  0  0  0  0  0
 10 11  2  0  0  0
 11 12  1  0  0  0
 14 12  1  0  0  0
 14 15  1  0  0  0
 15 16  1  0  0  0
 16 17  1  0  0  0
 17 18  1  0  0  0
 18 19  1  0  0  0
 11  1  1  0  0  0
  1  2  2  0  0  0
  2  3  1  0  0  0
  3  4  2  0  0  0
  4  5  1  0  0  0
  5  6  1  0  0  0
  6  7  2  0  0  0
  7 21  1  0  0  0
 21 22  1  0  0  0
 21 23  1  0  0  0
  7  8  1  0  0  0
  8  9  1  0  0  0
 19 14  1  0  0  0
  9  1  1  0  0  0
  9  5  2  0  0  0
 12 13  1  0  0  0
 18 20  1  0  0  0
M  END
> <minimizedAffinity>
-4.33004

> <minimizedRMSD>
1.66599

$$$$
C51714-P354


 24 26  0  0  0  0  0  0  0  0999 V2000
    4.0688   12.0962   28.2429 N   0  0  0  0  0  0  0  0  0  0  0  0
    4.6946   10.7970   27.7038 C   0  0  0  0  0  0  0  0  0  0  0  0
    4.4089    9.6847   27.8973 O   0  0  0  0  0  0  0  0  0  0  0  0
    4.4477   12.9233   27.8665 H   0  0  0  0  0  0  0  0  0  0  0  0
    5.8353   11.0787   26.7819 C   0  0  0  0  0  0  0  0  0  0  0  0
    6.3234   12.3703   26.5797 C   0  0  0  0  0  0  0  0  0  0  0  0
    7.3915   12.5710   25.7017 C   0  0  0  0  0  0  0  0  0  0  0  0
    8.0722   14.3249   25.5086 Br  0  0  0  0  0  0  0  0  0  0  0  0
    7.9683   11.5034   25.0090 C   0  0  0  0  0  0  0  0  0  0  0  0
    7.4775   10.2204   25.2170 C   0  0  0  0  0  0  0  0  0  0  0  0
    6.4055   10.0071   26.0868 C   0  0  0  0  0  0  0  0  0  0  0  0
    8.0064    9.1125   24.6271 O   0  0  0  0  0  0  0  0  0  0  0  0
    8.9133    9.3881   23.5593 C   0  0  0  0  0  0  0  0  0  0  0  0
    9.7244   10.6400   23.7340 C   0  0  0  0  0  0  0  0  0  0  0  0
    8.9654   11.7770   24.1175 O   0  0  0  0  0  0  0  0  0  0  0  0
    3.5104   13.1987   30.3444 C   0  0  0  0  0  0  0  0  0  0  0  0
    3.0107   12.3004   29.2162 C   0  0  0  0  0  0  0  0  0  0  0  0
    1.7146   12.7784   28.5156 C   0  0  0  0  0  0  0  0  0  0  0  0
    0.9979   13.8782   29.3174 C   0  0  0  0  0  0  0  0  0  0  0  0
   -0.2706   14.3288   28.5952 C   0  0  0  0  0  0  0  0  0  0  0  0
    0.0280   14.7263   27.1514 C   0  0  0  0  0  0  0  0  0  0  0  0
    0.6902   13.6466   26.4159 N   0  0  0  0  0  0  0  0  0  0  0  0
    1.9424   13.2509   27.0690 C   0  0  0  0  0  0  0  0  0  0  0  0
    0.8951   13.9658   25.4691 H   0  0  0  0  0  0  0  0  0  0  0  0
 17 16  1  0  0  0
 17  1  1  0  0  0
  1  2  1  0  0  0
  2  3  2  0  0  0
  2  5  1  0  0  0
  5  6  2  0  0  0
  6  7  1  0  0  0
  7  8  1  0  0  0
  7  9  2  0  0  0
  9 10  1  0  0  0
 10 11  2  0  0  0
 10 12  1  0  0  0
 12 13  1  0  0  0
 13 14  1  0  0  0
 14 15  1  0  0  0
 17 18  1  0  0  0
 18 19  1  0  0  0
 19 20  1  0  0  0
 20 21  1  0  0  0
 21 22  1  0  0  0
 22 23  1  0  0  0
 11  5  1  0  0  0
 23 18  1  0  0  0
 15  9  1  0  0  0
  1  4  1  0  0  0
 22 24  1  0  0  0
M  END
> <minimizedAffinity>
-5.12336

> <minimizedRMSD>
1.80573

$$$$
C45903-P405


 23 25  0  0  0  0  0  0  0  0999 V2000
   25.7286   19.6347   22.5019 C   0  0  0  0  0  0  0  0  0  0  0  0
   25.3388   20.6189   23.3797 C   0  0  0  0  0  0  0  0  0  0  0  0
   25.7550   21.8858   23.0868 C   0  0  0  0  0  0  0  0  0  0  0  0
   26.4633   22.1952   21.9952 N   0  0  0  0  0  0  0  0  0  0  0  0
   26.7473   21.2073   21.1279 C   0  0  0  0  0  0  0  0  0  0  0  0
   26.4097   19.9237   21.3755 N   0  0  0  0  0  0  0  0  0  0  0  0
   27.3468   21.5740   19.9112 N   0  0  0  0  0  0  0  0  0  0  0  0
   28.7749   21.8439   19.9941 C   0  0  0  0  0  0  0  0  0  0  0  0
   29.3821   21.9621   18.5973 C   0  0  0  0  0  0  0  0  0  0  0  0
   28.6451   22.9991   17.7615 C   0  0  0  0  0  0  0  0  0  0  0  0
   27.1564   22.6801   17.7231 C   0  0  0  0  0  0  0  0  0  0  0  0
   26.5670   22.5333   19.1278 C   0  0  0  0  0  0  0  0  0  0  0  0
   25.4436   18.2886   22.8049 N   0  0  0  0  0  0  0  0  0  0  0  0
   25.0350   17.6700   22.1572 H   0  0  0  0  0  0  0  0  0  0  0  0
   25.8063   17.8895   24.1629 C   0  0  0  0  0  0  0  0  0  0  0  0
   24.6709   17.2418   24.9601 C   0  0  0  0  0  0  0  0  0  0  0  0
   22.7882   18.6064   25.5034 O   0  0  0  0  0  0  0  0  0  0  0  0
   23.2644   17.6741   24.5279 C   0  0  0  0  0  0  0  0  0  0  0  0
   23.3892   19.3667   25.5445 H   0  0  0  0  0  0  0  0  0  0  0  0
   22.3196   16.4746   24.4605 C   0  0  0  0  0  0  0  0  0  0  0  0
   22.7340   15.1453   25.1571 C   0  0  0  0  0  0  0  0  0  0  0  0
   21.2394   14.9262   25.4655 C   0  0  0  0  0  0  0  0  0  0  0  0
   21.0706   16.4568   25.3859 C   0  0  0  0  0  0  0  0  0  0  0  0
 18 17  1  0  0  0
 18 16  1  0  0  0
 16 15  1  0  0  0
 15 13  1  0  0  0
 13  1  1  0  0  0
  1  2  2  0  0  0
  2  3  1  0  0  0
  3  4  2  0  0  0
  4  5  1  0  0  0
  5  7  1  0  0  0
  7  8  1  0  0  0
  8  9  1  0  0  0
  9 10  1  0  0  0
 10 11  1  0  0  0
 11 12  1  0  0  0
  5  6  2  0  0  0
 18 20  1  0  0  0
 20 21  1  0  0  0
 21 22  1  0  0  0
 22 23  1  0  0  0
  6  1  1  0  0  0
 23 20  1  0  0  0
 12  7  1  0  0  0
 17 19  1  0  0  0
 13 14  1  0  0  0
M  END
> <minimizedAffinity>
-4.15383

> <minimizedRMSD>
2.22000

$$$$
C27143-P405


 23 25  0  0  0  0  0  0  0  0999 V2000
   25.8006   18.4394   23.7746 C   0  0  0  0  0  0  0  0  0  0  0  0
   24.5287   18.1988   24.2146 C   0  0  0  0  0  0  0  0  0  0  0  0
   23.5251   18.8371   23.5248 C   0  0  0  0  0  0  0  0  0  0  0  0
   23.7861   19.6316   22.4748 N   0  0  0  0  0  0  0  0  0  0  0  0
   25.0639   19.8215   22.0948 C   0  0  0  0  0  0  0  0  0  0  0  0
   26.0877   19.2296   22.7286 N   0  0  0  0  0  0  0  0  0  0  0  0
   25.3321   20.6256   20.9751 N   0  0  0  0  0  0  0  0  0  0  0  0
   26.6814   21.1883   20.9731 C   0  0  0  0  0  0  0  0  0  0  0  0
   26.9857   21.8435   19.6284 C   0  0  0  0  0  0  0  0  0  0  0  0
   25.9253   22.8745   19.2678 C   0  0  0  0  0  0  0  0  0  0  0  0
   24.5392   22.2421   19.3074 C   0  0  0  0  0  0  0  0  0  0  0  0
   24.2595   21.5644   20.6503 C   0  0  0  0  0  0  0  0  0  0  0  0
   22.1928   18.5915   23.9232 N   0  0  0  0  0  0  0  0  0  0  0  0
   21.5905   17.9856   23.4340 H   0  0  0  0  0  0  0  0  0  0  0  0
   21.7868   19.3164   25.1261 C   0  0  0  0  0  0  0  0  0  0  0  0
   20.3264   19.7407   25.0063 C   0  0  0  0  0  0  0  0  0  0  0  0
   20.0886   20.6525   23.8079 C   0  0  0  0  0  0  0  0  0  0  0  0
   19.8104   19.8264   22.6745 O   0  0  0  0  0  0  0  0  0  0  0  0
   20.1875   20.4315   21.4447 C   0  0  0  0  0  0  0  0  0  0  0  0
   20.8759   19.4885   20.4832 C   0  0  0  0  0  0  0  0  0  0  0  0
   20.6198   20.1573   19.1514 C   0  0  0  0  0  0  0  0  0  0  0  0
   19.3499   20.8171   19.2504 O   0  0  0  0  0  0  0  0  0  0  0  0
   18.9619   20.8283   20.6337 C   0  0  0  0  0  0  0  0  0  0  0  0
  1  2  2  0  0  0
  2  3  1  0  0  0
  3 13  1  0  0  0
 13 15  1  0  0  0
 15 16  1  0  0  0
 16 17  1  0  0  0
 17 18  1  0  0  0
 19 18  1  0  0  0
 19 20  1  0  0  0
 20 21  1  0  0  0
 21 22  1  0  0  0
 22 23  1  0  0  0
  3  4  2  0  0  0
  4  5  1  0  0  0
  5  7  1  0  0  0
  7  8  1  0  0  0
  8  9  1  0  0  0
  9 10  1  0  0  0
 10 11  1  0  0  0
 11 12  1  0  0  0
  5  6  2  0  0  0
  6  1  1  0  0  0
 23 19  1  0  0  0
 12  7  1  0  0  0
 13 14  1  0  0  0
M  END
> <minimizedAffinity>
-4.51531

> <minimizedRMSD>
6.58561

$$$$
C70623-P205


 25 27  0  0  0  0  0  0  0  0999 V2000
    4.3179   14.8407   22.9433 N   0  0  0  0  0  0  0  0  0  0  0  0
    5.7879   14.3567   22.8042 C   0  0  0  0  0  0  0  0  0  0  0  0
    6.3419   13.9313   21.9019 O   0  0  0  0  0  0  0  0  0  0  0  0
    6.2841   14.6242   24.2534 N   0  0  0  0  0  0  0  0  0  0  0  0
    4.0954   15.2415   23.8146 H   0  0  0  0  0  0  0  0  0  0  0  0
    5.6307   15.0723   24.8379 H   0  0  0  0  0  0  0  0  0  0  0  0
    1.9776   14.1601   22.6094 C   0  0  0  0  0  0  0  0  0  0  0  0
    3.2212   14.7967   21.9957 C   0  0  0  0  0  0  0  0  0  0  0  0
    3.5542   14.1977   20.6691 C   0  0  0  0  0  0  0  0  0  0  0  0
    3.9985   14.8288   19.5967 N   0  0  0  0  0  0  0  0  0  0  0  0
    3.9397   13.8713   18.6141 C   0  0  0  0  0  0  0  0  0  0  0  0
    3.4813   12.6893   19.1322 C   0  0  0  0  0  0  0  0  0  0  0  0
    3.2153   12.8844   20.4513 O   0  0  0  0  0  0  0  0  0  0  0  0
    7.5495   14.3206   24.8794 C   0  0  0  0  0  0  0  0  0  0  0  0
    8.0530   12.9351   24.5672 C   0  0  0  0  0  0  0  0  0  0  0  0
    7.3286   11.8300   25.0681 C   0  0  0  0  0  0  0  0  0  0  0  0
    7.7209   10.5243   24.7915 C   0  0  0  0  0  0  0  0  0  0  0  0
    8.8285   10.3093   23.9872 C   0  0  0  0  0  0  0  0  0  0  0  0
    9.5600   11.4015   23.5042 C   0  0  0  0  0  0  0  0  0  0  0  0
    9.2173   12.7292   23.7994 C   0  0  0  0  0  0  0  0  0  0  0  0
    9.9800   13.8129   23.3713 N   0  0  0  0  0  0  0  0  0  0  0  0
    9.7009   14.3345   22.0136 C   0  0  0  0  0  0  0  0  0  0  0  0
   11.0261   14.9462   21.5418 C   0  0  0  0  0  0  0  0  0  0  0  0
   11.8430   15.0856   22.8146 C   0  0  0  0  0  0  0  0  0  0  0  0
   11.4259   13.8460   23.5929 C   0  0  0  0  0  0  0  0  0  0  0  0
  8  7  1  0  0  0
  8  1  1  0  0  0
  1  2  1  0  0  0
  2  3  2  0  0  0
  2  4  1  0  0  0
  4 14  1  0  0  0
 14 15  1  0  0  0
 15 16  2  0  0  0
 16 17  1  0  0  0
 17 18  2  0  0  0
 18 19  1  0  0  0
 19 20  2  0  0  0
 20 21  1  0  0  0
 21 22  1  0  0  0
 22 23  1  0  0  0
 23 24  1  0  0  0
 24 25  1  0  0  0
  8  9  1  0  0  0
  9 10  2  0  0  0
 10 11  1  0  0  0
 11 12  2  0  0  0
 12 13  1  0  0  0
 20 15  1  0  0  0
 25 21  1  0  0  0
 13  9  1  0  0  0
  1  5  1  0  0  0
  4  6  1  0  0  0
M  END
> <minimizedAffinity>
-6.36779

> <minimizedRMSD>
0.51117

$$$$
C97238-P252


 12 12  0  0  0  0  0  0  0  0999 V2000
    8.4883   12.4913   24.6896 C   0  0  0  0  0  0  0  0  0  0  0  0
    7.9176   11.2175   24.9136 C   0  0  0  0  0  0  0  0  0  0  0  0
    6.4942   10.9080   26.1049 Br  0  0  0  0  0  0  0  0  0  0  0  0
    8.5204   10.2334   24.2465 N   0  0  0  0  0  0  0  0  0  0  0  0
    9.4895   10.8757   23.5629 N   0  0  0  0  0  0  0  0  0  0  0  0
    9.5159   12.2173   23.8163 C   0  0  0  0  0  0  0  0  0  0  0  0
   10.7649   13.4704   23.1393 Br  0  0  0  0  0  0  0  0  0  0  0  0
   10.1115   10.4253   22.9468 H   0  0  0  0  0  0  0  0  0  0  0  0
    8.1254   13.7858   25.3333 C   0  0  0  0  0  0  0  0  0  0  0  0
    7.0268   14.5526   24.6197 C   0  0  0  0  0  0  0  0  0  0  0  0
    6.9763   16.5916   23.3129 O   0  0  0  0  0  0  0  0  0  0  0  0
    7.6199   15.6501   23.7697 C   0  0  0  0  0  0  0  0  0  0  0  0
 11 12  2  0  0  0
 12 10  1  0  0  0
 10  9  1  0  0  0
  9  1  1  0  0  0
  1  2  1  0  0  0
  2  3  1  0  0  0
  2  4  2  0  0  0
  4  5  1  0  0  0
  5  6  1  0  0  0
  6  7  1  0  0  0
  6  1  2  0  0  0
  5  8  1  0  0  0
M  END
> <minimizedAffinity>
-3.53773

> <minimizedRMSD>
1.29348

$$$$
C79798-P234


 14 15  0  0  0  0  0  0  0  0999 V2000
    8.4368   15.2150   24.4570 C   0  0  0  0  0  0  0  0  0  0  0  0
    9.4530   14.2643   23.8151 C   0  0  0  0  0  0  0  0  0  0  0  0
    9.7806   14.6367   22.4372 N   0  0  0  0  0  0  0  0  0  0  0  0
    8.9309   14.4675   21.2879 C   0  0  0  0  0  0  0  0  0  0  0  0
    9.8059   14.9023   20.1190 C   0  0  0  0  0  0  0  0  0  0  0  0
   10.6200   16.0237   20.7158 C   0  0  0  0  0  0  0  0  0  0  0  0
    9.4899   17.6086   20.6996 Br  0  0  0  0  0  0  0  0  0  0  0  0
   10.8082   15.5267   22.1390 C   0  0  0  0  0  0  0  0  0  0  0  0
   11.7095   15.8017   22.9165 O   0  0  0  0  0  0  0  0  0  0  0  0
    9.0597   12.8309   23.9748 C   0  0  0  0  0  0  0  0  0  0  0  0
    9.5234   11.6169   23.5153 C   0  0  0  0  0  0  0  0  0  0  0  0
    8.8455   10.5855   24.1160 N   0  0  0  0  0  0  0  0  0  0  0  0
    7.9794   11.1961   24.8877 C   0  0  0  0  0  0  0  0  0  0  0  0
    8.0579   12.5501   24.8742 O   0  0  0  0  0  0  0  0  0  0  0  0
  2  1  1  0  0  0
  2 10  1  0  0  0
 10 11  2  0  0  0
 11 12  1  0  0  0
 12 13  2  0  0  0
 13 14  1  0  0  0
  2  3  1  0  0  0
  3  4  1  0  0  0
  4  5  1  0  0  0
  5  6  1  0  0  0
  6  7  1  0  0  0
  6  8  1  0  0  0
  8  9  2  0  0  0
 14 10  1  0  0  0
  8  3  1  0  0  0
M  END
> <minimizedAffinity>
-5.57779

> <minimizedRMSD>
0.91294

$$$$
C79880-P200


 15 16  0  0  0  0  0  0  0  0999 V2000
    9.5408   14.4060   22.5299 N   0  0  0  0  0  0  0  0  0  0  0  0
    8.9768   14.7593   21.2529 C   0  0  0  0  0  0  0  0  0  0  0  0
   10.1444   14.6686   20.2905 C   0  0  0  0  0  0  0  0  0  0  0  0
    9.9481   15.4856   19.1565 O   0  0  0  0  0  0  0  0  0  0  0  0
   11.3280   15.0665   21.1433 C   0  0  0  0  0  0  0  0  0  0  0  0
   10.9268   14.5179   22.4966 C   0  0  0  0  0  0  0  0  0  0  0  0
   11.7084   14.2825   23.4076 O   0  0  0  0  0  0  0  0  0  0  0  0
    9.8127   16.4037   19.4389 H   0  0  0  0  0  0  0  0  0  0  0  0
    8.6207   14.5634   24.8920 C   0  0  0  0  0  0  0  0  0  0  0  0
    8.6985   13.8056   23.5712 C   0  0  0  0  0  0  0  0  0  0  0  0
    9.0614   12.3652   23.7608 C   0  0  0  0  0  0  0  0  0  0  0  0
    9.9514   11.6385   23.1099 N   0  0  0  0  0  0  0  0  0  0  0  0
    9.7335   10.3645   23.5646 C   0  0  0  0  0  0  0  0  0  0  0  0
    8.7138   10.3705   24.4803 C   0  0  0  0  0  0  0  0  0  0  0  0
    8.2735   11.6437   24.6187 O   0  0  0  0  0  0  0  0  0  0  0  0
 10  9  1  0  0  0
 10 11  1  0  0  0
 11 12  2  0  0  0
 12 13  1  0  0  0
 13 14  2  0  0  0
 14 15  1  0  0  0
 10  1  1  0  0  0
  1  2  1  0  0  0
  2  3  1  0  0  0
  3  4  1  0  0  0
  3  5  1  0  0  0
  5  6  1  0  0  0
  6  7  2  0  0  0
 15 11  1  0  0  0
  6  1  1  0  0  0
  4  8  1  0  0  0
M  END
> <minimizedAffinity>
-5.15086

> <minimizedRMSD>
0.84410

$$$$
C58995-P336


 15 16  0  0  0  0  0  0  0  0999 V2000
    8.9953   14.5326   24.1257 C   0  0  0  0  0  0  0  0  0  0  0  0
    8.5843   13.0678   23.8518 C   0  0  0  0  0  0  0  0  0  0  0  0
    7.4494   12.6503   24.7939 C   0  0  0  0  0  0  0  0  0  0  0  0
    7.5880   11.2384   25.3248 C   0  0  0  0  0  0  0  0  0  0  0  0
    8.1390   10.2968   24.3868 N   0  0  0  0  0  0  0  0  0  0  0  0
    9.4115   10.6628   23.7958 C   0  0  0  0  0  0  0  0  0  0  0  0
    9.7896   12.1289   23.9381 C   0  0  0  0  0  0  0  0  0  0  0  0
    7.4653   10.1788   23.6301 H   0  0  0  0  0  0  0  0  0  0  0  0
    7.8591   15.2220   22.0336 C   0  0  0  0  0  0  0  0  0  0  0  0
    9.0376   15.2894   22.8873 N   0  0  0  0  0  0  0  0  0  0  0  0
   10.2456   15.4687   22.3020 C   0  0  0  0  0  0  0  0  0  0  0  0
   11.3298   16.0270   22.8044 N   0  0  0  0  0  0  0  0  0  0  0  0
   12.2651   15.8751   21.8098 C   0  0  0  0  0  0  0  0  0  0  0  0
   11.7183   15.2024   20.7488 C   0  0  0  0  0  0  0  0  0  0  0  0
   10.4156   14.9553   21.0446 O   0  0  0  0  0  0  0  0  0  0  0  0
  9 10  1  0  0  0
 10  1  1  0  0  0
  1  2  1  0  0  0
  2  3  1  0  0  0
  3  4  1  0  0  0
  4  5  1  0  0  0
  5  6  1  0  0  0
  6  7  1  0  0  0
 10 11  1  0  0  0
 11 12  2  0  0  0
 12 13  1  0  0  0
 13 14  2  0  0  0
 14 15  1  0  0  0
  7  2  1  0  0  0
 15 11  1  0  0  0
  5  8  1  0  0  0
M  END
> <minimizedAffinity>
-5.43002

> <minimizedRMSD>
0.87752

$$$$
C58997-P336


 16 17  0  0  0  0  0  0  0  0999 V2000
    9.1227   15.0976   23.6116 C   0  0  0  0  0  0  0  0  0  0  0  0
    8.6763   13.6152   23.5900 C   0  0  0  0  0  0  0  0  0  0  0  0
    9.8407   12.6164   23.5745 C   0  0  0  0  0  0  0  0  0  0  0  0
    9.3231   11.1845   23.6176 C   0  0  0  0  0  0  0  0  0  0  0  0
    8.4820   10.9419   24.7827 N   0  0  0  0  0  0  0  0  0  0  0  0
    7.3915   11.8846   24.9304 C   0  0  0  0  0  0  0  0  0  0  0  0
    7.7825   13.3421   24.8111 C   0  0  0  0  0  0  0  0  0  0  0  0
    9.0667   10.9949   25.6168 H   0  0  0  0  0  0  0  0  0  0  0  0
   10.2613   15.3909   22.6699 C   0  0  0  0  0  0  0  0  0  0  0  0
   11.4518   15.8820   22.9711 N   0  0  0  0  0  0  0  0  0  0  0  0
   12.1240   15.8483   21.7740 C   0  0  0  0  0  0  0  0  0  0  0  0
   11.3109   15.3366   20.7937 C   0  0  0  0  0  0  0  0  0  0  0  0
   10.1092   15.0359   21.3579 O   0  0  0  0  0  0  0  0  0  0  0  0
    7.0079   15.7485   22.4775 C   0  0  0  0  0  0  0  0  0  0  0  0
    7.9852   16.0429   23.5191 N   0  0  0  0  0  0  0  0  0  0  0  0
    7.4995   16.0389   24.4160 H   0  0  0  0  0  0  0  0  0  0  0  0
 14 15  1  0  0  0
  1 15  1  0  0  0
  1  9  1  0  0  0
  9 10  2  0  0  0
 10 11  1  0  0  0
 11 12  2  0  0  0
 12 13  1  0  0  0
  1  2  1  0  0  0
  2  3  1  0  0  0
  3  4  1  0  0  0
  4  5  1  0  0  0
  5  6  1  0  0  0
  6  7  1  0  0  0
 13  9  1  0  0  0
  7  2  1  0  0  0
 15 16  1  0  0  0
  5  8  1  0  0  0
M  END
> <minimizedAffinity>
-4.77116

> <minimizedRMSD>
0.68550

$$$$
C109281-P200


 23 25  0  0  0  0  0  0  0  0999 V2000
    4.9091   14.3679   22.1431 C   0  0  0  0  0  0  0  0  0  0  0  0
    3.7356   14.6024   21.2431 C   0  0  0  0  0  0  0  0  0  0  0  0
    2.5733   15.2168   21.4097 N   0  0  0  0  0  0  0  0  0  0  0  0
    1.7757   14.7120   20.4085 C   0  0  0  0  0  0  0  0  0  0  0  0
    2.5023   13.8073   19.6921 C   0  0  0  0  0  0  0  0  0  0  0  0
    3.7865   13.8575   20.1088 O   0  0  0  0  0  0  0  0  0  0  0  0
    2.1488   12.6227   18.9075 C   0  0  0  0  0  0  0  0  0  0  0  0
    1.1249   11.8553   19.7649 C   0  0  0  0  0  0  0  0  0  0  0  0
    1.7666   11.1512   20.9652 C   0  0  0  0  0  0  0  0  0  0  0  0
    3.0735   10.6337   20.7109 O   0  0  0  0  0  0  0  0  0  0  0  0
    3.2617   10.4214   19.3277 C   0  0  0  0  0  0  0  0  0  0  0  0
    3.3573   11.7546   18.5939 C   0  0  0  0  0  0  0  0  0  0  0  0
    4.0725   15.1192   24.2350 C   0  0  0  0  0  0  0  0  0  0  0  0
    5.0710   15.3445   23.2084 N   0  0  0  0  0  0  0  0  0  0  0  0
    6.4096   15.3757   23.8010 C   0  0  0  0  0  0  0  0  0  0  0  0
    6.5261   14.6808   25.1720 C   0  0  0  0  0  0  0  0  0  0  0  0
    7.9591   14.6447   25.6704 C   0  0  0  0  0  0  0  0  0  0  0  0
    8.6423   13.4826   25.0516 C   0  0  0  0  0  0  0  0  0  0  0  0
    9.7622   13.6609   24.2520 C   0  0  0  0  0  0  0  0  0  0  0  0
   10.2999   12.5401   23.6604 C   0  0  0  0  0  0  0  0  0  0  0  0
    9.6899   11.3206   23.8944 C   0  0  0  0  0  0  0  0  0  0  0  0
    8.5564   11.2320   24.6677 C   0  0  0  0  0  0  0  0  0  0  0  0
    8.0386   12.2896   25.2815 N   0  0  0  0  0  0  0  0  0  0  0  0
 13 14  1  0  0  0
 14 15  1  0  0  0
 15 16  1  0  0  0
 16 17  1  0  0  0
 17 18  1  0  0  0
 18 19  2  0  0  0
 19 20  1  0  0  0
 20 21  2  0  0  0
 21 22  1  0  0  0
 22 23  2  0  0  0
 14  1  1  0  0  0
  1  2  1  0  0  0
  2  3  2  0  0  0
  3  4  1  0  0  0
  4  5  2  0  0  0
  5  7  1  0  0  0
  7  8  1  0  0  0
  8  9  1  0  0  0
  9 10  1  0  0  0
 10 11  1  0  0  0
 11 12  1  0  0  0
  5  6  1  0  0  0
 23 18  1  0  0  0
  6  2  1  0  0  0
 12  7  1  0  0  0
M  END
> <minimizedAffinity>
-5.50980

> <minimizedRMSD>
1.11878

$$$$
C3275-P465


 12 13  0  0  0  0  0  0  0  0999 V2000
    9.3905   11.4505   23.7548 C   0  0  0  0  0  0  0  0  0  0  0  0
    9.7985   12.6784   23.2700 C   0  0  0  0  0  0  0  0  0  0  0  0
    9.0341   13.7803   23.5901 C   0  0  0  0  0  0  0  0  0  0  0  0
    7.9269   13.6413   24.3393 N   0  0  0  0  0  0  0  0  0  0  0  0
    7.6088   12.4057   24.7545 C   0  0  0  0  0  0  0  0  0  0  0  0
    8.2922   11.2830   24.5078 N   0  0  0  0  0  0  0  0  0  0  0  0
    9.3783   15.0654   23.2046 N   0  0  0  0  0  0  0  0  0  0  0  0
   10.6756   15.5524   23.6640 C   0  0  0  0  0  0  0  0  0  0  0  0
   11.7378   15.4286   22.5750 C   0  0  0  0  0  0  0  0  0  0  0  0
   11.2921   16.1312   21.2986 C   0  0  0  0  0  0  0  0  0  0  0  0
    9.9566   15.5651   20.8316 C   0  0  0  0  0  0  0  0  0  0  0  0
    8.8901   15.5937   21.9260 C   0  0  0  0  0  0  0  0  0  0  0  0
  1  2  2  0  0  0
  2  3  1  0  0  0
  3  7  1  0  0  0
  7  8  1  0  0  0
  8  9  1  0  0  0
  9 10  1  0  0  0
 10 11  1  0  0  0
 11 12  1  0  0  0
  3  4  2  0  0  0
  4  5  1  0  0  0
  5  6  2  0  0  0
  6  1  1  0  0  0
 12  7  1  0  0  0
M  END
> <minimizedAffinity>
-5.12058

> <minimizedRMSD>
1.03965

$$$$
C55918-P109


 22 23  0  0  0  0  0  0  0  0999 V2000
   33.1831   21.8302   18.1563 C   0  0  0  0  0  0  0  0  0  0  0  0
   32.3171   20.5692   18.1423 C   0  0  0  0  0  0  0  0  0  0  0  0
   30.8348   20.9268   18.1792 C   0  0  0  0  0  0  0  0  0  0  0  0
   30.5569   21.8157   19.3068 N   0  0  0  0  0  0  0  0  0  0  0  0
   31.3274   23.0563   19.3488 C   0  0  0  0  0  0  0  0  0  0  0  0
   32.8214   22.7379   19.3335 C   0  0  0  0  0  0  0  0  0  0  0  0
   29.1866   21.9931   19.5557 C   0  0  0  0  0  0  0  0  0  0  0  0
   28.4113   20.9114   19.7552 N   0  0  0  0  0  0  0  0  0  0  0  0
   27.0921   21.1074   19.9624 C   0  0  0  0  0  0  0  0  0  0  0  0
   26.4850   22.3332   19.9201 C   0  0  0  0  0  0  0  0  0  0  0  0
   27.3523   23.3835   19.7729 C   0  0  0  0  0  0  0  0  0  0  0  0
   28.6829   23.2435   19.5912 N   0  0  0  0  0  0  0  0  0  0  0  0
   25.1496   22.5680   20.0037 O   0  0  0  0  0  0  0  0  0  0  0  0
   24.3658   21.9256   18.9727 C   0  0  0  0  0  0  0  0  0  0  0  0
   24.0910   22.8479   17.7824 C   0  0  0  0  0  0  0  0  0  0  0  0
   23.0493   21.5142   19.6275 C   0  0  0  0  0  0  0  0  0  0  0  0
   34.8920   20.0246   18.4667 N   0  0  0  0  0  0  0  0  0  0  0  0
   34.6865   21.5174   18.1060 C   0  0  0  0  0  0  0  0  0  0  0  0
   35.4633   22.3395   17.8168 O   0  0  0  0  0  0  0  0  0  0  0  0
   34.0606   19.5146   18.6007 H   0  0  0  0  0  0  0  0  0  0  0  0
   36.6537   18.8079   17.3017 C   0  0  0  0  0  0  0  0  0  0  0  0
   36.0998   19.2632   18.6375 C   0  0  0  0  0  0  0  0  0  0  0  0
 21 22  1  0  0  0
 22 17  1  0  0  0
 17 18  1  0  0  0
 18 19  2  0  0  0
 18  1  1  0  0  0
  1  2  1  0  0  0
  2  3  1  0  0  0
  3  4  1  0  0  0
  4  7  1  0  0  0
  7  8  2  0  0  0
  8  9  1  0  0  0
  9 10  2  0  0  0
 10 13  1  0  0  0
 13 14  1  0  0  0
 14 15  1  0  0  0
 14 16  1  0  0  0
 10 11  1  0  0  0
 11 12  2  0  0  0
  4  5  1  0  0  0
  5  6  1  0  0  0
  6  1  1  0  0  0
 12  7  1  0  0  0
 17 20  1  0  0  0
M  END
> <minimizedAffinity>
-3.11362

> <minimizedRMSD>
1.62024

$$$$
C109280-P136


 22 25  0  0  0  0  0  0  0  0999 V2000
   -0.6489   15.5415   20.9385 C   0  0  0  0  0  0  0  0  0  0  0  0
   -1.2850   15.5198   19.7222 N   0  0  0  0  0  0  0  0  0  0  0  0
   -0.6081   14.6337   19.0174 C   0  0  0  0  0  0  0  0  0  0  0  0
    0.4196   14.1554   19.7900 N   0  0  0  0  0  0  0  0  0  0  0  0
    0.3647   14.6731   21.0301 N   0  0  0  0  0  0  0  0  0  0  0  0
   -2.2753   18.2922   22.8590 C   0  0  0  0  0  0  0  0  0  0  0  0
   -1.8928   17.5058   21.7868 C   0  0  0  0  0  0  0  0  0  0  0  0
   -1.0657   16.4086   22.0309 C   0  0  0  0  0  0  0  0  0  0  0  0
   -0.6462   16.1596   23.3412 C   0  0  0  0  0  0  0  0  0  0  0  0
   -1.0804   17.0055   24.3461 C   0  0  0  0  0  0  0  0  0  0  0  0
   -1.8947   18.0606   24.1339 N   0  0  0  0  0  0  0  0  0  0  0  0
    1.4937   13.2425   19.4434 C   0  0  0  0  0  0  0  0  0  0  0  0
    2.8269   13.9633   19.2338 C   0  0  0  0  0  0  0  0  0  0  0  0
    3.9001   12.9524   18.8571 C   0  0  0  0  0  0  0  0  0  0  0  0
    3.9903   11.8892   19.8097 O   0  0  0  0  0  0  0  0  0  0  0  0
    2.7626   11.1882   19.9505 C   0  0  0  0  0  0  0  0  0  0  0  0
    1.6847   12.1162   20.4639 C   0  0  0  0  0  0  0  0  0  0  0  0
   -0.9421   14.2691   17.6786 C   0  0  0  0  0  0  0  0  0  0  0  0
   -1.2988   13.0513   17.1274 C   0  0  0  0  0  0  0  0  0  0  0  0
   -1.5543   13.1690   15.7852 N   0  0  0  0  0  0  0  0  0  0  0  0
   -1.3830   14.4508   15.5646 C   0  0  0  0  0  0  0  0  0  0  0  0
   -1.0280   15.1829   16.6507 O   0  0  0  0  0  0  0  0  0  0  0  0
  6  7  2  0  0  0
  7  8  1  0  0  0
  8  1  1  0  0  0
  1  2  1  0  0  0
  2  3  2  0  0  0
  3 18  1  0  0  0
 18 19  2  0  0  0
 19 20  1  0  0  0
 20 21  2  0  0  0
 21 22  1  0  0  0
  3  4  1  0  0  0
  4 12  1  0  0  0
 12 13  1  0  0  0
 13 14  1  0  0  0
 14 15  1  0  0  0
 15 16  1  0  0  0
 16 17  1  0  0  0
  4  5  1  0  0  0
  8  9  2  0  0  0
  9 10  1  0  0  0
 10 11  2  0  0  0
 11  6  1  0  0  0
  5  1  2  0  0  0
 22 18  1  0  0  0
 17 12  1  0  0  0
M  END
> <minimizedAffinity>
-4.71526

> <minimizedRMSD>
0.62708

$$$$
C55393-P128


 19 19  0  0  0  0  0  0  0  0999 V2000
   10.1980   11.8744   23.7217 C   0  0  0  0  0  0  0  0  0  0  0  0
   10.4275   10.6309   23.2690 N   0  0  0  0  0  0  0  0  0  0  0  0
    9.4778    9.8683   23.8367 N   0  0  0  0  0  0  0  0  0  0  0  0
    8.5810   10.5832   24.5787 C   0  0  0  0  0  0  0  0  0  0  0  0
    7.4500    9.9614   25.2872 C   0  0  0  0  0  0  0  0  0  0  0  0
    9.0072   11.8892   24.4705 C   0  0  0  0  0  0  0  0  0  0  0  0
    9.4329    8.8908   23.7286 H   0  0  0  0  0  0  0  0  0  0  0  0
    8.2581   13.3263   24.9734 S   0  0  0  0  0  0  0  0  0  0  0  0
    6.9869   12.9327   25.9939 N   0  0  0  0  0  0  0  0  0  0  0  0
    9.2176   14.0100   25.8020 O   0  0  0  0  0  0  0  0  0  0  0  0
    7.6670   13.8163   23.7525 O   0  0  0  0  0  0  0  0  0  0  0  0
    7.3564   12.5790   26.8763 H   0  0  0  0  0  0  0  0  0  0  0  0
    6.4086   12.2159   25.5557 H   0  0  0  0  0  0  0  0  0  0  0  0
   10.3256   14.1018   22.6559 N   0  0  0  0  0  0  0  0  0  0  0  0
   11.0846   13.0267   23.4375 C   0  0  0  0  0  0  0  0  0  0  0  0
   12.1890   12.9954   23.7973 O   0  0  0  0  0  0  0  0  0  0  0  0
    9.4063   13.8559   22.4035 H   0  0  0  0  0  0  0  0  0  0  0  0
   12.0564   15.3998   21.4981 C   0  0  0  0  0  0  0  0  0  0  0  0
   10.7369   15.4145   22.2295 C   0  0  0  0  0  0  0  0  0  0  0  0
 18 19  1  0  0  0
 19 14  1  0  0  0
 14 15  1  0  0  0
 15 16  2  0  0  0
 15  1  1  0  0  0
  1  2  2  0  0  0
  2  3  1  0  0  0
  3  4  1  0  0  0
  4  5  1  0  0  0
  4  6  2  0  0  0
  6  8  1  0  0  0
  8  9  1  0  0  0
  8 10  2  0  0  0
  8 11  2  0  0  0
  6  1  1  0  0  0
 14 17  1  0  0  0
  3  7  1  0  0  0
  9 12  1  0  0  0
  9 13  1  0  0  0
M  END
> <minimizedAffinity>
-6.13272

> <minimizedRMSD>
1.09743

$$$$
C45658-P197


 17 19  0  0  0  0  0  0  0  0999 V2000
    7.7491   14.7920   23.4499 C   0  0  0  0  0  0  0  0  0  0  0  0
    7.1518   14.0547   24.3919 N   0  0  0  0  0  0  0  0  0  0  0  0
    8.1704   13.4338   25.0067 N   0  0  0  0  0  0  0  0  0  0  0  0
    9.3841   13.9513   24.6586 C   0  0  0  0  0  0  0  0  0  0  0  0
    9.1492   14.6400   23.4873 C   0  0  0  0  0  0  0  0  0  0  0  0
   10.1724   14.8759   22.4396 C   0  0  0  0  0  0  0  0  0  0  0  0
   11.2397   15.8951   22.8457 C   0  0  0  0  0  0  0  0  0  0  0  0
   12.3848   15.7436   21.8649 C   0  0  0  0  0  0  0  0  0  0  0  0
   11.9029   15.9384   20.4364 C   0  0  0  0  0  0  0  0  0  0  0  0
   10.7884   15.0639   20.0858 N   0  0  0  0  0  0  0  0  0  0  0  0
    9.6703   15.1772   21.0249 C   0  0  0  0  0  0  0  0  0  0  0  0
   11.1178   14.0986   20.0843 H   0  0  0  0  0  0  0  0  0  0  0  0
    8.0511   12.0862   25.5032 C   0  0  0  0  0  0  0  0  0  0  0  0
    6.7661   11.6845   26.1859 C   0  0  0  0  0  0  0  0  0  0  0  0
    6.6990   10.1795   25.9938 C   0  0  0  0  0  0  0  0  0  0  0  0
    7.7664    9.7745   24.9834 C   0  0  0  0  0  0  0  0  0  0  0  0
    8.3233   11.0573   24.4254 C   0  0  0  0  0  0  0  0  0  0  0  0
  1  2  2  0  0  0
  2  3  1  0  0  0
  3 13  1  0  0  0
 13 14  1  0  0  0
 14 15  1  0  0  0
 15 16  1  0  0  0
 16 17  1  0  0  0
  3  4  1  0  0  0
  4  5  2  0  0  0
  6  5  1  0  0  0
  6  7  1  0  0  0
  7  8  1  0  0  0
  8  9  1  0  0  0
  9 10  1  0  0  0
 10 11  1  0  0  0
  5  1  1  0  0  0
 11  6  1  0  0  0
 17 13  1  0  0  0
 10 12  1  0  0  0
M  END
> <minimizedAffinity>
-5.84928

> <minimizedRMSD>
0.62870

$$$$
C64747-P344


 21 24  0  0  0  0  0  0  0  0999 V2000
    8.7296   12.3013   24.5111 C   0  0  0  0  0  0  0  0  0  0  0  0
    8.4908   10.9288   24.5760 C   0  0  0  0  0  0  0  0  0  0  0  0
    7.5732   10.4301   25.5050 C   0  0  0  0  0  0  0  0  0  0  0  0
    6.9260   11.2976   26.3835 C   0  0  0  0  0  0  0  0  0  0  0  0
    7.1777   12.6201   26.3358 N   0  0  0  0  0  0  0  0  0  0  0  0
    8.0170   13.0956   25.3910 C   0  0  0  0  0  0  0  0  0  0  0  0
    6.0823   10.8578   27.3761 N   0  0  0  0  0  0  0  0  0  0  0  0
    6.0392   11.6014   28.6319 C   0  0  0  0  0  0  0  0  0  0  0  0
    4.9353   10.8917   29.4081 C   0  0  0  0  0  0  0  0  0  0  0  0
    3.9370   10.5516   28.3140 C   0  0  0  0  0  0  0  0  0  0  0  0
    4.8200   10.1767   27.1209 C   0  0  0  0  0  0  0  0  0  0  0  0
    9.6384   12.8799   23.4636 C   0  0  0  0  0  0  0  0  0  0  0  0
   11.2370   15.5512   19.8033 C   0  0  0  0  0  0  0  0  0  0  0  0
    9.8971   15.1888   19.8701 C   0  0  0  0  0  0  0  0  0  0  0  0
    9.3251   14.8133   21.0870 C   0  0  0  0  0  0  0  0  0  0  0  0
   10.1053   14.8232   22.2257 C   0  0  0  0  0  0  0  0  0  0  0  0
   11.4249   15.2525   22.1670 C   0  0  0  0  0  0  0  0  0  0  0  0
   12.0005   15.6213   20.9682 C   0  0  0  0  0  0  0  0  0  0  0  0
   12.0462   15.0913   23.5022 C   0  0  0  0  0  0  0  0  0  0  0  0
   10.7948   14.9097   24.3660 C   0  0  0  0  0  0  0  0  0  0  0  0
    9.7147   14.3500   23.5194 N   0  0  0  0  0  0  0  0  0  0  0  0
 13 14  2  0  0  0
 14 15  1  0  0  0
 15 16  2  0  0  0
 16 17  1  0  0  0
 17 18  2  0  0  0
 17 19  1  0  0  0
 19 20  1  0  0  0
 20 21  1  0  0  0
 21 12  1  0  0  0
 12  1  1  0  0  0
  1  2  2  0  0  0
  2  3  1  0  0  0
  3  4  2  0  0  0
  4  7  1  0  0  0
  7  8  1  0  0  0
  8  9  1  0  0  0
  9 10  1  0  0  0
 10 11  1  0  0  0
  4  5  1  0  0  0
  5  6  2  0  0  0
 18 13  1  0  0  0
  6  1  1  0  0  0
 21 16  1  0  0  0
 11  7  1  0  0  0
M  END
> <minimizedAffinity>
-6.84243

> <minimizedRMSD>
0.41459

$$$$
C108276-P28


 22 24  0  0  0  0  0  0  0  0999 V2000
    5.3200    9.8902   28.7249 C   0  0  0  0  0  0  0  0  0  0  0  0
    5.6428   10.1965   27.3188 N   0  0  0  0  0  0  0  0  0  0  0  0
    6.3012    9.5021   26.9657 H   0  0  0  0  0  0  0  0  0  0  0  0
    5.1567   12.6085   27.2443 C   0  0  0  0  0  0  0  0  0  0  0  0
    6.2441   11.5315   27.2137 C   0  0  0  0  0  0  0  0  0  0  0  0
    7.1253   11.7133   26.0228 C   0  0  0  0  0  0  0  0  0  0  0  0
    7.5278   12.8504   25.3473 C   0  0  0  0  0  0  0  0  0  0  0  0
    8.4716   12.4077   24.4113 C   0  0  0  0  0  0  0  0  0  0  0  0
    8.6616   11.0927   24.4783 N   0  0  0  0  0  0  0  0  0  0  0  0
    7.7816   10.6958   25.3978 N   0  0  0  0  0  0  0  0  0  0  0  0
    7.6197    9.7477   25.6076 H   0  0  0  0  0  0  0  0  0  0  0  0
    4.8076    8.4674   28.9519 C   0  0  0  0  0  0  0  0  0  0  0  0
    3.4235    8.2410   28.4556 C   0  0  0  0  0  0  0  0  0  0  0  0
    2.9990    7.3347   27.4641 C   0  0  0  0  0  0  0  0  0  0  0  0
    1.6247    7.3987   27.4938 C   0  0  0  0  0  0  0  0  0  0  0  0
    1.3016    8.3542   28.4149 N   0  0  0  0  0  0  0  0  0  0  0  0
    2.3878    8.8791   29.0142 N   0  0  0  0  0  0  0  0  0  0  0  0
   -0.0077    8.8220   28.8221 C   0  0  0  0  0  0  0  0  0  0  0  0
   -1.2033    8.3141   28.0146 C   0  0  0  0  0  0  0  0  0  0  0  0
   -2.3258    9.2408   28.4547 C   0  0  0  0  0  0  0  0  0  0  0  0
   -1.6628   10.6041   28.6311 C   0  0  0  0  0  0  0  0  0  0  0  0
   -0.1586   10.3436   28.7210 C   0  0  0  0  0  0  0  0  0  0  0  0
  5  4  1  0  0  0
  5  2  1  0  0  0
  2  1  1  0  0  0
  1 12  1  0  0  0
 12 13  1  0  0  0
 13 14  1  0  0  0
 14 15  2  0  0  0
 15 16  1  0  0  0
 16 18  1  0  0  0
 18 19  1  0  0  0
 19 20  1  0  0  0
 20 21  1  0  0  0
 21 22  1  0  0  0
 16 17  1  0  0  0
  5  6  1  0  0  0
  6  7  2  0  0  0
  7  8  1  0  0  0
  8  9  2  0  0  0
  9 10  1  0  0  0
 17 13  2  0  0  0
 10  6  1  0  0  0
 22 18  1  0  0  0
  2  3  1  0  0  0
 10 11  1  0  0  0
M  END
> <minimizedAffinity>
-4.94866

> <minimizedRMSD>
1.03097

$$$$
C104338-P12


 32 36  0  0  0  0  0  0  0  0999 V2000
   22.5186   -3.1478   22.1327 O   0  0  0  0  0  0  0  0  0  0  0  0
   22.0824   -2.9660   21.0622 C   0  0  0  0  0  0  0  0  0  0  0  0
   21.8278   -1.6407   20.2905 N   0  0  0  0  0  0  0  0  0  0  0  0
   21.3765   -1.7492   19.4223 H   0  0  0  0  0  0  0  0  0  0  0  0
   21.7800   -4.2001   20.1738 C   0  0  0  0  0  0  0  0  0  0  0  0
   21.3909   -5.4068   21.0468 C   0  0  0  0  0  0  0  0  0  0  0  0
   20.3573   -6.1870   20.2602 C   0  0  0  0  0  0  0  0  0  0  0  0
   19.8883   -7.2396   20.6685 O   0  0  0  0  0  0  0  0  0  0  0  0
   20.1774   -5.5162   19.0535 N   0  0  0  0  0  0  0  0  0  0  0  0
   20.6748   -4.1648   19.1461 C   0  0  0  0  0  0  0  0  0  0  0  0
   19.8490   -6.2145   17.8926 C   0  0  0  0  0  0  0  0  0  0  0  0
   18.5889   -6.5156   17.5555 N   0  0  0  0  0  0  0  0  0  0  0  0
   18.6962   -7.1649   16.3895 N   0  0  0  0  0  0  0  0  0  0  0  0
   19.9801   -7.3949   15.9842 C   0  0  0  0  0  0  0  0  0  0  0  0
   20.5003   -8.0786   14.8786 C   0  0  0  0  0  0  0  0  0  0  0  0
   21.8921   -8.1644   14.7748 C   0  0  0  0  0  0  0  0  0  0  0  0
   22.7194   -7.6005   15.7417 C   0  0  0  0  0  0  0  0  0  0  0  0
   22.1741   -6.9218   16.8376 C   0  0  0  0  0  0  0  0  0  0  0  0
   20.7732   -6.7875   16.9532 C   0  0  0  0  0  0  0  0  0  0  0  0
   17.9133   -7.4531   15.8668 H   0  0  0  0  0  0  0  0  0  0  0  0
   22.1480   -0.2671   20.6427 C   0  0  0  0  0  0  0  0  0  0  0  0
   21.0396    0.7713   20.4143 C   0  0  0  0  0  0  0  0  0  0  0  0
   19.8679    0.7915   21.4215 C   0  0  0  0  0  0  0  0  0  0  0  0
   18.7980   -0.1300   20.9913 C   0  0  0  0  0  0  0  0  0  0  0  0
   18.0424    0.0077   19.9194 N   0  0  0  0  0  0  0  0  0  0  0  0
   17.4529   -1.2066   19.6670 N   0  0  0  0  0  0  0  0  0  0  0  0
   17.8162   -2.0389   20.6192 C   0  0  0  0  0  0  0  0  0  0  0  0
   17.5479   -3.4116   20.8629 C   0  0  0  0  0  0  0  0  0  0  0  0
   18.0217   -3.9967   21.9811 C   0  0  0  0  0  0  0  0  0  0  0  0
   18.8080   -3.2551   22.9541 C   0  0  0  0  0  0  0  0  0  0  0  0
   19.0786   -1.9608   22.7167 C   0  0  0  0  0  0  0  0  0  0  0  0
   18.5948   -1.3713   21.5485 N   0  0  0  0  0  0  0  0  0  0  0  0
  1  2  2  0  0  0
  2  3  1  0  0  0
  3 21  1  0  0  0
 21 22  1  0  0  0
 22 23  1  0  0  0
 23 24  1  0  0  0
 24 25  2  0  0  0
 25 26  1  0  0  0
 26 27  2  0  0  0
 27 28  1  0  0  0
 28 29  2  0  0  0
 29 30  1  0  0  0
 30 31  2  0  0  0
 31 32  1  0  0  0
  5  2  1  0  0  0
  5  6  1  0  0  0
  6  7  1  0  0  0
  7  8  2  0  0  0
  7  9  1  0  0  0
  9 11  1  0  0  0
 11 12  2  0  0  0
 12 13  1  0  0  0
 13 14  1  0  0  0
 14 15  2  0  0  0
 15 16  1  0  0  0
 16 17  2  0  0  0
 17 18  1  0  0  0
 18 19  2  0  0  0
  9 10  1  0  0  0
 32 24  1  0  0  0
 10  5  1  0  0  0
 32 27  1  0  0  0
 19 11  1  0  0  0
 19 14  1  0  0  0
  3  4  1  0  0  0
 13 20  1  0  0  0
M  END
> <minimizedAffinity>
-4.76068

> <minimizedRMSD>
1.58225

$$$$
C12359-P348


 14 14  0  0  0  0  0  0  0  0999 V2000
    9.5305   12.5014   23.7714 N   0  0  0  0  0  0  0  0  0  0  0  0
   10.5006   12.3364   23.8012 H   0  0  0  0  0  0  0  0  0  0  0  0
    8.6385   11.6397   24.5008 C   0  0  0  0  0  0  0  0  0  0  0  0
    7.7822   12.1268   25.4873 C   0  0  0  0  0  0  0  0  0  0  0  0
    6.9375   11.2753   26.1924 C   0  0  0  0  0  0  0  0  0  0  0  0
    6.9962    9.9319   25.9075 C   0  0  0  0  0  0  0  0  0  0  0  0
    7.8497    9.4010   25.0099 N   0  0  0  0  0  0  0  0  0  0  0  0
    8.6455   10.2623   24.3196 C   0  0  0  0  0  0  0  0  0  0  0  0
    8.9260   13.8003   22.8596 S   0  0  0  0  0  0  0  0  0  0  0  0
    9.9122   14.0429   21.8306 O   0  0  0  0  0  0  0  0  0  0  0  0
    7.5649   13.4719   22.5041 O   0  0  0  0  0  0  0  0  0  0  0  0
    8.9646   15.1932   23.9821 C   0  0  0  0  0  0  0  0  0  0  0  0
   10.0660   15.0951   26.2442 C   0  0  0  0  0  0  0  0  0  0  0  0
   10.2784   15.2761   24.7524 C   0  0  0  0  0  0  0  0  0  0  0  0
 13 14  1  0  0  0
 14 12  1  0  0  0
 12  9  1  0  0  0
  9 10  2  0  0  0
  9 11  2  0  0  0
  9  1  1  0  0  0
  1  3  1  0  0  0
  3  4  2  0  0  0
  4  5  1  0  0  0
  5  6  2  0  0  0
  6  7  1  0  0  0
  7  8  2  0  0  0
  8  3  1  0  0  0
  1  2  1  0  0  0
M  END
> <minimizedAffinity>
-4.57197

> <minimizedRMSD>
1.35677

$$$$
C51862-P384


 12 12  0  0  0  0  0  0  0  0999 V2000
    8.0313   11.9950   24.6218 C   0  0  0  0  0  0  0  0  0  0  0  0
    7.2731   11.0985   25.3093 N   0  0  0  0  0  0  0  0  0  0  0  0
    7.5602    9.7959   25.1331 C   0  0  0  0  0  0  0  0  0  0  0  0
    8.5900    9.3298   24.3353 C   0  0  0  0  0  0  0  0  0  0  0  0
    9.3892   10.2506   23.6783 C   0  0  0  0  0  0  0  0  0  0  0  0
    9.1135   11.6004   23.8283 C   0  0  0  0  0  0  0  0  0  0  0  0
    9.8769   12.5300   23.1878 O   0  0  0  0  0  0  0  0  0  0  0  0
   10.6002   12.2577   22.6580 H   0  0  0  0  0  0  0  0  0  0  0  0
    8.5400   14.3360   25.4213 C   0  0  0  0  0  0  0  0  0  0  0  0
    7.5671   13.4299   24.6870 C   0  0  0  0  0  0  0  0  0  0  0  0
    7.2155   13.9632   23.3134 C   0  0  0  0  0  0  0  0  0  0  0  0
    6.7670   13.2563   22.4099 O   0  0  0  0  0  0  0  0  0  0  0  0
 10  9  1  0  0  0
 10 11  1  0  0  0
 11 12  2  0  0  0
 10  1  1  0  0  0
  1  2  2  0  0  0
  2  3  1  0  0  0
  3  4  2  0  0  0
  4  5  1  0  0  0
  5  6  2  0  0  0
  6  7  1  0  0  0
  6  1  1  0  0  0
  7  8  1  0  0  0
M  END
> <minimizedAffinity>
-3.67109

> <minimizedRMSD>
0.49136

$$$$
C46321-P374


 24 26  0  0  0  0  0  0  0  0999 V2000
   23.0876   21.1911   20.5413 C   0  0  0  0  0  0  0  0  0  0  0  0
   22.0515   21.5725   19.7785 N   0  0  0  0  0  0  0  0  0  0  0  0
   22.6203   22.2704   18.7861 N   0  0  0  0  0  0  0  0  0  0  0  0
   23.9835   22.3227   18.8457 C   0  0  0  0  0  0  0  0  0  0  0  0
   24.9035   22.9004   17.9707 C   0  0  0  0  0  0  0  0  0  0  0  0
   26.2442   22.8291   18.3332 C   0  0  0  0  0  0  0  0  0  0  0  0
   26.6344   22.1883   19.5154 C   0  0  0  0  0  0  0  0  0  0  0  0
   25.6953   21.5666   20.3593 C   0  0  0  0  0  0  0  0  0  0  0  0
   24.3326   21.6422   20.0072 C   0  0  0  0  0  0  0  0  0  0  0  0
   22.0997   22.7083   18.0745 H   0  0  0  0  0  0  0  0  0  0  0  0
   28.0612   22.2843   19.9308 C   0  0  0  0  0  0  0  0  0  0  0  0
   28.3139   22.4958   21.0488 O   0  0  0  0  0  0  0  0  0  0  0  0
   28.9829   22.1716   18.7036 N   0  0  0  0  0  0  0  0  0  0  0  0
   28.5141   22.0611   17.8449 H   0  0  0  0  0  0  0  0  0  0  0  0
   30.4283   22.2016   18.6060 C   0  0  0  0  0  0  0  0  0  0  0  0
   30.9456   21.0820   17.6935 C   0  0  0  0  0  0  0  0  0  0  0  0
   31.2631   21.5610   16.2745 C   0  0  0  0  0  0  0  0  0  0  0  0
   30.3659   22.7137   15.8405 C   0  0  0  0  0  0  0  0  0  0  0  0
   30.4530   23.8846   16.7124 N   0  0  0  0  0  0  0  0  0  0  0  0
   30.8919   23.5778   18.0865 C   0  0  0  0  0  0  0  0  0  0  0  0
   29.5311   24.3187   16.7595 H   0  0  0  0  0  0  0  0  0  0  0  0
   22.8413   20.3584   21.7610 C   0  0  0  0  0  0  0  0  0  0  0  0
   21.0715   19.4606   23.3314 C   0  0  0  0  0  0  0  0  0  0  0  0
   21.4466   20.5690   22.3632 C   0  0  0  0  0  0  0  0  0  0  0  0
 23 24  1  0  0  0
 24 22  1  0  0  0
 22  1  1  0  0  0
  1  2  2  0  0  0
  2  3  1  0  0  0
  3  4  1  0  0  0
  4  5  2  0  0  0
  5  6  1  0  0  0
  6  7  2  0  0  0
  7 11  1  0  0  0
 11 12  2  0  0  0
 11 13  1  0  0  0
 15 13  1  0  0  0
 15 16  1  0  0  0
 16 17  1  0  0  0
 17 18  1  0  0  0
 18 19  1  0  0  0
 19 20  1  0  0  0
  7  8  1  0  0  0
  8  9  2  0  0  0
  9  1  1  0  0  0
  9  4  1  0  0  0
 20 15  1  0  0  0
  3 10  1  0  0  0
 13 14  1  0  0  0
 19 21  1  0  0  0
M  END
> <minimizedAffinity>
-4.27621

> <minimizedRMSD>
1.48224

$$$$
C72578-P363


 25 27  0  0  0  0  0  0  0  0999 V2000
    8.2207   14.0139   24.1820 S   0  0  0  0  0  0  0  0  0  0  0  0
    7.5973   13.0079   23.3471 O   0  0  0  0  0  0  0  0  0  0  0  0
    7.5640   15.2387   24.5786 O   0  0  0  0  0  0  0  0  0  0  0  0
   10.5859   15.8078   21.5543 C   0  0  0  0  0  0  0  0  0  0  0  0
   11.8267   15.8641   22.1797 C   0  0  0  0  0  0  0  0  0  0  0  0
   11.9811   15.2678   23.4289 C   0  0  0  0  0  0  0  0  0  0  0  0
   10.9161   14.6098   24.0365 C   0  0  0  0  0  0  0  0  0  0  0  0
    9.6803   14.5778   23.3906 C   0  0  0  0  0  0  0  0  0  0  0  0
    9.5022   15.1798   22.1495 C   0  0  0  0  0  0  0  0  0  0  0  0
   10.3666   16.4393   20.2547 C   0  0  0  0  0  0  0  0  0  0  0  0
    9.7067   17.4675   20.1926 O   0  0  0  0  0  0  0  0  0  0  0  0
    9.6672   14.9590   18.5499 C   0  0  0  0  0  0  0  0  0  0  0  0
   10.8483   15.7023   19.0512 C   0  0  0  0  0  0  0  0  0  0  0  0
    8.7230   13.2741   25.6369 N   0  0  0  0  0  0  0  0  0  0  0  0
    9.6557   13.2199   25.9474 H   0  0  0  0  0  0  0  0  0  0  0  0
    7.5908   12.7421   26.3435 C   0  0  0  0  0  0  0  0  0  0  0  0
    7.1846   11.4311   26.0954 C   0  0  0  0  0  0  0  0  0  0  0  0
    6.0677   10.9118   26.7591 C   0  0  0  0  0  0  0  0  0  0  0  0
    5.3480   11.7329   27.6071 C   0  0  0  0  0  0  0  0  0  0  0  0
    5.7551   13.0414   27.8409 C   0  0  0  0  0  0  0  0  0  0  0  0
    6.8726   13.5643   27.2222 C   0  0  0  0  0  0  0  0  0  0  0  0
    4.8473   13.6704   28.8387 C   0  0  0  0  0  0  0  0  0  0  0  0
    3.6988   12.6453   28.8447 C   0  0  0  0  0  0  0  0  0  0  0  0
    4.2507   11.3446   28.4132 N   0  0  0  0  0  0  0  0  0  0  0  0
    3.9353   10.4377   28.6309 H   0  0  0  0  0  0  0  0  0  0  0  0
 12 13  1  0  0  0
 13 10  1  0  0  0
 10 11  2  0  0  0
 10  4  1  0  0  0
  4  5  2  0  0  0
  5  6  1  0  0  0
  6  7  2  0  0  0
  7  8  1  0  0  0
  8  1  1  0  0  0
  1  2  2  0  0  0
  1  3  2  0  0  0
  1 14  1  0  0  0
 14 16  1  0  0  0
 16 17  2  0  0  0
 17 18  1  0  0  0
 18 19  2  0  0  0
 19 20  1  0  0  0
 20 21  2  0  0  0
 20 22  1  0  0  0
 22 23  1  0  0  0
 23 24  1  0  0  0
  8  9  2  0  0  0
  9  4  1  0  0  0
 21 16  1  0  0  0
 24 19  1  0  0  0
 14 15  1  0  0  0
 24 25  1  0  0  0
M  END
> <minimizedAffinity>
-5.66225

> <minimizedRMSD>
0.44489

$$$$
C79596-P103


 23 25  0  0  0  0  0  0  0  0999 V2000
   20.7554   -2.7713   18.9726 N   0  0  0  0  0  0  0  0  0  0  0  0
   21.7292   -2.9581   18.7336 H   0  0  0  0  0  0  0  0  0  0  0  0
   20.8746   -0.2520   19.3822 C   0  0  0  0  0  0  0  0  0  0  0  0
   20.7544   -1.6652   19.9362 C   0  0  0  0  0  0  0  0  0  0  0  0
   19.6231   -1.7771   20.9931 C   0  0  0  0  0  0  0  0  0  0  0  0
   18.9907   -0.4580   21.4464 C   0  0  0  0  0  0  0  0  0  0  0  0
   19.1547   -0.2264   22.9295 C   0  0  0  0  0  0  0  0  0  0  0  0
   19.7369   -1.2080   23.7357 C   0  0  0  0  0  0  0  0  0  0  0  0
   19.8533   -0.9694   25.0958 C   0  0  0  0  0  0  0  0  0  0  0  0
   19.4347    0.1615   25.6994 N   0  0  0  0  0  0  0  0  0  0  0  0
   18.8842    1.1073   24.9038 C   0  0  0  0  0  0  0  0  0  0  0  0
   18.7296    0.9625   23.5317 C   0  0  0  0  0  0  0  0  0  0  0  0
   20.1580   -4.0451   19.3549 C   0  0  0  0  0  0  0  0  0  0  0  0
   18.9217   -4.4288   18.5828 C   0  0  0  0  0  0  0  0  0  0  0  0
   17.9157   -3.6067   18.3860 N   0  0  0  0  0  0  0  0  0  0  0  0
   16.8033   -4.2823   17.9468 C   0  0  0  0  0  0  0  0  0  0  0  0
   15.5313   -3.7113   17.8047 C   0  0  0  0  0  0  0  0  0  0  0  0
   14.4669   -4.5644   17.5676 C   0  0  0  0  0  0  0  0  0  0  0  0
   13.2443   -4.0537   17.4431 F   0  0  0  0  0  0  0  0  0  0  0  0
   14.6280   -5.9353   17.4305 C   0  0  0  0  0  0  0  0  0  0  0  0
   15.8979   -6.5084   17.5023 C   0  0  0  0  0  0  0  0  0  0  0  0
   16.9774   -5.6585   17.7854 C   0  0  0  0  0  0  0  0  0  0  0  0
   18.6396   -6.0450   18.0662 S   0  0  0  0  0  0  0  0  0  0  0  0
  4  3  1  0  0  0
  4  5  1  0  0  0
  5  6  1  0  0  0
  6  7  1  0  0  0
  7  8  2  0  0  0
  8  9  1  0  0  0
  9 10  2  0  0  0
 10 11  1  0  0  0
 11 12  2  0  0  0
  4  1  1  0  0  0
  1 13  1  0  0  0
 13 14  1  0  0  0
 14 15  2  0  0  0
 15 16  1  0  0  0
 16 17  2  0  0  0
 17 18  1  0  0  0
 18 19  1  0  0  0
 18 20  2  0  0  0
 20 21  1  0  0  0
 21 22  2  0  0  0
 22 23  1  0  0  0
 12  7  1  0  0  0
 23 14  1  0  0  0
 22 16  1  0  0  0
  1  2  1  0  0  0
M  END
> <minimizedAffinity>
-4.78280

> <minimizedRMSD>
1.25788

$$$$
C79613-P103


 24 26  0  0  0  0  0  0  0  0999 V2000
   19.3298   -2.6325   19.8451 N   0  0  0  0  0  0  0  0  0  0  0  0
   19.6718   -2.7590   20.7977 H   0  0  0  0  0  0  0  0  0  0  0  0
   20.0058   -4.9441   20.1559 C   0  0  0  0  0  0  0  0  0  0  0  0
   19.4345   -3.9395   19.1471 C   0  0  0  0  0  0  0  0  0  0  0  0
   18.1292   -4.4549   18.5697 C   0  0  0  0  0  0  0  0  0  0  0  0
   17.0829   -3.6950   18.3338 N   0  0  0  0  0  0  0  0  0  0  0  0
   16.0393   -4.4416   17.8322 C   0  0  0  0  0  0  0  0  0  0  0  0
   14.7587   -3.9428   17.5447 C   0  0  0  0  0  0  0  0  0  0  0  0
   13.7421   -4.8353   17.2186 C   0  0  0  0  0  0  0  0  0  0  0  0
   13.9892   -6.2035   17.1608 C   0  0  0  0  0  0  0  0  0  0  0  0
   15.2697   -6.7160   17.3900 C   0  0  0  0  0  0  0  0  0  0  0  0
   16.2857   -5.8117   17.7304 C   0  0  0  0  0  0  0  0  0  0  0  0
   17.9375   -6.1094   18.1311 S   0  0  0  0  0  0  0  0  0  0  0  0
   20.0795   -1.5159   19.2412 C   0  0  0  0  0  0  0  0  0  0  0  0
   21.1658   -1.8383   18.2285 C   0  0  0  0  0  0  0  0  0  0  0  0
   22.8351   -1.3993   18.7005 S   0  0  0  0  0  0  0  0  0  0  0  0
   23.5308   -2.6205   19.0728 O   0  0  0  0  0  0  0  0  0  0  0  0
   23.4152   -0.5300   17.6812 O   0  0  0  0  0  0  0  0  0  0  0  0
   22.7520   -0.4213   20.1803 C   0  0  0  0  0  0  0  0  0  0  0  0
   22.7094    0.9657   20.0794 C   0  0  0  0  0  0  0  0  0  0  0  0
   22.6803    1.6960   21.2506 C   0  0  0  0  0  0  0  0  0  0  0  0
   22.7040    1.1350   22.4804 N   0  0  0  0  0  0  0  0  0  0  0  0
   22.7688   -0.2152   22.5396 C   0  0  0  0  0  0  0  0  0  0  0  0
   22.8020   -1.0356   21.4272 C   0  0  0  0  0  0  0  0  0  0  0  0
  4  3  1  0  0  0
  4  1  1  0  0  0
  1 14  1  0  0  0
 14 15  1  0  0  0
 15 16  1  0  0  0
 16 17  2  0  0  0
 16 18  2  0  0  0
 16 19  1  0  0  0
 19 20  2  0  0  0
 20 21  1  0  0  0
 21 22  2  0  0  0
 22 23  1  0  0  0
 23 24  2  0  0  0
  4  5  1  0  0  0
  5  6  2  0  0  0
  6  7  1  0  0  0
  7  8  2  0  0  0
  8  9  1  0  0  0
  9 10  2  0  0  0
 10 11  1  0  0  0
 11 12  2  0  0  0
 12 13  1  0  0  0
 24 19  1  0  0  0
 13  5  1  0  0  0
 12  7  1  0  0  0
  1  2  1  0  0  0
M  END
> <minimizedAffinity>
-4.51311

> <minimizedRMSD>
1.41267

$$$$
C117674-P37


 16 16  0  0  0  0  0  0  0  0999 V2000
    6.7424   11.2472   26.0194 C   0  0  0  0  0  0  0  0  0  0  0  0
    7.8638   11.1033   25.1267 N   0  0  0  0  0  0  0  0  0  0  0  0
    8.6511   12.1014   24.6423 C   0  0  0  0  0  0  0  0  0  0  0  0
    9.5723   11.4927   23.8301 C   0  0  0  0  0  0  0  0  0  0  0  0
    9.2443   10.1214   23.8578 C   0  0  0  0  0  0  0  0  0  0  0  0
    8.2332    9.8827   24.7119 N   0  0  0  0  0  0  0  0  0  0  0  0
   10.6059   12.1035   23.1854 N   0  0  0  0  0  0  0  0  0  0  0  0
   11.5354   13.2651   23.6414 C   0  0  0  0  0  0  0  0  0  0  0  0
   11.6048   13.8213   24.6679 O   0  0  0  0  0  0  0  0  0  0  0  0
   10.7953   11.7530   22.2851 H   0  0  0  0  0  0  0  0  0  0  0  0
   12.4658   13.5516   22.4681 C   0  0  0  0  0  0  0  0  0  0  0  0
   12.6096   14.9916   22.3027 C   0  0  0  0  0  0  0  0  0  0  0  0
   12.6618   16.1427   22.1800 N   0  0  0  0  0  0  0  0  0  0  0  0
    9.9537    9.0423   23.1304 C   0  0  0  0  0  0  0  0  0  0  0  0
   11.1869    8.8982   23.6456 F   0  0  0  0  0  0  0  0  0  0  0  0
   10.1559    9.4097   21.8373 F   0  0  0  0  0  0  0  0  0  0  0  0
  1  2  1  0  0  0
  2  3  1  0  0  0
  3  4  2  0  0  0
  4  7  1  0  0  0
  7  8  1  0  0  0
  8  9  2  0  0  0
  8 11  1  0  0  0
 11 12  1  0  0  0
 12 13  3  0  0  0
  4  5  1  0  0  0
  5 14  1  0  0  0
 14 15  1  0  0  0
 14 16  1  0  0  0
  5  6  2  0  0  0
  6  2  1  0  0  0
  7 10  1  0  0  0
M  END
> <minimizedAffinity>
-4.71503

> <minimizedRMSD>
0.40659

$$$$
C54664-P439


 23 26  0  0  0  0  0  0  0  0999 V2000
   21.0118   24.8580   18.3483 N   0  0  0  0  0  0  0  0  0  0  0  0
   22.1948   25.2965   17.6019 C   0  0  0  0  0  0  0  0  0  0  0  0
   23.4771   24.5583   17.9786 C   0  0  0  0  0  0  0  0  0  0  0  0
   23.3354   23.0316   17.8470 C   0  0  0  0  0  0  0  0  0  0  0  0
   21.8835   22.5800   18.0304 C   0  0  0  0  0  0  0  0  0  0  0  0
   21.1269   23.5296   18.9533 C   0  0  0  0  0  0  0  0  0  0  0  0
   24.2702   22.3760   18.7640 N   0  0  0  0  0  0  0  0  0  0  0  0
   23.8489   21.9323   19.9754 N   0  0  0  0  0  0  0  0  0  0  0  0
   24.9782   21.5417   20.5704 C   0  0  0  0  0  0  0  0  0  0  0  0
   26.1225   21.7415   19.7700 C   0  0  0  0  0  0  0  0  0  0  0  0
   27.5049   21.5260   19.9119 C   0  0  0  0  0  0  0  0  0  0  0  0
   28.3543   21.8619   18.8506 C   0  0  0  0  0  0  0  0  0  0  0  0
   27.8423   22.4030   17.6724 C   0  0  0  0  0  0  0  0  0  0  0  0
   26.4710   22.6245   17.5145 C   0  0  0  0  0  0  0  0  0  0  0  0
   25.6330   22.2824   18.5854 C   0  0  0  0  0  0  0  0  0  0  0  0
   21.1501   28.9370   20.8615 O   0  0  0  0  0  0  0  0  0  0  0  0
   20.8047   28.0221   20.1321 C   0  0  0  0  0  0  0  0  0  0  0  0
   21.3606   26.6296   20.1614 C   0  0  0  0  0  0  0  0  0  0  0  0
   20.4077   25.8446   19.2572 C   0  0  0  0  0  0  0  0  0  0  0  0
   19.6227   26.9323   18.5310 C   0  0  0  0  0  0  0  0  0  0  0  0
   18.8535   26.7968   17.5931 O   0  0  0  0  0  0  0  0  0  0  0  0
   19.8853   28.1183   19.1416 N   0  0  0  0  0  0  0  0  0  0  0  0
   19.4500   28.9644   18.8887 H   0  0  0  0  0  0  0  0  0  0  0  0
 16 17  2  0  0  0
 17 18  1  0  0  0
 18 19  1  0  0  0
 19  1  1  0  0  0
  1  2  1  0  0  0
  2  3  1  0  0  0
  3  4  1  0  0  0
  4  7  1  0  0  0
  7  8  1  0  0  0
  8  9  2  0  0  0
  9 10  1  0  0  0
 10 11  2  0  0  0
 11 12  1  0  0  0
 12 13  2  0  0  0
 13 14  1  0  0  0
 14 15  2  0  0  0
  4  5  1  0  0  0
  5  6  1  0  0  0
 19 20  1  0  0  0
 20 21  2  0  0  0
 20 22  1  0  0  0
 22 17  1  0  0  0
  6  1  1  0  0  0
 15  7  1  0  0  0
 15 10  1  0  0  0
 22 23  1  0  0  0
M  END
> <minimizedAffinity>
-3.36175

> <minimizedRMSD>
1.35809

$$$$
C52382-P235


 22 24  0  0  0  0  0  0  0  0999 V2000
    7.9614   13.7206   23.7459 N   0  0  0  0  0  0  0  0  0  0  0  0
    8.3807   12.8010   23.6079 H   0  0  0  0  0  0  0  0  0  0  0  0
    7.8359   13.8919   25.2059 C   0  0  0  0  0  0  0  0  0  0  0  0
    9.1778   14.3393   25.8134 C   0  0  0  0  0  0  0  0  0  0  0  0
    8.8032   15.0792   27.0839 C   0  0  0  0  0  0  0  0  0  0  0  0
    7.5437   15.8414   26.6942 C   0  0  0  0  0  0  0  0  0  0  0  0
    6.8697   15.0529   25.5617 C   0  0  0  0  0  0  0  0  0  0  0  0
    7.2847   12.5718   25.7855 C   0  0  0  0  0  0  0  0  0  0  0  0
    7.7621   11.3162   25.3703 C   0  0  0  0  0  0  0  0  0  0  0  0
    7.0993   10.1513   25.7430 C   0  0  0  0  0  0  0  0  0  0  0  0
    5.9992   10.2599   26.5725 C   0  0  0  0  0  0  0  0  0  0  0  0
    5.5608   11.4244   27.0797 N   0  0  0  0  0  0  0  0  0  0  0  0
    6.1971   12.5418   26.6623 C   0  0  0  0  0  0  0  0  0  0  0  0
    8.1201   14.5812   21.5202 O   0  0  0  0  0  0  0  0  0  0  0  0
    8.8183   14.7632   22.7704 S   0  0  0  0  0  0  0  0  0  0  0  0
    8.8959   16.0501   23.4157 O   0  0  0  0  0  0  0  0  0  0  0  0
   10.4574   14.0081   22.7331 C   0  0  0  0  0  0  0  0  0  0  0  0
   11.5714   15.0570   22.7347 C   0  0  0  0  0  0  0  0  0  0  0  0
   12.0009   15.6267   21.3757 C   0  0  0  0  0  0  0  0  0  0  0  0
   11.0999   15.2579   20.2498 C   0  0  0  0  0  0  0  0  0  0  0  0
   10.3726   16.1685   19.2822 C   0  0  0  0  0  0  0  0  0  0  0  0
   11.6543   15.5568   18.8854 C   0  0  0  0  0  0  0  0  0  0  0  0
 14 15  2  0  0  0
 15 16  2  0  0  0
 15 17  1  0  0  0
 17 18  1  0  0  0
 18 19  1  0  0  0
 19 20  1  0  0  0
 20 21  1  0  0  0
 21 22  1  0  0  0
 15  1  1  0  0  0
  1  3  1  0  0  0
  3  8  1  0  0  0
  8  9  2  0  0  0
  9 10  1  0  0  0
 10 11  2  0  0  0
 11 12  1  0  0  0
 12 13  2  0  0  0
  3  4  1  0  0  0
  4  5  1  0  0  0
  5  6  1  0  0  0
  6  7  1  0  0  0
 22 20  1  0  0  0
  7  3  1  0  0  0
 13  8  1  0  0  0
  1  2  1  0  0  0
M  END
> <minimizedAffinity>
-5.72994

> <minimizedRMSD>
0.67010

$$$$
C59844-P404


 24 26  0  0  0  0  0  0  0  0999 V2000
   21.6158   14.7449    2.3555 N   0  0  0  0  0  0  0  0  0  0  0  0
   20.2744   14.1625    2.8649 C   0  0  0  0  0  0  0  0  0  0  0  0
   20.0619   13.3490    3.6755 O   0  0  0  0  0  0  0  0  0  0  0  0
   21.5326   15.3738    1.6026 H   0  0  0  0  0  0  0  0  0  0  0  0
   22.9674   14.5158    2.8046 C   0  0  0  0  0  0  0  0  0  0  0  0
   26.7596   11.1516    0.4700 O   0  0  0  0  0  0  0  0  0  0  0  0
   25.8297   11.8074    0.9295 C   0  0  0  0  0  0  0  0  0  0  0  0
   24.6360   12.2594    0.1046 C   0  0  0  0  0  0  0  0  0  0  0  0
   23.9218   13.4977    0.6522 C   0  0  0  0  0  0  0  0  0  0  0  0
   23.6861   13.3406    2.1528 C   0  0  0  0  0  0  0  0  0  0  0  0
   25.0427   13.1613    2.8291 C   0  0  0  0  0  0  0  0  0  0  0  0
   25.7961   12.0758    2.2620 N   0  0  0  0  0  0  0  0  0  0  0  0
   26.3133   11.4981    2.8687 H   0  0  0  0  0  0  0  0  0  0  0  0
   19.1167   14.8970    2.1920 C   0  0  0  0  0  0  0  0  0  0  0  0
   19.4742   16.2177    1.5277 C   0  0  0  0  0  0  0  0  0  0  0  0
   19.5034   17.3108    2.4757 N   0  0  0  0  0  0  0  0  0  0  0  0
   18.4671   18.0448    2.9643 C   0  0  0  0  0  0  0  0  0  0  0  0
   19.0665   18.8693    3.8885 C   0  0  0  0  0  0  0  0  0  0  0  0
   20.4049   18.6022    3.9401 N   0  0  0  0  0  0  0  0  0  0  0  0
   20.6646   17.6501    3.0580 N   0  0  0  0  0  0  0  0  0  0  0  0
   18.3903   19.9442    4.7736 C   0  0  0  0  0  0  0  0  0  0  0  0
   16.8482   19.8723    4.8911 C   0  0  0  0  0  0  0  0  0  0  0  0
   17.0184   20.2873    6.3680 C   0  0  0  0  0  0  0  0  0  0  0  0
   18.4374   19.6848    6.2988 C   0  0  0  0  0  0  0  0  0  0  0  0
  6  7  2  0  0  0
  7  8  1  0  0  0
  8  9  1  0  0  0
  9 10  1  0  0  0
 10  5  1  0  0  0
  5  1  1  0  0  0
  1  2  1  0  0  0
  2  3  2  0  0  0
  2 14  1  0  0  0
 14 15  1  0  0  0
 15 16  1  0  0  0
 16 17  1  0  0  0
 17 18  2  0  0  0
 18 21  1  0  0  0
 21 22  1  0  0  0
 22 23  1  0  0  0
 23 24  1  0  0  0
 18 19  1  0  0  0
 19 20  2  0  0  0
 10 11  1  0  0  0
 11 12  1  0  0  0
 12  7  1  0  0  0
 20 16  1  0  0  0
 24 21  1  0  0  0
  1  4  1  0  0  0
 12 13  1  0  0  0
M  END
> <minimizedAffinity>
-4.24502

> <minimizedRMSD>
1.50486

$$$$
C59845-P404


 24 26  0  0  0  0  0  0  0  0999 V2000
   20.7873   14.1895    2.6649 C   0  0  0  0  0  0  0  0  0  0  0  0
   20.4007   13.5244    3.5826 O   0  0  0  0  0  0  0  0  0  0  0  0
   22.1151   14.6637    2.3372 N   0  0  0  0  0  0  0  0  0  0  0  0
   22.1797   15.1346    1.4750 H   0  0  0  0  0  0  0  0  0  0  0  0
   19.5962   16.1844    1.6046 C   0  0  0  0  0  0  0  0  0  0  0  0
   19.7883   14.6649    1.5817 C   0  0  0  0  0  0  0  0  0  0  0  0
   18.5239   13.9379    1.6641 N   0  0  0  0  0  0  0  0  0  0  0  0
   18.2185   12.7614    1.0410 C   0  0  0  0  0  0  0  0  0  0  0  0
   16.8755   12.6049    1.2797 C   0  0  0  0  0  0  0  0  0  0  0  0
   16.4111   13.6483    2.0300 N   0  0  0  0  0  0  0  0  0  0  0  0
   17.4288   14.4697    2.2557 N   0  0  0  0  0  0  0  0  0  0  0  0
   16.0151   11.4178    0.7886 C   0  0  0  0  0  0  0  0  0  0  0  0
   16.2888   10.9540   -0.6661 C   0  0  0  0  0  0  0  0  0  0  0  0
   14.7703   10.7199   -0.7967 C   0  0  0  0  0  0  0  0  0  0  0  0
   14.5905   11.7886    0.3004 C   0  0  0  0  0  0  0  0  0  0  0  0
   23.3632   14.5629    3.0614 C   0  0  0  0  0  0  0  0  0  0  0  0
   24.1687   13.3293    2.6590 C   0  0  0  0  0  0  0  0  0  0  0  0
   24.5801   13.3363    1.1845 C   0  0  0  0  0  0  0  0  0  0  0  0
   25.3138   12.0427    0.8421 C   0  0  0  0  0  0  0  0  0  0  0  0
   26.3901   11.6526    1.8358 C   0  0  0  0  0  0  0  0  0  0  0  0
   27.3051   10.8876    1.5429 O   0  0  0  0  0  0  0  0  0  0  0  0
   26.2548   12.1032    3.1151 N   0  0  0  0  0  0  0  0  0  0  0  0
   25.4399   13.2312    3.4987 C   0  0  0  0  0  0  0  0  0  0  0  0
   26.7451   11.6279    3.8243 H   0  0  0  0  0  0  0  0  0  0  0  0
  6  5  1  0  0  0
  6  1  1  0  0  0
  1  2  2  0  0  0
  1  3  1  0  0  0
  3 16  1  0  0  0
 17 16  1  0  0  0
 17 18  1  0  0  0
 18 19  1  0  0  0
 19 20  1  0  0  0
 20 21  2  0  0  0
 20 22  1  0  0  0
 22 23  1  0  0  0
  6  7  1  0  0  0
  7  8  1  0  0  0
  8  9  2  0  0  0
  9 12  1  0  0  0
 12 13  1  0  0  0
 13 14  1  0  0  0
 14 15  1  0  0  0
  9 10  1  0  0  0
 10 11  2  0  0  0
 23 17  1  0  0  0
 11  7  1  0  0  0
 15 12  1  0  0  0
  3  4  1  0  0  0
 22 24  1  0  0  0
M  END
> <minimizedAffinity>
-4.69070

> <minimizedRMSD>
1.92136

$$$$
C55769-P615


 18 20  0  0  0  0  0  0  0  0999 V2000
    0.4709   13.2011   21.9536 C   0  0  0  0  0  0  0  0  0  0  0  0
    1.2153   13.4832   23.0262 N   0  0  0  0  0  0  0  0  0  0  0  0
    2.2234   14.2281   22.5185 N   0  0  0  0  0  0  0  0  0  0  0  0
    2.1355   14.3981   21.1645 C   0  0  0  0  0  0  0  0  0  0  0  0
    0.9669   13.7844   20.7625 C   0  0  0  0  0  0  0  0  0  0  0  0
    0.3079   13.7669   19.4131 C   0  0  0  0  0  0  0  0  0  0  0  0
   -0.3484   15.1101   19.0525 C   0  0  0  0  0  0  0  0  0  0  0  0
   -0.5455   15.2896   17.5462 C   0  0  0  0  0  0  0  0  0  0  0  0
   -0.6833   13.9519   16.8319 C   0  0  0  0  0  0  0  0  0  0  0  0
    0.4960   13.1039   16.9959 N   0  0  0  0  0  0  0  0  0  0  0  0
    1.2163   13.2983   18.2673 C   0  0  0  0  0  0  0  0  0  0  0  0
    1.1405   13.3030   16.2308 H   0  0  0  0  0  0  0  0  0  0  0  0
    3.2150   14.8363   23.3917 C   0  0  0  0  0  0  0  0  0  0  0  0
    3.2111   14.2370   24.8071 C   0  0  0  0  0  0  0  0  0  0  0  0
    4.3445   14.8225   25.6443 C   0  0  0  0  0  0  0  0  0  0  0  0
    5.6709   14.7253   24.9067 C   0  0  0  0  0  0  0  0  0  0  0  0
    5.5739   15.4002   23.6556 O   0  0  0  0  0  0  0  0  0  0  0  0
    4.6149   14.7740   22.7875 C   0  0  0  0  0  0  0  0  0  0  0  0
  1  2  2  0  0  0
  2  3  1  0  0  0
 13  3  1  0  0  0
 13 14  1  0  0  0
 14 15  1  0  0  0
 15 16  1  0  0  0
 16 17  1  0  0  0
 17 18  1  0  0  0
  3  4  1  0  0  0
  4  5  2  0  0  0
  6  5  1  0  0  0
  6  7  1  0  0  0
  7  8  1  0  0  0
  8  9  1  0  0  0
  9 10  1  0  0  0
 10 11  1  0  0  0
  5  1  1  0  0  0
 11  6  1  0  0  0
 18 13  1  0  0  0
 10 12  1  0  0  0
M  END
> <minimizedAffinity>
-3.38691

> <minimizedRMSD>
1.93019

$$$$
C45903-P257


 23 25  0  0  0  0  0  0  0  0999 V2000
   25.5233   20.0724   21.5953 C   0  0  0  0  0  0  0  0  0  0  0  0
   24.6086   21.0663   21.7772 C   0  0  0  0  0  0  0  0  0  0  0  0
   25.1185   22.3119   21.6454 C   0  0  0  0  0  0  0  0  0  0  0  0
   26.3649   22.6026   21.2608 N   0  0  0  0  0  0  0  0  0  0  0  0
   27.1773   21.5756   20.9942 C   0  0  0  0  0  0  0  0  0  0  0  0
   26.7540   20.2959   21.0865 N   0  0  0  0  0  0  0  0  0  0  0  0
   28.5285   21.8744   20.7384 N   0  0  0  0  0  0  0  0  0  0  0  0
   29.1740   20.9875   19.7898 C   0  0  0  0  0  0  0  0  0  0  0  0
   30.6531   21.3041   19.6155 C   0  0  0  0  0  0  0  0  0  0  0  0
   30.8901   22.7835   19.3632 C   0  0  0  0  0  0  0  0  0  0  0  0
   30.3082   23.5874   20.5127 C   0  0  0  0  0  0  0  0  0  0  0  0
   28.8217   23.3084   20.7055 C   0  0  0  0  0  0  0  0  0  0  0  0
   25.2015   18.7893   22.1004 N   0  0  0  0  0  0  0  0  0  0  0  0
   24.6676   18.1164   21.6192 H   0  0  0  0  0  0  0  0  0  0  0  0
   25.7772   18.5977   23.4500 C   0  0  0  0  0  0  0  0  0  0  0  0
   24.6802   18.6359   24.5010 C   0  0  0  0  0  0  0  0  0  0  0  0
   25.4231   16.3497   24.7798 O   0  0  0  0  0  0  0  0  0  0  0  0
   24.4944   17.3249   25.2622 C   0  0  0  0  0  0  0  0  0  0  0  0
   26.3285   16.6678   24.9212 H   0  0  0  0  0  0  0  0  0  0  0  0
   23.0797   16.7992   25.0275 C   0  0  0  0  0  0  0  0  0  0  0  0
   22.0337   17.7940   24.4525 C   0  0  0  0  0  0  0  0  0  0  0  0
   20.9876   17.1065   25.3509 C   0  0  0  0  0  0  0  0  0  0  0  0
   22.1533   16.6831   26.2679 C   0  0  0  0  0  0  0  0  0  0  0  0
 18 17  1  0  0  0
 18 16  1  0  0  0
 16 15  1  0  0  0
 15 13  1  0  0  0
 13  1  1  0  0  0
  1  2  2  0  0  0
  2  3  1  0  0  0
  3  4  2  0  0  0
  4  5  1  0  0  0
  5  7  1  0  0  0
  7  8  1  0  0  0
  8  9  1  0  0  0
  9 10  1  0  0  0
 10 11  1  0  0  0
 11 12  1  0  0  0
  5  6  2  0  0  0
 18 20  1  0  0  0
 20 21  1  0  0  0
 21 22  1  0  0  0
 22 23  1  0  0  0
  6  1  1  0  0  0
 23 20  1  0  0  0
 12  7  1  0  0  0
 17 19  1  0  0  0
 13 14  1  0  0  0
M  END
> <minimizedAffinity>
-5.76278

> <minimizedRMSD>
1.23762

$$$$
C118482-P100


 26 27  0  0  0  0  0  0  0  0999 V2000
    3.9353   10.3835    1.0855 C   0  0  0  0  0  0  0  0  0  0  0  0
    3.5601   11.7763    1.5977 C   0  0  0  0  0  0  0  0  0  0  0  0
    4.3180   12.8924    0.8691 C   0  0  0  0  0  0  0  0  0  0  0  0
    5.5998   13.2083    1.4423 N   0  0  0  0  0  0  0  0  0  0  0  0
    6.9621   12.4688    1.3359 C   0  0  0  0  0  0  0  0  0  0  0  0
    7.2687   11.5348    0.7054 O   0  0  0  0  0  0  0  0  0  0  0  0
    5.6161   14.0257    1.9909 H   0  0  0  0  0  0  0  0  0  0  0  0
    7.9706   13.2372    2.1903 C   0  0  0  0  0  0  0  0  0  0  0  0
    7.6795   13.1615    3.6441 C   0  0  0  0  0  0  0  0  0  0  0  0
    7.6198   14.2219    4.5744 C   0  0  0  0  0  0  0  0  0  0  0  0
    7.3260   13.8007    5.8054 N   0  0  0  0  0  0  0  0  0  0  0  0
    7.1960   12.4255    5.6950 O   0  0  0  0  0  0  0  0  0  0  0  0
    7.4180   12.0516    4.4131 C   0  0  0  0  0  0  0  0  0  0  0  0
    3.7319   11.8649    3.1299 C   0  0  0  0  0  0  0  0  0  0  0  0
    3.0582   10.7866    3.8226 N   0  0  0  0  0  0  0  0  0  0  0  0
    1.5464   10.4304    3.9086 C   0  0  0  0  0  0  0  0  0  0  0  0
    0.6099   10.9978    3.4972 O   0  0  0  0  0  0  0  0  0  0  0  0
    3.6536   10.1804    4.3199 H   0  0  0  0  0  0  0  0  0  0  0  0
    1.4226    9.0402    4.5841 C   0  0  0  0  0  0  0  0  0  0  0  0
    0.3411    8.1973    3.9044 C   0  0  0  0  0  0  0  0  0  0  0  0
    0.0527    7.2004    4.9103 N   0  0  0  0  0  0  0  0  0  0  0  0
   -0.8671    6.1143    4.6832 C   0  0  0  0  0  0  0  0  0  0  0  0
    0.4212    7.6660    6.1687 C   0  0  0  0  0  0  0  0  0  0  0  0
    0.2596    7.0771    7.2258 O   0  0  0  0  0  0  0  0  0  0  0  0
    1.0746    8.8945    5.9892 N   0  0  0  0  0  0  0  0  0  0  0  0
    1.2661    9.5504    6.6979 H   0  0  0  0  0  0  0  0  0  0  0  0
  2  1  1  0  0  0
  2  3  1  0  0  0
  3  4  1  0  0  0
  4  5  1  0  0  0
  5  6  2  0  0  0
  5  8  1  0  0  0
  8  9  1  0  0  0
  9 10  1  0  0  0
 10 11  2  0  0  0
 11 12  1  0  0  0
 12 13  1  0  0  0
  2 14  1  0  0  0
 14 15  1  0  0  0
 15 16  1  0  0  0
 16 17  2  0  0  0
 19 16  1  0  0  0
 19 20  1  0  0  0
 20 21  1  0  0  0
 21 22  1  0  0  0
 21 23  1  0  0  0
 23 24  2  0  0  0
 23 25  1  0  0  0
 13  9  2  0  0  0
 25 19  1  0  0  0
  4  7  1  0  0  0
 15 18  1  0  0  0
 25 26  1  0  0  0
M  END
> <minimizedAffinity>
-4.48306

> <minimizedRMSD>
0.69329

$$$$
C118483-P100


 26 27  0  0  0  0  0  0  0  0999 V2000
    2.5216   10.3961    1.0050 C   0  0  0  0  0  0  0  0  0  0  0  0
    3.5650   11.0835    1.8957 C   0  0  0  0  0  0  0  0  0  0  0  0
    4.0715   12.3480    1.1900 C   0  0  0  0  0  0  0  0  0  0  0  0
    5.3806   12.7545    1.6324 N   0  0  0  0  0  0  0  0  0  0  0  0
    6.7587   12.0547    1.4796 C   0  0  0  0  0  0  0  0  0  0  0  0
    7.0533   11.0813    0.9057 O   0  0  0  0  0  0  0  0  0  0  0  0
    5.4060   13.6156    2.1089 H   0  0  0  0  0  0  0  0  0  0  0  0
    7.7961   12.9333    2.1770 C   0  0  0  0  0  0  0  0  0  0  0  0
    7.5992   13.0000    3.6453 C   0  0  0  0  0  0  0  0  0  0  0  0
    7.6032   14.1444    4.4723 C   0  0  0  0  0  0  0  0  0  0  0  0
    7.4073   13.8428    5.7566 N   0  0  0  0  0  0  0  0  0  0  0  0
    7.2775   12.4633    5.7875 O   0  0  0  0  0  0  0  0  0  0  0  0
    7.3994   11.9690    4.5333 C   0  0  0  0  0  0  0  0  0  0  0  0
    2.9595   11.4315    3.2740 C   0  0  0  0  0  0  0  0  0  0  0  0
    2.4193   10.2882    3.9761 N   0  0  0  0  0  0  0  0  0  0  0  0
    1.0438   10.0981    4.7029 C   0  0  0  0  0  0  0  0  0  0  0  0
    0.1175   10.8125    4.7724 O   0  0  0  0  0  0  0  0  0  0  0  0
    3.0115    9.5022    4.0015 H   0  0  0  0  0  0  0  0  0  0  0  0
    1.0383    8.6623    5.2839 C   0  0  0  0  0  0  0  0  0  0  0  0
    0.3990    7.7427    4.2376 C   0  0  0  0  0  0  0  0  0  0  0  0
   -0.1510    6.6699    5.0226 N   0  0  0  0  0  0  0  0  0  0  0  0
   -0.1914    7.0079    6.3642 C   0  0  0  0  0  0  0  0  0  0  0  0
   -0.5177    6.2377    7.2521 O   0  0  0  0  0  0  0  0  0  0  0  0
    0.2575    8.3252    6.4740 N   0  0  0  0  0  0  0  0  0  0  0  0
    0.4917    8.9442    7.7533 C   0  0  0  0  0  0  0  0  0  0  0  0
   -0.4579    5.8099    4.6546 H   0  0  0  0  0  0  0  0  0  0  0  0
  2  1  1  0  0  0
  2  3  1  0  0  0
  3  4  1  0  0  0
  4  5  1  0  0  0
  5  6  2  0  0  0
  5  8  1  0  0  0
  8  9  1  0  0  0
  9 10  1  0  0  0
 10 11  2  0  0  0
 11 12  1  0  0  0
 12 13  1  0  0  0
  2 14  1  0  0  0
 14 15  1  0  0  0
 15 16  1  0  0  0
 16 17  2  0  0  0
 19 16  1  0  0  0
 19 20  1  0  0  0
 20 21  1  0  0  0
 21 22  1  0  0  0
 22 23  2  0  0  0
 22 24  1  0  0  0
 24 25  1  0  0  0
 13  9  2  0  0  0
 24 19  1  0  0  0
  4  7  1  0  0  0
 15 18  1  0  0  0
 21 26  1  0  0  0
M  END
> <minimizedAffinity>
-4.23866

> <minimizedRMSD>
0.63003

$$$$
C118718-P174


 26 28  0  0  0  0  0  0  0  0999 V2000
   10.9393   14.3409   21.9268 N   0  0  0  0  0  0  0  0  0  0  0  0
   11.5228   13.6801   23.2009 C   0  0  0  0  0  0  0  0  0  0  0  0
   12.6135   13.3430   23.4467 O   0  0  0  0  0  0  0  0  0  0  0  0
    9.9925   14.6019   21.9945 H   0  0  0  0  0  0  0  0  0  0  0  0
   11.5710   14.6422   20.6302 C   0  0  0  0  0  0  0  0  0  0  0  0
   12.7852   15.5899   20.6825 C   0  0  0  0  0  0  0  0  0  0  0  0
   13.2299   16.1091   21.6954 O   0  0  0  0  0  0  0  0  0  0  0  0
   13.9608   17.0388   19.2053 C   0  0  0  0  0  0  0  0  0  0  0  0
   13.2268   15.8338   19.4151 O   0  0  0  0  0  0  0  0  0  0  0  0
   10.5131   15.2893   19.7218 C   0  0  0  0  0  0  0  0  0  0  0  0
    9.9741   16.5510   20.1991 N   0  0  0  0  0  0  0  0  0  0  0  0
   10.1407   17.7524   19.5846 C   0  0  0  0  0  0  0  0  0  0  0  0
    9.3736   18.6387   20.3012 C   0  0  0  0  0  0  0  0  0  0  0  0
    8.8224   18.0277   21.3857 N   0  0  0  0  0  0  0  0  0  0  0  0
    9.2044   16.7810   21.3002 C   0  0  0  0  0  0  0  0  0  0  0  0
   10.3545   13.5576   24.1912 C   0  0  0  0  0  0  0  0  0  0  0  0
    9.5502   12.2913   24.0836 C   0  0  0  0  0  0  0  0  0  0  0  0
    9.7289   11.2092   23.2444 C   0  0  0  0  0  0  0  0  0  0  0  0
    8.8710   10.2079   23.6188 N   0  0  0  0  0  0  0  0  0  0  0  0
    8.0671   10.6412   24.6461 C   0  0  0  0  0  0  0  0  0  0  0  0
    7.0666    9.9716   25.3604 C   0  0  0  0  0  0  0  0  0  0  0  0
    6.3689   10.6946   26.3329 C   0  0  0  0  0  0  0  0  0  0  0  0
    6.6578   12.0346   26.5755 C   0  0  0  0  0  0  0  0  0  0  0  0
    7.6785   12.6815   25.8708 C   0  0  0  0  0  0  0  0  0  0  0  0
    8.4139   11.9692   24.9000 C   0  0  0  0  0  0  0  0  0  0  0  0
    8.8358    9.3119   23.2124 H   0  0  0  0  0  0  0  0  0  0  0  0
  8  9  1  0  0  0
  9  6  1  0  0  0
  6  7  2  0  0  0
  6  5  1  0  0  0
  5 10  1  0  0  0
 10 11  1  0  0  0
 11 12  1  0  0  0
 12 13  2  0  0  0
 13 14  1  0  0  0
 14 15  2  0  0  0
  5  1  1  0  0  0
  1  2  1  0  0  0
  2  3  2  0  0  0
  2 16  1  0  0  0
 16 17  1  0  0  0
 17 18  2  0  0  0
 18 19  1  0  0  0
 19 20  1  0  0  0
 20 21  2  0  0  0
 21 22  1  0  0  0
 22 23  2  0  0  0
 23 24  1  0  0  0
 24 25  2  0  0  0
 15 11  1  0  0  0
 25 17  1  0  0  0
 25 20  1  0  0  0
  1  4  1  0  0  0
 19 26  1  0  0  0
M  END
> <minimizedAffinity>
-7.37925

> <minimizedRMSD>
0.65300

$$$$
C54664-P180


 23 26  0  0  0  0  0  0  0  0999 V2000
   23.8925   24.7067   15.5470 N   0  0  0  0  0  0  0  0  0  0  0  0
   24.6969   25.4286   16.5251 C   0  0  0  0  0  0  0  0  0  0  0  0
   25.7221   24.4701   17.1395 C   0  0  0  0  0  0  0  0  0  0  0  0
   25.1760   23.0368   17.3149 C   0  0  0  0  0  0  0  0  0  0  0  0
   23.6539   23.0792   17.4420 C   0  0  0  0  0  0  0  0  0  0  0  0
   23.0454   23.6788   16.1672 C   0  0  0  0  0  0  0  0  0  0  0  0
   25.8684   22.3534   18.4016 N   0  0  0  0  0  0  0  0  0  0  0  0
   25.2252   22.0292   19.5511 N   0  0  0  0  0  0  0  0  0  0  0  0
   26.2052   21.5585   20.3283 C   0  0  0  0  0  0  0  0  0  0  0  0
   27.4697   21.5766   19.7009 C   0  0  0  0  0  0  0  0  0  0  0  0
   28.7841   21.2202   20.0541 C   0  0  0  0  0  0  0  0  0  0  0  0
   29.8087   21.3939   19.1142 C   0  0  0  0  0  0  0  0  0  0  0  0
   29.5356   21.9069   17.8474 C   0  0  0  0  0  0  0  0  0  0  0  0
   28.2362   22.2656   17.4805 C   0  0  0  0  0  0  0  0  0  0  0  0
   27.2217   22.0908   18.4333 C   0  0  0  0  0  0  0  0  0  0  0  0
   22.6564   28.9655   13.7633 O   0  0  0  0  0  0  0  0  0  0  0  0
   22.9883   27.7954   13.8627 C   0  0  0  0  0  0  0  0  0  0  0  0
   22.6887   26.9069   15.0327 C   0  0  0  0  0  0  0  0  0  0  0  0
   23.1556   25.5244   14.5696 C   0  0  0  0  0  0  0  0  0  0  0  0
   23.9624   25.8228   13.3094 C   0  0  0  0  0  0  0  0  0  0  0  0
   24.6851   25.0614   12.6865 O   0  0  0  0  0  0  0  0  0  0  0  0
   23.7284   27.1144   12.9558 N   0  0  0  0  0  0  0  0  0  0  0  0
   24.0642   27.5156   12.1218 H   0  0  0  0  0  0  0  0  0  0  0  0
 16 17  2  0  0  0
 17 18  1  0  0  0
 18 19  1  0  0  0
 19  1  1  0  0  0
  1  2  1  0  0  0
  2  3  1  0  0  0
  3  4  1  0  0  0
  4  7  1  0  0  0
  7  8  1  0  0  0
  8  9  2  0  0  0
  9 10  1  0  0  0
 10 11  2  0  0  0
 11 12  1  0  0  0
 12 13  2  0  0  0
 13 14  1  0  0  0
 14 15  2  0  0  0
  4  5  1  0  0  0
  5  6  1  0  0  0
 19 20  1  0  0  0
 20 21  2  0  0  0
 20 22  1  0  0  0
 22 17  1  0  0  0
  6  1  1  0  0  0
 15  7  1  0  0  0
 15 10  1  0  0  0
 22 23  1  0  0  0
M  END
> <minimizedAffinity>
-3.58632

> <minimizedRMSD>
1.94448

$$$$
C55786-P481


 24 26  0  0  0  0  0  0  0  0999 V2000
   -1.3598   16.1075   16.1709 C   0  0  0  0  0  0  0  0  0  0  0  0
   -1.1711   15.4963   14.8605 N   0  0  0  0  0  0  0  0  0  0  0  0
   -1.2224   14.1871   14.4828 C   0  0  0  0  0  0  0  0  0  0  0  0
   -1.1025   14.1787   13.1120 C   0  0  0  0  0  0  0  0  0  0  0  0
   -0.9369   15.5335   12.7393 C   0  0  0  0  0  0  0  0  0  0  0  0
   -0.9128   16.3310   13.8180 N   0  0  0  0  0  0  0  0  0  0  0  0
   -0.7960   16.1443   11.3713 C   0  0  0  0  0  0  0  0  0  0  0  0
   -1.4129   17.5547   11.3097 C   0  0  0  0  0  0  0  0  0  0  0  0
   -1.7920   17.9653    9.8834 C   0  0  0  0  0  0  0  0  0  0  0  0
   -0.9275   17.2600    8.8416 C   0  0  0  0  0  0  0  0  0  0  0  0
   -1.0406   15.7991    8.8951 N   0  0  0  0  0  0  0  0  0  0  0  0
   -1.3664   15.2851   10.2329 C   0  0  0  0  0  0  0  0  0  0  0  0
   -0.1509   15.3954    8.6020 H   0  0  0  0  0  0  0  0  0  0  0  0
   -2.4312   14.6339   17.6741 O   0  0  0  0  0  0  0  0  0  0  0  0
   -1.4315   15.1467   17.3498 C   0  0  0  0  0  0  0  0  0  0  0  0
   -0.0115   15.0806   17.9860 N   0  0  0  0  0  0  0  0  0  0  0  0
    0.6563   15.6696   17.5662 H   0  0  0  0  0  0  0  0  0  0  0  0
    0.4838   14.2961   19.0908 C   0  0  0  0  0  0  0  0  0  0  0  0
    1.3285   13.1340   18.5712 C   0  0  0  0  0  0  0  0  0  0  0  0
    2.7466   13.6082   18.2347 C   0  0  0  0  0  0  0  0  0  0  0  0
    3.5796   12.4348   17.7697 C   0  0  0  0  0  0  0  0  0  0  0  0
    3.6176   11.4073   18.7639 O   0  0  0  0  0  0  0  0  0  0  0  0
    2.3212   10.8842   19.0397 C   0  0  0  0  0  0  0  0  0  0  0  0
    1.4013   11.9755   19.5727 C   0  0  0  0  0  0  0  0  0  0  0  0
 14 15  2  0  0  0
 15  1  1  0  0  0
  1  2  1  0  0  0
  2  3  1  0  0  0
  3  4  2  0  0  0
  4  5  1  0  0  0
  7  5  1  0  0  0
  7  8  1  0  0  0
  8  9  1  0  0  0
  9 10  1  0  0  0
 10 11  1  0  0  0
 11 12  1  0  0  0
  5  6  2  0  0  0
 15 16  1  0  0  0
 16 18  1  0  0  0
 18 19  1  0  0  0
 19 20  1  0  0  0
 20 21  1  0  0  0
 21 22  1  0  0  0
 22 23  1  0  0  0
 23 24  1  0  0  0
  6  2  1  0  0  0
 24 19  1  0  0  0
 12  7  1  0  0  0
 11 13  1  0  0  0
 16 17  1  0  0  0
M  END
> <minimizedAffinity>
-5.20217

> <minimizedRMSD>
0.93368

$$$$
C48087-P405


 21 24  0  0  0  0  0  0  0  0999 V2000
    5.8607   14.2050   22.5349 C   0  0  0  0  0  0  0  0  0  0  0  0
    5.9323   14.3110   24.0646 C   0  0  0  0  0  0  0  0  0  0  0  0
    7.1843   13.6268   24.6338 C   0  0  0  0  0  0  0  0  0  0  0  0
    8.0967   13.0551   23.5500 C   0  0  0  0  0  0  0  0  0  0  0  0
    8.3962   14.0927   22.5570 N   0  0  0  0  0  0  0  0  0  0  0  0
    7.1994   14.6893   21.9145 C   0  0  0  0  0  0  0  0  0  0  0  0
    9.6522   14.7657   22.4752 C   0  0  0  0  0  0  0  0  0  0  0  0
   10.4309   15.0613   23.5482 C   0  0  0  0  0  0  0  0  0  0  0  0
   11.6476   15.7197   23.5270 N   0  0  0  0  0  0  0  0  0  0  0  0
   12.0988   16.1065   22.3652 C   0  0  0  0  0  0  0  0  0  0  0  0
   11.4034   15.8266   21.1633 C   0  0  0  0  0  0  0  0  0  0  0  0
   11.7817   16.0918   19.9410 N   0  0  0  0  0  0  0  0  0  0  0  0
   10.7225   15.6385   19.2279 C   0  0  0  0  0  0  0  0  0  0  0  0
    9.7225   15.1007   19.9463 N   0  0  0  0  0  0  0  0  0  0  0  0
   10.1867   15.1934   21.2178 N   0  0  0  0  0  0  0  0  0  0  0  0
    2.2999   15.5270   22.1987 C   0  0  0  0  0  0  0  0  0  0  0  0
    2.2852   15.8023   20.8451 C   0  0  0  0  0  0  0  0  0  0  0  0
    3.3785   15.7245   20.0589 N   0  0  0  0  0  0  0  0  0  0  0  0
    4.5051   15.2492   20.6426 C   0  0  0  0  0  0  0  0  0  0  0  0
    4.6199   14.8696   21.9708 C   0  0  0  0  0  0  0  0  0  0  0  0
    3.4902   15.0789   22.7666 C   0  0  0  0  0  0  0  0  0  0  0  0
 16 17  2  0  0  0
 17 18  1  0  0  0
 18 19  2  0  0  0
 19 20  1  0  0  0
  1 20  1  0  0  0
  1  2  1  0  0  0
  2  3  1  0  0  0
  3  4  1  0  0  0
  4  5  1  0  0  0
  5  7  1  0  0  0
  7  8  2  0  0  0
  8  9  1  0  0  0
  9 10  2  0  0  0
 10 11  1  0  0  0
 11 12  2  0  0  0
 12 13  1  0  0  0
 13 14  2  0  0  0
 14 15  1  0  0  0
  5  6  1  0  0  0
 20 21  2  0  0  0
 21 16  1  0  0  0
  6  1  1  0  0  0
 15  7  1  0  0  0
 15 11  1  0  0  0
M  END
> <minimizedAffinity>
-6.18317

> <minimizedRMSD>
0.78655

$$$$
C12359-P310


 14 14  0  0  0  0  0  0  0  0999 V2000
    9.7812   12.4042   23.8852 N   0  0  0  0  0  0  0  0  0  0  0  0
   10.7351   12.1732   23.9616 H   0  0  0  0  0  0  0  0  0  0  0  0
    8.8067   11.5856   24.5595 C   0  0  0  0  0  0  0  0  0  0  0  0
    7.9665   12.0883   25.5525 C   0  0  0  0  0  0  0  0  0  0  0  0
    7.0633   11.2672   26.2217 C   0  0  0  0  0  0  0  0  0  0  0  0
    7.0419    9.9338   25.8921 C   0  0  0  0  0  0  0  0  0  0  0  0
    7.8738    9.3815   24.9869 N   0  0  0  0  0  0  0  0  0  0  0  0
    8.7338   10.2149   24.3381 C   0  0  0  0  0  0  0  0  0  0  0  0
    9.3311   13.7565   22.9623 S   0  0  0  0  0  0  0  0  0  0  0  0
   10.4214   13.9704   22.0364 O   0  0  0  0  0  0  0  0  0  0  0  0
    7.9966   13.5174   22.4625 O   0  0  0  0  0  0  0  0  0  0  0  0
    9.3379   15.1217   24.1196 C   0  0  0  0  0  0  0  0  0  0  0  0
   10.3416   15.0011   26.4259 C   0  0  0  0  0  0  0  0  0  0  0  0
   10.6206   15.1698   24.9442 C   0  0  0  0  0  0  0  0  0  0  0  0
 13 14  1  0  0  0
 14 12  1  0  0  0
 12  9  1  0  0  0
  9 10  2  0  0  0
  9 11  2  0  0  0
  9  1  1  0  0  0
  1  3  1  0  0  0
  3  4  2  0  0  0
  4  5  1  0  0  0
  5  6  2  0  0  0
  6  7  1  0  0  0
  7  8  2  0  0  0
  8  3  1  0  0  0
  1  2  1  0  0  0
M  END
> <minimizedAffinity>
-4.64244

> <minimizedRMSD>
1.57764

$$$$
C46323-P374


 25 27  0  0  0  0  0  0  0  0999 V2000
   20.0238   -4.1582   18.5173 O   0  0  0  0  0  0  0  0  0  0  0  0
   18.9305   -4.3748   18.8733 C   0  0  0  0  0  0  0  0  0  0  0  0
   17.8831   -5.4068   18.3509 N   0  0  0  0  0  0  0  0  0  0  0  0
   16.9953   -5.3422   18.7715 H   0  0  0  0  0  0  0  0  0  0  0  0
   17.9977   -6.3828   17.4073 C   0  0  0  0  0  0  0  0  0  0  0  0
   16.9702   -7.2326   17.2886 N   0  0  0  0  0  0  0  0  0  0  0  0
   17.3332   -8.0405   16.2816 N   0  0  0  0  0  0  0  0  0  0  0  0
   18.5515   -7.7511   15.7395 C   0  0  0  0  0  0  0  0  0  0  0  0
   19.2435   -8.3280   14.6694 C   0  0  0  0  0  0  0  0  0  0  0  0
   20.4686   -7.7577   14.3336 C   0  0  0  0  0  0  0  0  0  0  0  0
   21.1441   -8.3010   13.2766 O   0  0  0  0  0  0  0  0  0  0  0  0
   20.9911   -6.6789   15.0360 C   0  0  0  0  0  0  0  0  0  0  0  0
   20.2804   -6.1269   16.1099 C   0  0  0  0  0  0  0  0  0  0  0  0
   19.0306   -6.6657   16.4715 C   0  0  0  0  0  0  0  0  0  0  0  0
   16.7683   -8.7802   15.9605 H   0  0  0  0  0  0  0  0  0  0  0  0
   20.7799   -9.0285   12.8118 H   0  0  0  0  0  0  0  0  0  0  0  0
   18.2278   -3.6048   20.0210 C   0  0  0  0  0  0  0  0  0  0  0  0
   19.0340   -2.7353   20.7976 O   0  0  0  0  0  0  0  0  0  0  0  0
   19.3475   -1.4928   20.1509 C   0  0  0  0  0  0  0  0  0  0  0  0
   18.2471   -0.4613   20.4403 C   0  0  0  0  0  0  0  0  0  0  0  0
   18.5634    0.4324   21.6411 C   0  0  0  0  0  0  0  0  0  0  0  0
   19.4765   -0.2617   22.6421 C   0  0  0  0  0  0  0  0  0  0  0  0
   20.7794   -0.5935   22.0735 N   0  0  0  0  0  0  0  0  0  0  0  0
   20.7183   -0.9969   20.6556 C   0  0  0  0  0  0  0  0  0  0  0  0
   21.1796   -1.3627   22.6108 H   0  0  0  0  0  0  0  0  0  0  0  0
  1  2  2  0  0  0
  2 17  1  0  0  0
 17 18  1  0  0  0
 19 18  1  0  0  0
 19 20  1  0  0  0
 20 21  1  0  0  0
 21 22  1  0  0  0
 22 23  1  0  0  0
 23 24  1  0  0  0
  2  3  1  0  0  0
  3  5  1  0  0  0
  5  6  2  0  0  0
  6  7  1  0  0  0
  7  8  1  0  0  0
  8  9  2  0  0  0
  9 10  1  0  0  0
 10 11  1  0  0  0
 10 12  2  0  0  0
 12 13  1  0  0  0
 13 14  2  0  0  0
 24 19  1  0  0  0
 14  5  1  0  0  0
 14  8  1  0  0  0
 23 25  1  0  0  0
  3  4  1  0  0  0
  7 15  1  0  0  0
 11 16  1  0  0  0
M  END
> <minimizedAffinity>
-3.47336

> <minimizedRMSD>
0.20274

$$$$
C46357-P374


 25 28  0  0  0  0  0  0  0  0999 V2000
   20.2292   -6.8627   15.3481 C   0  0  0  0  0  0  0  0  0  0  0  0
   19.5233   -7.9478   14.8134 C   0  0  0  0  0  0  0  0  0  0  0  0
   18.2708   -8.2969   15.3229 C   0  0  0  0  0  0  0  0  0  0  0  0
   17.7897   -7.5417   16.3962 C   0  0  0  0  0  0  0  0  0  0  0  0
   16.6274   -7.6359   17.1126 N   0  0  0  0  0  0  0  0  0  0  0  0
   16.5702   -6.8203   18.1757 N   0  0  0  0  0  0  0  0  0  0  0  0
   17.7017   -6.1051   18.0899 C   0  0  0  0  0  0  0  0  0  0  0  0
   18.4914   -6.4849   16.9713 C   0  0  0  0  0  0  0  0  0  0  0  0
   19.7408   -6.1193   16.4350 C   0  0  0  0  0  0  0  0  0  0  0  0
   15.8967   -8.2490   16.8687 H   0  0  0  0  0  0  0  0  0  0  0  0
   18.1134   -5.0588   19.1845 C   0  0  0  0  0  0  0  0  0  0  0  0
   18.3618   -3.7852   18.9548 N   0  0  0  0  0  0  0  0  0  0  0  0
   18.7430   -3.3166   20.1842 C   0  0  0  0  0  0  0  0  0  0  0  0
   18.7670   -4.2414   21.1530 N   0  0  0  0  0  0  0  0  0  0  0  0
   18.3190   -5.3944   20.4989 O   0  0  0  0  0  0  0  0  0  0  0  0
   19.0636   -1.8848   20.4548 C   0  0  0  0  0  0  0  0  0  0  0  0
   20.2088   -1.3439   19.5931 C   0  0  0  0  0  0  0  0  0  0  0  0
   20.5116    0.1228   19.9258 C   0  0  0  0  0  0  0  0  0  0  0  0
   19.3668    0.8327   20.6539 C   0  0  0  0  0  0  0  0  0  0  0  0
   18.0802    0.4382   20.1001 N   0  0  0  0  0  0  0  0  0  0  0  0
   17.8103   -0.9982   20.2757 C   0  0  0  0  0  0  0  0  0  0  0  0
   18.0728    0.6533   19.1031 H   0  0  0  0  0  0  0  0  0  0  0  0
   21.4839   -5.7441   13.7626 O   0  0  0  0  0  0  0  0  0  0  0  0
   21.5118   -6.4945   14.7511 N   0  0  0  0  0  0  0  0  0  0  0  0
   22.5333   -6.9823   15.2573 O   0  0  0  0  0  0  0  0  0  0  0  0
 23 24  2  0  0  0
 24 25  1  0  0  0
 24  1  1  0  0  0
  1  2  2  0  0  0
  2  3  1  0  0  0
  3  4  2  0  0  0
  4  5  1  0  0  0
  5  6  1  0  0  0
  6  7  2  0  0  0
  7 11  1  0  0  0
 11 12  2  0  0  0
 12 13  1  0  0  0
 16 13  1  0  0  0
 16 17  1  0  0  0
 17 18  1  0  0  0
 18 19  1  0  0  0
 19 20  1  0  0  0
 20 21  1  0  0  0
 13 14  2  0  0  0
 14 15  1  0  0  0
  7  8  1  0  0  0
  8  9  2  0  0  0
  9  1  1  0  0  0
  8  4  1  0  0  0
 15 11  1  0  0  0
 21 16  1  0  0  0
  5 10  1  0  0  0
 20 22  1  0  0  0
M  CHG 1  24   1
M  CHG 1  25  -1
M  END
> <minimizedAffinity>
-4.53641

> <minimizedRMSD>
2.02313

$$$$
C48566-P93


 20 21  0  0  0  0  0  0  0  0999 V2000
   10.7204   15.4521   21.8452 C   0  0  0  0  0  0  0  0  0  0  0  0
   11.7865   14.6411   22.6156 C   0  0  0  0  0  0  0  0  0  0  0  0
   11.3895   14.2951   24.0478 C   0  0  0  0  0  0  0  0  0  0  0  0
   10.0302   13.7561   24.1696 N   0  0  0  0  0  0  0  0  0  0  0  0
    9.0734   14.7332   23.6445 C   0  0  0  0  0  0  0  0  0  0  0  0
    9.2884   15.0280   22.1748 C   0  0  0  0  0  0  0  0  0  0  0  0
   11.0673   15.3762   20.3533 C   0  0  0  0  0  0  0  0  0  0  0  0
    9.9878   15.5269   19.3009 C   0  0  0  0  0  0  0  0  0  0  0  0
    9.5842   16.9113   18.9735 C   0  0  0  0  0  0  0  0  0  0  0  0
    9.8593   17.3814   17.8836 O   0  0  0  0  0  0  0  0  0  0  0  0
    9.0007   17.5651   20.0121 O   0  0  0  0  0  0  0  0  0  0  0  0
    7.8701   19.3821   18.6452 C   0  0  0  0  0  0  0  0  0  0  0  0
    8.8213   18.9470   19.7380 C   0  0  0  0  0  0  0  0  0  0  0  0
    9.8628   12.5208   23.4031 C   0  0  0  0  0  0  0  0  0  0  0  0
    9.2599   11.4310   24.1935 C   0  0  0  0  0  0  0  0  0  0  0  0
    8.2206   11.5562   25.1359 C   0  0  0  0  0  0  0  0  0  0  0  0
    7.7564   10.2783   25.2840 C   0  0  0  0  0  0  0  0  0  0  0  0
    8.5640    9.4840   24.5247 N   0  0  0  0  0  0  0  0  0  0  0  0
    9.5211   10.1555   23.8879 N   0  0  0  0  0  0  0  0  0  0  0  0
    8.4503    8.5086   24.4543 H   0  0  0  0  0  0  0  0  0  0  0  0
 12 13  1  0  0  0
 13 11  1  0  0  0
 11  9  1  0  0  0
  9 10  2  0  0  0
  9  8  1  0  0  0
  8  7  1  0  0  0
  7  1  1  0  0  0
  1  2  1  0  0  0
  2  3  1  0  0  0
  3  4  1  0  0  0
  4 14  1  0  0  0
 14 15  1  0  0  0
 15 16  1  0  0  0
 16 17  2  0  0  0
 17 18  1  0  0  0
 18 19  1  0  0  0
  4  5  1  0  0  0
  5  6  1  0  0  0
  6  1  1  0  0  0
 19 15  2  0  0  0
 18 20  1  0  0  0
M  END
> <minimizedAffinity>
-5.37391

> <minimizedRMSD>
1.20808

$$$$
C45903-P337


 23 25  0  0  0  0  0  0  0  0999 V2000
   26.3275   20.5620   21.2547 C   0  0  0  0  0  0  0  0  0  0  0  0
   25.7691   21.5974   21.9417 C   0  0  0  0  0  0  0  0  0  0  0  0
   26.5486   22.6990   22.0363 C   0  0  0  0  0  0  0  0  0  0  0  0
   27.7194   22.8672   21.4170 N   0  0  0  0  0  0  0  0  0  0  0  0
   28.1640   21.8494   20.6707 C   0  0  0  0  0  0  0  0  0  0  0  0
   27.4680   20.7009   20.5455 N   0  0  0  0  0  0  0  0  0  0  0  0
   29.3904   22.0266   20.0346 N   0  0  0  0  0  0  0  0  0  0  0  0
   30.2175   20.8742   19.7646 C   0  0  0  0  0  0  0  0  0  0  0  0
   31.1728   21.1398   18.5992 C   0  0  0  0  0  0  0  0  0  0  0  0
   31.6914   22.5746   18.5298 C   0  0  0  0  0  0  0  0  0  0  0  0
   31.5110   23.3015   19.8519 C   0  0  0  0  0  0  0  0  0  0  0  0
   30.0507   23.3020   20.3087 C   0  0  0  0  0  0  0  0  0  0  0  0
   25.7469   19.2911   21.3243 N   0  0  0  0  0  0  0  0  0  0  0  0
   26.0000   18.5716   20.7018 H   0  0  0  0  0  0  0  0  0  0  0  0
   24.7421   19.0858   22.3718 C   0  0  0  0  0  0  0  0  0  0  0  0
   23.3437   19.3639   21.8176 C   0  0  0  0  0  0  0  0  0  0  0  0
   21.6973   18.8833   23.5102 O   0  0  0  0  0  0  0  0  0  0  0  0
   22.3815   19.9507   22.8462 C   0  0  0  0  0  0  0  0  0  0  0  0
   22.3458   18.2818   23.9083 H   0  0  0  0  0  0  0  0  0  0  0  0
   21.3456   20.8953   22.2206 C   0  0  0  0  0  0  0  0  0  0  0  0
   20.4464   20.4117   21.0549 C   0  0  0  0  0  0  0  0  0  0  0  0
   21.3397   21.2017   20.0797 C   0  0  0  0  0  0  0  0  0  0  0  0
   21.8561   22.0165   21.2743 C   0  0  0  0  0  0  0  0  0  0  0  0
 18 17  1  0  0  0
 18 16  1  0  0  0
 16 15  1  0  0  0
 15 13  1  0  0  0
 13  1  1  0  0  0
  1  2  2  0  0  0
  2  3  1  0  0  0
  3  4  2  0  0  0
  4  5  1  0  0  0
  5  7  1  0  0  0
  7  8  1  0  0  0
  8  9  1  0  0  0
  9 10  1  0  0  0
 10 11  1  0  0  0
 11 12  1  0  0  0
  5  6  2  0  0  0
 18 20  1  0  0  0
 20 21  1  0  0  0
 21 22  1  0  0  0
 22 23  1  0  0  0
  6  1  1  0  0  0
 23 20  1  0  0  0
 12  7  1  0  0  0
 17 19  1  0  0  0
 13 14  1  0  0  0
M  END
> <minimizedAffinity>
-5.92594

> <minimizedRMSD>
1.53477

$$$$
C29426-P551


 15 15  0  0  0  0  0  0  0  0999 V2000
    7.8003   14.3998   21.7413 C   0  0  0  0  0  0  0  0  0  0  0  0
    8.8298   14.5829   22.8710 C   0  0  0  0  0  0  0  0  0  0  0  0
   10.2242   14.8521   22.4194 N   0  0  0  0  0  0  0  0  0  0  0  0
   10.4592   15.1877   21.0079 C   0  0  0  0  0  0  0  0  0  0  0  0
   11.9277   15.2586   20.6204 C   0  0  0  0  0  0  0  0  0  0  0  0
   12.6561   16.1813   21.5735 C   0  0  0  0  0  0  0  0  0  0  0  0
   12.5076   15.6516   22.9824 C   0  0  0  0  0  0  0  0  0  0  0  0
   11.0725   15.4055   23.3928 C   0  0  0  0  0  0  0  0  0  0  0  0
   10.7319   15.5551   24.5671 O   0  0  0  0  0  0  0  0  0  0  0  0
    8.7407   13.2874   23.7421 C   0  0  0  0  0  0  0  0  0  0  0  0
    8.1282   13.2393   24.7333 O   0  0  0  0  0  0  0  0  0  0  0  0
    9.4946   12.1820   22.9800 N   0  0  0  0  0  0  0  0  0  0  0  0
    9.5724   10.8212   23.2154 O   0  0  0  0  0  0  0  0  0  0  0  0
   10.0041   12.4947   22.1978 H   0  0  0  0  0  0  0  0  0  0  0  0
    9.0457   10.5980   23.9988 H   0  0  0  0  0  0  0  0  0  0  0  0
  2  1  1  0  0  0
  2 10  1  0  0  0
 10 11  2  0  0  0
 10 12  1  0  0  0
 12 13  1  0  0  0
  2  3  1  0  0  0
  3  4  1  0  0  0
  4  5  1  0  0  0
  5  6  1  0  0  0
  6  7  1  0  0  0
  7  8  1  0  0  0
  8  9  2  0  0  0
  8  3  1  0  0  0
 12 14  1  0  0  0
 13 15  1  0  0  0
M  END
> <minimizedAffinity>
-5.35414

> <minimizedRMSD>
0.73480

$$$$
C54664-P441


 23 26  0  0  0  0  0  0  0  0999 V2000
   23.4726   24.0499   16.4232 N   0  0  0  0  0  0  0  0  0  0  0  0
   24.4461   24.7799   17.2391 C   0  0  0  0  0  0  0  0  0  0  0  0
   25.5264   23.8184   17.7360 C   0  0  0  0  0  0  0  0  0  0  0  0
   24.9739   22.4258   18.1031 C   0  0  0  0  0  0  0  0  0  0  0  0
   23.4911   22.5324   18.4463 C   0  0  0  0  0  0  0  0  0  0  0  0
   22.7054   23.1053   17.2589 C   0  0  0  0  0  0  0  0  0  0  0  0
   25.7926   21.8104   19.1439 N   0  0  0  0  0  0  0  0  0  0  0  0
   25.2512   21.4386   20.3308 N   0  0  0  0  0  0  0  0  0  0  0  0
   26.3148   21.0836   21.0566 C   0  0  0  0  0  0  0  0  0  0  0  0
   27.5340   21.2291   20.3610 C   0  0  0  0  0  0  0  0  0  0  0  0
   28.8957   21.0266   20.6486 C   0  0  0  0  0  0  0  0  0  0  0  0
   29.8447   21.2939   19.6533 C   0  0  0  0  0  0  0  0  0  0  0  0
   29.4511   21.7483   18.3959 C   0  0  0  0  0  0  0  0  0  0  0  0
   28.1027   21.9528   18.0930 C   0  0  0  0  0  0  0  0  0  0  0  0
   27.1650   21.6887   19.1018 C   0  0  0  0  0  0  0  0  0  0  0  0
   23.5038   27.8816   13.7689 O   0  0  0  0  0  0  0  0  0  0  0  0
   23.2801   26.7616   14.1987 C   0  0  0  0  0  0  0  0  0  0  0  0
   23.1476   26.4028   15.6466 C   0  0  0  0  0  0  0  0  0  0  0  0
   22.6044   24.9659   15.6433 C   0  0  0  0  0  0  0  0  0  0  0  0
   22.5412   24.6402   14.1519 C   0  0  0  0  0  0  0  0  0  0  0  0
   22.0106   23.6597   13.6498 O   0  0  0  0  0  0  0  0  0  0  0  0
   23.0830   25.6591   13.4427 N   0  0  0  0  0  0  0  0  0  0  0  0
   23.3076   25.6029   12.4859 H   0  0  0  0  0  0  0  0  0  0  0  0
 16 17  2  0  0  0
 17 18  1  0  0  0
 18 19  1  0  0  0
 19  1  1  0  0  0
  1  2  1  0  0  0
  2  3  1  0  0  0
  3  4  1  0  0  0
  4  7  1  0  0  0
  7  8  1  0  0  0
  8  9  2  0  0  0
  9 10  1  0  0  0
 10 11  2  0  0  0
 11 12  1  0  0  0
 12 13  2  0  0  0
 13 14  1  0  0  0
 14 15  2  0  0  0
  4  5  1  0  0  0
  5  6  1  0  0  0
 19 20  1  0  0  0
 20 21  2  0  0  0
 20 22  1  0  0  0
 22 17  1  0  0  0
  6  1  1  0  0  0
 15  7  1  0  0  0
 15 10  1  0  0  0
 22 23  1  0  0  0
M  END
> <minimizedAffinity>
-4.04037

> <minimizedRMSD>
1.87011

$$$$
C127359-P20


 16 17  0  0  0  0  0  0  0  0999 V2000
   13.4848   23.7747   27.5602 O   0  0  0  0  0  0  0  0  0  0  0  0
   13.8556   22.7836   28.1847 C   0  0  0  0  0  0  0  0  0  0  0  0
   13.1876   22.4806   29.4759 C   0  0  0  0  0  0  0  0  0  0  0  0
   13.5795   21.4329   30.2053 C   0  0  0  0  0  0  0  0  0  0  0  0
   14.6565   20.5982   29.7494 C   0  0  0  0  0  0  0  0  0  0  0  0
   15.2707   20.8306   28.5760 C   0  0  0  0  0  0  0  0  0  0  0  0
   16.6783   19.6835   28.0767 Br  0  0  0  0  0  0  0  0  0  0  0  0
   14.8652   21.9060   27.7759 N   0  0  0  0  0  0  0  0  0  0  0  0
   15.4783   22.1577   26.4691 C   0  0  0  0  0  0  0  0  0  0  0  0
   14.7860   21.4674   25.2807 C   0  0  0  0  0  0  0  0  0  0  0  0
   14.1185   22.6383   24.0613 S   0  0  0  0  0  0  0  0  0  0  0  0
   12.3171   22.5418   24.2978 C   0  0  0  0  0  0  0  0  0  0  0  0
   11.7255   23.9206   24.4894 C   0  0  0  0  0  0  0  0  0  0  0  0
   10.3138   23.5822   24.9041 C   0  0  0  0  0  0  0  0  0  0  0  0
   10.4053   22.4006   25.7057 O   0  0  0  0  0  0  0  0  0  0  0  0
   11.6418   21.7314   25.3879 C   0  0  0  0  0  0  0  0  0  0  0  0
  1  2  2  0  0  0
  2  3  1  0  0  0
  3  4  2  0  0  0
  4  5  1  0  0  0
  5  6  2  0  0  0
  6  7  1  0  0  0
  6  8  1  0  0  0
  8  9  1  0  0  0
  9 10  1  0  0  0
 10 11  1  0  0  0
 12 11  1  0  0  0
 12 13  1  0  0  0
 13 14  1  0  0  0
 14 15  1  0  0  0
 15 16  1  0  0  0
  8  2  1  0  0  0
 16 12  1  0  0  0
M  END
> <minimizedAffinity>
-2.35336

> <minimizedRMSD>
1.51634

$$$$
C52374-P354


 24 26  0  0  0  0  0  0  0  0999 V2000
    6.5558   17.3112   27.8272 N   0  0  0  0  0  0  0  0  0  0  0  0
    5.1236   17.6342   27.7975 C   0  0  0  0  0  0  0  0  0  0  0  0
    4.8105   18.8797   26.9779 C   0  0  0  0  0  0  0  0  0  0  0  0
    5.5376   20.0909   27.5357 C   0  0  0  0  0  0  0  0  0  0  0  0
    7.0486   19.8529   27.7365 C   0  0  0  0  0  0  0  0  0  0  0  0
    7.2853   18.4631   28.4222 C   0  0  0  0  0  0  0  0  0  0  0  0
    7.5625   21.0455   28.4437 N   0  0  0  0  0  0  0  0  0  0  0  0
    7.9469   22.1258   27.5008 C   0  0  0  0  0  0  0  0  0  0  0  0
    9.0878   23.0300   28.0029 C   0  0  0  0  0  0  0  0  0  0  0  0
   10.3009   22.2845   28.3564 N   0  0  0  0  0  0  0  0  0  0  0  0
    9.9971   21.0122   29.0230 C   0  0  0  0  0  0  0  0  0  0  0  0
    8.5520   20.8609   29.5039 C   0  0  0  0  0  0  0  0  0  0  0  0
   10.8668   22.8566   28.9832 H   0  0  0  0  0  0  0  0  0  0  0  0
    7.1108   16.9296   26.5154 C   0  0  0  0  0  0  0  0  0  0  0  0
    6.6386   15.6031   25.9011 C   0  0  0  0  0  0  0  0  0  0  0  0
    6.5513   14.4125   26.8532 C   0  0  0  0  0  0  0  0  0  0  0  0
    6.1284   13.2867   26.0707 O   0  0  0  0  0  0  0  0  0  0  0  0
    6.7033   12.0347   26.4515 C   0  0  0  0  0  0  0  0  0  0  0  0
    9.4662   10.3850   23.5541 C   0  0  0  0  0  0  0  0  0  0  0  0
    8.5185    9.5786   24.1753 C   0  0  0  0  0  0  0  0  0  0  0  0
    7.6112   10.1127   25.0935 C   0  0  0  0  0  0  0  0  0  0  0  0
    7.6391   11.4788   25.3991 C   0  0  0  0  0  0  0  0  0  0  0  0
    8.5680   12.2848   24.7224 C   0  0  0  0  0  0  0  0  0  0  0  0
    9.4831   11.7453   23.8184 C   0  0  0  0  0  0  0  0  0  0  0  0
 19 20  2  0  0  0
 20 21  1  0  0  0
 21 22  2  0  0  0
 22 18  1  0  0  0
 18 17  1  0  0  0
 17 16  1  0  0  0
 16 15  1  0  0  0
 15 14  1  0  0  0
 14  1  1  0  0  0
  1  2  1  0  0  0
  2  3  1  0  0  0
  3  4  1  0  0  0
  4  5  1  0  0  0
  5  7  1  0  0  0
  7  8  1  0  0  0
  8  9  1  0  0  0
  9 10  1  0  0  0
 10 11  1  0  0  0
 11 12  1  0  0  0
  5  6  1  0  0  0
 22 23  1  0  0  0
 23 24  2  0  0  0
 24 19  1  0  0  0
  6  1  1  0  0  0
 12  7  1  0  0  0
 10 13  1  0  0  0
M  END
> <minimizedAffinity>
-4.04647

> <minimizedRMSD>
1.33322

$$$$
C52375-P354


 24 26  0  0  0  0  0  0  0  0999 V2000
    6.6163   18.5399   27.4144 N   0  0  0  0  0  0  0  0  0  0  0  0
    5.5702   19.4156   27.9399 C   0  0  0  0  0  0  0  0  0  0  0  0
    5.9502   20.8800   27.7136 C   0  0  0  0  0  0  0  0  0  0  0  0
    7.3391   21.2158   28.2986 C   0  0  0  0  0  0  0  0  0  0  0  0
    8.3739   20.1826   27.8169 C   0  0  0  0  0  0  0  0  0  0  0  0
    7.8916   18.7544   28.0835 C   0  0  0  0  0  0  0  0  0  0  0  0
    7.7206   22.6280   28.0976 N   0  0  0  0  0  0  0  0  0  0  0  0
    7.8253   23.0690   26.6969 C   0  0  0  0  0  0  0  0  0  0  0  0
    8.6533   24.3554   26.5049 C   0  0  0  0  0  0  0  0  0  0  0  0
   10.0221   24.2772   27.0304 N   0  0  0  0  0  0  0  0  0  0  0  0
   10.1429   23.3087   28.1254 C   0  0  0  0  0  0  0  0  0  0  0  0
    8.8384   23.1107   28.9212 C   0  0  0  0  0  0  0  0  0  0  0  0
   10.2942   25.1978   27.3751 H   0  0  0  0  0  0  0  0  0  0  0  0
    6.2236   17.1346   27.2894 C   0  0  0  0  0  0  0  0  0  0  0  0
    4.8529   16.7256   27.8471 C   0  0  0  0  0  0  0  0  0  0  0  0
    4.1809   15.6815   26.9462 C   0  0  0  0  0  0  0  0  0  0  0  0
    5.1541   14.7481   26.4887 O   0  0  0  0  0  0  0  0  0  0  0  0
    5.2447   13.5473   27.2629 C   0  0  0  0  0  0  0  0  0  0  0  0
    7.7110   10.7680   25.0367 C   0  0  0  0  0  0  0  0  0  0  0  0
    8.2431   12.1799   25.1721 C   0  0  0  0  0  0  0  0  0  0  0  0
    7.1573   13.1492   25.6202 C   0  0  0  0  0  0  0  0  0  0  0  0
    6.3600   12.5963   26.8016 C   0  0  0  0  0  0  0  0  0  0  0  0
    5.7855   11.3283   26.4720 O   0  0  0  0  0  0  0  0  0  0  0  0
    6.7701   10.3516   26.1515 C   0  0  0  0  0  0  0  0  0  0  0  0
 19 20  1  0  0  0
 20 21  1  0  0  0
 21 22  1  0  0  0
 22 18  1  0  0  0
 18 17  1  0  0  0
 17 16  1  0  0  0
 16 15  1  0  0  0
 15 14  1  0  0  0
 14  1  1  0  0  0
  1  2  1  0  0  0
  2  3  1  0  0  0
  3  4  1  0  0  0
  4  7  1  0  0  0
  7  8  1  0  0  0
  8  9  1  0  0  0
  9 10  1  0  0  0
 10 11  1  0  0  0
 11 12  1  0  0  0
  4  5  1  0  0  0
  5  6  1  0  0  0
 22 23  1  0  0  0
 23 24  1  0  0  0
 24 19  1  0  0  0
  6  1  1  0  0  0
 12  7  1  0  0  0
 10 13  1  0  0  0
M  END
> <minimizedAffinity>
-3.59353

> <minimizedRMSD>
1.32935

$$$$
C59022-P93


 21 23  0  0  0  0  0  0  0  0999 V2000
    7.4994   14.1297   22.2444 C   0  0  0  0  0  0  0  0  0  0  0  0
    8.6078   14.8188   21.4509 C   0  0  0  0  0  0  0  0  0  0  0  0
    9.9711   14.4577   22.0329 C   0  0  0  0  0  0  0  0  0  0  0  0
   10.0268   14.5913   23.5614 C   0  0  0  0  0  0  0  0  0  0  0  0
    8.8636   14.0920   24.3109 N   0  0  0  0  0  0  0  0  0  0  0  0
    7.6000   14.5704   23.7070 C   0  0  0  0  0  0  0  0  0  0  0  0
    8.9337   12.6699   24.7082 C   0  0  0  0  0  0  0  0  0  0  0  0
    9.7674   11.7252   23.8206 C   0  0  0  0  0  0  0  0  0  0  0  0
    9.7089   10.2694   24.2614 C   0  0  0  0  0  0  0  0  0  0  0  0
    8.3751    9.8361   24.4721 O   0  0  0  0  0  0  0  0  0  0  0  0
    7.7066   10.6273   25.4330 C   0  0  0  0  0  0  0  0  0  0  0  0
    7.5530   12.0555   24.9856 C   0  0  0  0  0  0  0  0  0  0  0  0
    4.5747   15.1834   23.1617 O   0  0  0  0  0  0  0  0  0  0  0  0
    4.8591   14.7195   22.1294 C   0  0  0  0  0  0  0  0  0  0  0  0
    6.2223   14.2341   21.5927 N   0  0  0  0  0  0  0  0  0  0  0  0
    6.2163   13.9495   20.6502 H   0  0  0  0  0  0  0  0  0  0  0  0
    3.8853   14.5346   21.0357 C   0  0  0  0  0  0  0  0  0  0  0  0
    2.7535   15.1922   20.8437 N   0  0  0  0  0  0  0  0  0  0  0  0
    2.2765   14.6927   19.6521 C   0  0  0  0  0  0  0  0  0  0  0  0
    3.1583   13.7761   19.1399 C   0  0  0  0  0  0  0  0  0  0  0  0
    4.2074   13.6776   20.0011 O   0  0  0  0  0  0  0  0  0  0  0  0
 13 14  2  0  0  0
 14 15  1  0  0  0
  1 15  1  0  0  0
  1  2  1  0  0  0
  2  3  1  0  0  0
  3  4  1  0  0  0
  4  5  1  0  0  0
  5  7  1  0  0  0
  7  8  1  0  0  0
  8  9  1  0  0  0
  9 10  1  0  0  0
 10 11  1  0  0  0
 11 12  1  0  0  0
  5  6  1  0  0  0
 14 17  1  0  0  0
 17 18  2  0  0  0
 18 19  1  0  0  0
 19 20  2  0  0  0
 20 21  1  0  0  0
  6  1  1  0  0  0
 21 17  1  0  0  0
 12  7  1  0  0  0
 15 16  1  0  0  0
M  END
> <minimizedAffinity>
-6.49675

> <minimizedRMSD>
0.30067

$$$$
C10281-P310


 11 12  0  0  0  0  0  0  0  0999 V2000
    9.5583   10.8094   23.8974 C   0  0  0  0  0  0  0  0  0  0  0  0
    9.1814   12.0282   24.4439 C   0  0  0  0  0  0  0  0  0  0  0  0
    8.1129   12.0830   25.3374 C   0  0  0  0  0  0  0  0  0  0  0  0
    7.4023   10.9178   25.6145 C   0  0  0  0  0  0  0  0  0  0  0  0
    7.7337    9.7184   25.0538 N   0  0  0  0  0  0  0  0  0  0  0  0
    8.8237    9.6912   24.2431 C   0  0  0  0  0  0  0  0  0  0  0  0
    6.2736   11.0090   26.4947 N   0  0  0  0  0  0  0  0  0  0  0  0
    5.6232    9.9708   27.1274 C   0  0  0  0  0  0  0  0  0  0  0  0
    4.6065   10.5099   27.8762 C   0  0  0  0  0  0  0  0  0  0  0  0
    4.6770   11.8836   27.6150 C   0  0  0  0  0  0  0  0  0  0  0  0
    5.6509   12.1956   26.7579 N   0  0  0  0  0  0  0  0  0  0  0  0
  1  2  2  0  0  0
  2  3  1  0  0  0
  3  4  2  0  0  0
  4  7  1  0  0  0
  7  8  1  0  0  0
  8  9  2  0  0  0
  9 10  1  0  0  0
 10 11  2  0  0  0
  4  5  1  0  0  0
  5  6  2  0  0  0
  6  1  1  0  0  0
 11  7  1  0  0  0
M  END
> <minimizedAffinity>
-4.02285

> <minimizedRMSD>
2.31240

$$$$
C63652-P310


 21 22  0  0  0  0  0  0  0  0999 V2000
    8.6487   11.4021   24.5242 C   0  0  0  0  0  0  0  0  0  0  0  0
    8.0671   12.2707   25.4486 C   0  0  0  0  0  0  0  0  0  0  0  0
    7.1706   11.7884   26.4091 C   0  0  0  0  0  0  0  0  0  0  0  0
    6.8427   10.4357   26.4086 C   0  0  0  0  0  0  0  0  0  0  0  0
    7.4222    9.5632   25.5391 N   0  0  0  0  0  0  0  0  0  0  0  0
    8.3255   10.0565   24.6534 C   0  0  0  0  0  0  0  0  0  0  0  0
    5.8544    9.9528   27.3334 N   0  0  0  0  0  0  0  0  0  0  0  0
    5.9866    9.7821   28.7012 C   0  0  0  0  0  0  0  0  0  0  0  0
    4.8152    9.2229   29.1559 C   0  0  0  0  0  0  0  0  0  0  0  0
    4.0019    9.1378   28.0186 C   0  0  0  0  0  0  0  0  0  0  0  0
    4.5760    9.6742   26.9420 N   0  0  0  0  0  0  0  0  0  0  0  0
    9.5982   11.8494   23.4344 C   0  0  0  0  0  0  0  0  0  0  0  0
    9.1735   13.9201   22.2032 C   0  0  0  0  0  0  0  0  0  0  0  0
    9.8630   13.3039   23.3425 N   0  0  0  0  0  0  0  0  0  0  0  0
   11.3105   13.5241   23.1367 C   0  0  0  0  0  0  0  0  0  0  0  0
   11.7827   14.9732   23.2768 C   0  0  0  0  0  0  0  0  0  0  0  0
   12.6028   15.3840   22.1771 O   0  0  0  0  0  0  0  0  0  0  0  0
   11.8804   15.9051   21.0530 C   0  0  0  0  0  0  0  0  0  0  0  0
   11.9808   15.0013   19.8194 C   0  0  0  0  0  0  0  0  0  0  0  0
   11.1272   15.4419   18.7733 O   0  0  0  0  0  0  0  0  0  0  0  0
   10.2061   15.4191   19.0764 H   0  0  0  0  0  0  0  0  0  0  0  0
 13 14  1  0  0  0
 14 15  1  0  0  0
 15 16  1  0  0  0
 16 17  1  0  0  0
 17 18  1  0  0  0
 18 19  1  0  0  0
 19 20  1  0  0  0
 14 12  1  0  0  0
 12  1  1  0  0  0
  1  2  2  0  0  0
  2  3  1  0  0  0
  3  4  2  0  0  0
  4  7  1  0  0  0
  7  8  1  0  0  0
  8  9  2  0  0  0
  9 10  1  0  0  0
 10 11  2  0  0  0
  4  5  1  0  0  0
  5  6  2  0  0  0
  6  1  1  0  0  0
 11  7  1  0  0  0
 20 21  1  0  0  0
M  END
> <minimizedAffinity>
-5.91423

> <minimizedRMSD>
1.20054

$$$$
C3732-P310


 12 13  0  0  0  0  0  0  0  0999 V2000
    8.0509   11.3768   25.1081 C   0  0  0  0  0  0  0  0  0  0  0  0
    7.3024   12.2346   25.9031 C   0  0  0  0  0  0  0  0  0  0  0  0
    6.2717   11.7218   26.6900 C   0  0  0  0  0  0  0  0  0  0  0  0
    6.0037   10.3598   26.6436 C   0  0  0  0  0  0  0  0  0  0  0  0
    6.7068    9.5111   25.8498 N   0  0  0  0  0  0  0  0  0  0  0  0
    7.7211   10.0346   25.1165 C   0  0  0  0  0  0  0  0  0  0  0  0
    4.9701    9.7855   27.4893 C   0  0  0  0  0  0  0  0  0  0  0  0
    4.5884   10.0812   28.8169 C   0  0  0  0  0  0  0  0  0  0  0  0
    3.6084    9.2929   29.2681 N   0  0  0  0  0  0  0  0  0  0  0  0
    3.4122    8.4346   28.2535 N   0  0  0  0  0  0  0  0  0  0  0  0
    4.1282    8.7516   27.1375 C   0  0  0  0  0  0  0  0  0  0  0  0
    2.8123    7.6560   28.3101 H   0  0  0  0  0  0  0  0  0  0  0  0
  1  2  2  0  0  0
  2  3  1  0  0  0
  3  4  2  0  0  0
  4  7  1  0  0  0
  7  8  1  0  0  0
  8  9  2  0  0  0
  9 10  1  0  0  0
 10 11  1  0  0  0
  4  5  1  0  0  0
  5  6  2  0  0  0
  6  1  1  0  0  0
 11  7  2  0  0  0
 10 12  1  0  0  0
M  END
> <minimizedAffinity>
-3.15697

> <minimizedRMSD>
0.13000

$$$$
C3689-P310


 12 13  0  0  0  0  0  0  0  0999 V2000
    9.6095   10.8199   23.7082 C   0  0  0  0  0  0  0  0  0  0  0  0
    9.2425   12.0092   24.3234 C   0  0  0  0  0  0  0  0  0  0  0  0
    8.2334   12.0044   25.2857 C   0  0  0  0  0  0  0  0  0  0  0  0
    7.6086   10.8040   25.5977 C   0  0  0  0  0  0  0  0  0  0  0  0
    7.9344    9.6393   24.9880 N   0  0  0  0  0  0  0  0  0  0  0  0
    8.9339    9.6701   24.0706 C   0  0  0  0  0  0  0  0  0  0  0  0
    6.5538   10.7214   26.6025 C   0  0  0  0  0  0  0  0  0  0  0  0
    5.5033    9.8384   26.7721 C   0  0  0  0  0  0  0  0  0  0  0  0
    4.8465   10.2434   27.9456 C   0  0  0  0  0  0  0  0  0  0  0  0
    5.3977   11.3365   28.4733 N   0  0  0  0  0  0  0  0  0  0  0  0
    6.4565   11.5654   27.6781 N   0  0  0  0  0  0  0  0  0  0  0  0
    7.1093   12.2811   27.8538 H   0  0  0  0  0  0  0  0  0  0  0  0
  1  2  2  0  0  0
  2  3  1  0  0  0
  3  4  2  0  0  0
  4  7  1  0  0  0
  7  8  2  0  0  0
  8  9  1  0  0  0
  9 10  2  0  0  0
 10 11  1  0  0  0
  4  5  1  0  0  0
  5  6  2  0  0  0
  6  1  1  0  0  0
 11  7  1  0  0  0
 11 12  1  0  0  0
M  END
> <minimizedAffinity>
-4.07918

> <minimizedRMSD>
2.18691

$$$$
C55396-P28


 14 14  0  0  0  0  0  0  0  0999 V2000
    6.8581   11.6509   26.1223 C   0  0  0  0  0  0  0  0  0  0  0  0
    7.1102   12.7963   25.3349 C   0  0  0  0  0  0  0  0  0  0  0  0
    8.0920   12.4498   24.4512 C   0  0  0  0  0  0  0  0  0  0  0  0
    8.6006   13.1942   23.4856 O   0  0  0  0  0  0  0  0  0  0  0  0
    8.4125   11.1452   24.7285 N   0  0  0  0  0  0  0  0  0  0  0  0
    9.2895   10.2858   23.9652 C   0  0  0  0  0  0  0  0  0  0  0  0
    7.6662   10.6270   25.7541 N   0  0  0  0  0  0  0  0  0  0  0  0
    8.3148   14.0799   23.3769 H   0  0  0  0  0  0  0  0  0  0  0  0
    5.4459   10.1378   27.5023 N   0  0  0  0  0  0  0  0  0  0  0  0
    5.8006   11.5933   27.1717 C   0  0  0  0  0  0  0  0  0  0  0  0
    5.3314   12.5892   27.5507 O   0  0  0  0  0  0  0  0  0  0  0  0
    6.0481    9.4669   27.1066 H   0  0  0  0  0  0  0  0  0  0  0  0
    4.8494    8.5671   29.2933 C   0  0  0  0  0  0  0  0  0  0  0  0
    4.3773    9.5935   28.2959 C   0  0  0  0  0  0  0  0  0  0  0  0
 13 14  1  0  0  0
 14  9  1  0  0  0
  9 10  1  0  0  0
 10 11  2  0  0  0
 10  1  1  0  0  0
  1  2  1  0  0  0
  2  3  2  0  0  0
  3  4  1  0  0  0
  3  5  1  0  0  0
  5  6  1  0  0  0
  5  7  1  0  0  0
  7  1  2  0  0  0
  9 12  1  0  0  0
  4  8  1  0  0  0
M  END
> <minimizedAffinity>
-4.23439

> <minimizedRMSD>
0.44555

$$$$
C72721-P564


 18 20  0  0  0  0  0  0  0  0999 V2000
    8.5942   13.8339   24.0963 N   0  0  0  0  0  0  0  0  0  0  0  0
    7.5542   14.7323   24.6795 C   0  0  0  0  0  0  0  0  0  0  0  0
    6.7185   13.8379   25.6309 C   0  0  0  0  0  0  0  0  0  0  0  0
    7.1099   12.4584   25.2083 C   0  0  0  0  0  0  0  0  0  0  0  0
    6.6431   11.2264   25.6146 C   0  0  0  0  0  0  0  0  0  0  0  0
    7.2599   10.0843   25.0814 C   0  0  0  0  0  0  0  0  0  0  0  0
    8.3100   10.1898   24.1612 C   0  0  0  0  0  0  0  0  0  0  0  0
    9.2447    8.7453   23.4329 Br  0  0  0  0  0  0  0  0  0  0  0  0
    8.7560   11.4177   23.7557 C   0  0  0  0  0  0  0  0  0  0  0  0
    8.1692   12.5168   24.3211 C   0  0  0  0  0  0  0  0  0  0  0  0
   10.2604   14.8103   25.7793 O   0  0  0  0  0  0  0  0  0  0  0  0
   10.2054   14.1000   24.5197 S   0  0  0  0  0  0  0  0  0  0  0  0
   11.0352   12.9329   24.3203 O   0  0  0  0  0  0  0  0  0  0  0  0
   10.5759   15.1627   23.2882 N   0  0  0  0  0  0  0  0  0  0  0  0
   11.9983   15.2052   22.9441 C   0  0  0  0  0  0  0  0  0  0  0  0
   12.0098   15.7170   21.5335 C   0  0  0  0  0  0  0  0  0  0  0  0
   10.8552   14.9877   20.9054 C   0  0  0  0  0  0  0  0  0  0  0  0
    9.8123   15.0313   22.0090 C   0  0  0  0  0  0  0  0  0  0  0  0
 11 12  2  0  0  0
 12 13  2  0  0  0
 12 14  1  0  0  0
 14 15  1  0  0  0
 15 16  1  0  0  0
 16 17  1  0  0  0
 17 18  1  0  0  0
 12  1  1  0  0  0
  1  2  1  0  0  0
  2  3  1  0  0  0
  3  4  1  0  0  0
  4  5  2  0  0  0
  5  6  1  0  0  0
  6  7  2  0  0  0
  7  8  1  0  0  0
  7  9  1  0  0  0
  9 10  2  0  0  0
 18 14  1  0  0  0
 10  1  1  0  0  0
 10  4  1  0  0  0
M  END
> <minimizedAffinity>
-6.98450

> <minimizedRMSD>
0.43486

$$$$
C45903-P364


 23 25  0  0  0  0  0  0  0  0999 V2000
   25.9988   20.1388   21.6127 C   0  0  0  0  0  0  0  0  0  0  0  0
   25.2508   21.1780   22.0583 C   0  0  0  0  0  0  0  0  0  0  0  0
   25.8743   22.3795   21.9889 C   0  0  0  0  0  0  0  0  0  0  0  0
   27.0981   22.6064   21.5022 N   0  0  0  0  0  0  0  0  0  0  0  0
   27.7178   21.5685   20.9518 C   0  0  0  0  0  0  0  0  0  0  0  0
   27.1648   20.3435   20.9605 N   0  0  0  0  0  0  0  0  0  0  0  0
   28.9295   21.8306   20.3080 N   0  0  0  0  0  0  0  0  0  0  0  0
   29.7360   20.6857   19.9398 C   0  0  0  0  0  0  0  0  0  0  0  0
   30.8106   21.0965   18.9356 C   0  0  0  0  0  0  0  0  0  0  0  0
   31.6523   22.2467   19.4728 C   0  0  0  0  0  0  0  0  0  0  0  0
   30.7715   23.4146   19.9018 C   0  0  0  0  0  0  0  0  0  0  0  0
   29.6514   22.9798   20.8536 C   0  0  0  0  0  0  0  0  0  0  0  0
   25.6119   18.8267   21.8218 N   0  0  0  0  0  0  0  0  0  0  0  0
   25.7729   18.1742   21.1024 H   0  0  0  0  0  0  0  0  0  0  0  0
   24.9813   18.3587   23.0444 C   0  0  0  0  0  0  0  0  0  0  0  0
   25.8126   18.5772   24.3105 C   0  0  0  0  0  0  0  0  0  0  0  0
   26.9293   17.5426   26.1960 O   0  0  0  0  0  0  0  0  0  0  0  0
   26.3959   17.2816   24.8907 C   0  0  0  0  0  0  0  0  0  0  0  0
   27.5925   18.2482   26.1391 H   0  0  0  0  0  0  0  0  0  0  0  0
   25.3509   16.1684   24.9870 C   0  0  0  0  0  0  0  0  0  0  0  0
   24.2321   16.2482   26.0647 C   0  0  0  0  0  0  0  0  0  0  0  0
   24.3294   14.7121   26.1721 C   0  0  0  0  0  0  0  0  0  0  0  0
   25.7823   14.8383   25.6682 C   0  0  0  0  0  0  0  0  0  0  0  0
 18 17  1  0  0  0
 18 16  1  0  0  0
 16 15  1  0  0  0
 15 13  1  0  0  0
 13  1  1  0  0  0
  1  2  2  0  0  0
  2  3  1  0  0  0
  3  4  2  0  0  0
  4  5  1  0  0  0
  5  7  1  0  0  0
  7  8  1  0  0  0
  8  9  1  0  0  0
  9 10  1  0  0  0
 10 11  1  0  0  0
 11 12  1  0  0  0
  5  6  2  0  0  0
 18 20  1  0  0  0
 20 21  1  0  0  0
 21 22  1  0  0  0
 22 23  1  0  0  0
  6  1  1  0  0  0
 23 20  1  0  0  0
 12  7  1  0  0  0
 17 19  1  0  0  0
 13 14  1  0  0  0
M  END
> <minimizedAffinity>
-5.34694

> <minimizedRMSD>
1.02049

$$$$
C19322-P234


 15 15  0  0  0  0  0  0  0  0999 V2000
    7.4547   15.3951   25.2224 C   0  0  0  0  0  0  0  0  0  0  0  0
    6.3202   15.0844   24.2717 C   0  0  0  0  0  0  0  0  0  0  0  0
    5.3823   15.7922   21.9502 N   0  0  0  0  0  0  0  0  0  0  0  0
    6.7664   15.0374   22.5488 S   0  0  0  0  0  0  0  0  0  0  0  0
    7.8639   15.9365   22.3041 O   0  0  0  0  0  0  0  0  0  0  0  0
    6.7228   13.6943   22.0151 O   0  0  0  0  0  0  0  0  0  0  0  0
    5.4464   15.8641   20.9347 H   0  0  0  0  0  0  0  0  0  0  0  0
    5.3031   16.7260   22.3529 H   0  0  0  0  0  0  0  0  0  0  0  0
    8.0271   14.1457   25.8782 C   0  0  0  0  0  0  0  0  0  0  0  0
    8.4530   13.0694   25.0169 N   0  0  0  0  0  0  0  0  0  0  0  0
    7.8739   11.7711   25.1909 C   0  0  0  0  0  0  0  0  0  0  0  0
    8.6147   10.8596   24.2536 C   0  0  0  0  0  0  0  0  0  0  0  0
    9.7011   11.6766   23.6191 C   0  0  0  0  0  0  0  0  0  0  0  0
    9.6524   12.9869   24.3298 C   0  0  0  0  0  0  0  0  0  0  0  0
   10.5511   13.8059   24.3004 O   0  0  0  0  0  0  0  0  0  0  0  0
  3  4  1  0  0  0
  4  5  2  0  0  0
  4  6  2  0  0  0
  4  2  1  0  0  0
  2  1  1  0  0  0
  1  9  1  0  0  0
  9 10  1  0  0  0
 10 11  1  0  0  0
 11 12  1  0  0  0
 12 13  1  0  0  0
 13 14  1  0  0  0
 14 15  2  0  0  0
 14 10  1  0  0  0
  3  7  1  0  0  0
  3  8  1  0  0  0
M  END
> <minimizedAffinity>
-4.18139

> <minimizedRMSD>
0.77476

$$$$
C129526-P38


 24 26  0  0  0  0  0  0  0  0999 V2000
   20.8172   14.1191    2.0865 N   0  0  0  0  0  0  0  0  0  0  0  0
   22.0698   15.0466    2.0788 C   0  0  0  0  0  0  0  0  0  0  0  0
   22.1729   16.1785    1.8006 O   0  0  0  0  0  0  0  0  0  0  0  0
   21.0051   13.1740    2.2885 H   0  0  0  0  0  0  0  0  0  0  0  0
   18.9666   13.9492   -0.2191 C   0  0  0  0  0  0  0  0  0  0  0  0
   19.0767   15.2727    0.5973 C   0  0  0  0  0  0  0  0  0  0  0  0
   19.4113   14.4242    1.8431 C   0  0  0  0  0  0  0  0  0  0  0  0
   18.6858   13.2524    1.1486 C   0  0  0  0  0  0  0  0  0  0  0  0
   20.2139   13.6417   -1.0460 C   0  0  0  0  0  0  0  0  0  0  0  0
   20.2515    9.8355   -1.6624 C   0  0  0  0  0  0  0  0  0  0  0  0
   19.5305   11.1508   -1.8603 C   0  0  0  0  0  0  0  0  0  0  0  0
   18.5310   11.2543   -2.4519 O   0  0  0  0  0  0  0  0  0  0  0  0
   20.3747   12.2178   -1.1248 N   0  0  0  0  0  0  0  0  0  0  0  0
   21.1482   11.8624   -0.6302 H   0  0  0  0  0  0  0  0  0  0  0  0
   23.2368   14.2129    2.6146 C   0  0  0  0  0  0  0  0  0  0  0  0
   23.7911   13.3256    1.5679 C   0  0  0  0  0  0  0  0  0  0  0  0
   23.3224   13.1203    0.3529 N   0  0  0  0  0  0  0  0  0  0  0  0
   24.1813   12.2786   -0.3076 N   0  0  0  0  0  0  0  0  0  0  0  0
   25.1423   11.9539    0.5295 C   0  0  0  0  0  0  0  0  0  0  0  0
   24.8891   12.5316    1.7433 N   0  0  0  0  0  0  0  0  0  0  0  0
   25.7088   12.3708    2.9251 C   0  0  0  0  0  0  0  0  0  0  0  0
   26.7224   11.2340    2.7803 C   0  0  0  0  0  0  0  0  0  0  0  0
   27.3734   11.2531    1.3951 C   0  0  0  0  0  0  0  0  0  0  0  0
   26.3269   11.0935    0.2886 C   0  0  0  0  0  0  0  0  0  0  0  0
 10 11  1  0  0  0
 11 12  2  0  0  0
 11 13  1  0  0  0
 13  9  1  0  0  0
  5  9  1  0  0  0
  5  6  1  0  0  0
  6  7  1  0  0  0
  7  1  1  0  0  0
  1  2  1  0  0  0
  2  3  2  0  0  0
  2 15  1  0  0  0
 15 16  1  0  0  0
 16 17  2  0  0  0
 17 18  1  0  0  0
 18 19  2  0  0  0
 19 20  1  0  0  0
 20 21  1  0  0  0
 21 22  1  0  0  0
 22 23  1  0  0  0
 23 24  1  0  0  0
  7  8  1  0  0  0
  8  5  1  0  0  0
 20 16  1  0  0  0
 24 19  1  0  0  0
 13 14  1  0  0  0
  1  4  1  0  0  0
M  END
> <minimizedAffinity>
-4.29165

> <minimizedRMSD>
1.55804

$$$$
C129593-P51


 24 26  0  0  0  0  0  0  0  0999 V2000
   22.3641   14.3666    2.9090 C   0  0  0  0  0  0  0  0  0  0  0  0
   23.2296   14.0980    1.6405 C   0  0  0  0  0  0  0  0  0  0  0  0
   23.8819   15.3469    1.3301 O   0  0  0  0  0  0  0  0  0  0  0  0
   22.3438   13.7188    0.4264 C   0  0  0  0  0  0  0  0  0  0  0  0
   23.1789   13.3979   -0.8030 C   0  0  0  0  0  0  0  0  0  0  0  0
   24.0414   12.1801   -0.5422 C   0  0  0  0  0  0  0  0  0  0  0  0
   24.7745   12.2534    0.7712 C   0  0  0  0  0  0  0  0  0  0  0  0
   25.8737   11.3980    0.9380 C   0  0  0  0  0  0  0  0  0  0  0  0
   26.5728   11.3717    2.1379 C   0  0  0  0  0  0  0  0  0  0  0  0
   26.1711   12.1849    3.1896 C   0  0  0  0  0  0  0  0  0  0  0  0
   25.0844   13.0474    3.0360 C   0  0  0  0  0  0  0  0  0  0  0  0
   24.3635   13.0985    1.8301 C   0  0  0  0  0  0  0  0  0  0  0  0
   23.2129   16.0363    1.1954 H   0  0  0  0  0  0  0  0  0  0  0  0
   19.5295   13.0402    3.7989 O   0  0  0  0  0  0  0  0  0  0  0  0
   19.6838   13.8931    3.0202 C   0  0  0  0  0  0  0  0  0  0  0  0
   20.9765   14.6145    2.5653 N   0  0  0  0  0  0  0  0  0  0  0  0
   20.8334   15.3629    1.9417 H   0  0  0  0  0  0  0  0  0  0  0  0
   18.5752   14.4670    2.1307 C   0  0  0  0  0  0  0  0  0  0  0  0
   17.1410   14.0764    2.5025 C   0  0  0  0  0  0  0  0  0  0  0  0
   16.6367   12.7792    1.8833 C   0  0  0  0  0  0  0  0  0  0  0  0
   15.2090   12.8092    1.3767 C   0  0  0  0  0  0  0  0  0  0  0  0
   15.1992   11.5657    0.5173 C   0  0  0  0  0  0  0  0  0  0  0  0
   16.6068   11.5230   -0.0521 C   0  0  0  0  0  0  0  0  0  0  0  0
   17.4116   12.4127    0.7367 O   0  0  0  0  0  0  0  0  0  0  0  0
 14 15  2  0  0  0
 15 18  1  0  0  0
 18 19  1  0  0  0
 20 19  1  0  0  0
 20 21  1  0  0  0
 21 22  1  0  0  0
 22 23  1  0  0  0
 23 24  1  0  0  0
 15 16  1  0  0  0
 16  1  1  0  0  0
  1  2  1  0  0  0
  2  3  1  0  0  0
  2  4  1  0  0  0
  4  5  1  0  0  0
  5  6  1  0  0  0
  6  7  1  0  0  0
  7  8  2  0  0  0
  8  9  1  0  0  0
  9 10  2  0  0  0
 10 11  1  0  0  0
 11 12  2  0  0  0
 24 20  1  0  0  0
 12  2  1  0  0  0
 12  7  1  0  0  0
 16 17  1  0  0  0
  3 13  1  0  0  0
M  END
> <minimizedAffinity>
-5.50158

> <minimizedRMSD>
0.68931

$$$$
C69074-P201


 18 20  0  0  0  0  0  0  0  0999 V2000
    8.0240   12.4938   24.8906 C   0  0  0  0  0  0  0  0  0  0  0  0
    8.1528   11.1491   24.5085 C   0  0  0  0  0  0  0  0  0  0  0  0
    7.3405   10.1820   25.1034 C   0  0  0  0  0  0  0  0  0  0  0  0
    6.4640   10.5737   26.0993 C   0  0  0  0  0  0  0  0  0  0  0  0
    6.3280   11.9190   26.4478 C   0  0  0  0  0  0  0  0  0  0  0  0
    7.0877   12.9016   25.8449 C   0  0  0  0  0  0  0  0  0  0  0  0
    5.2892   12.0495   27.5107 C   0  0  0  0  0  0  0  0  0  0  0  0
    5.1524   10.5746   27.9413 C   0  0  0  0  0  0  0  0  0  0  0  0
    5.5504    9.7608   26.7910 N   0  0  0  0  0  0  0  0  0  0  0  0
    5.2479    8.8538   26.5565 H   0  0  0  0  0  0  0  0  0  0  0  0
    9.3748   14.3513   25.1439 O   0  0  0  0  0  0  0  0  0  0  0  0
    8.9651   13.4955   24.3644 C   0  0  0  0  0  0  0  0  0  0  0  0
    9.3023   13.3636   22.8883 C   0  0  0  0  0  0  0  0  0  0  0  0
    9.9983   14.5410   22.3658 N   0  0  0  0  0  0  0  0  0  0  0  0
    9.5243   14.8968   21.0285 C   0  0  0  0  0  0  0  0  0  0  0  0
   10.5963   15.8250   20.4893 C   0  0  0  0  0  0  0  0  0  0  0  0
   11.8523   15.4930   21.2822 C   0  0  0  0  0  0  0  0  0  0  0  0
   11.4463   14.3713   22.2262 C   0  0  0  0  0  0  0  0  0  0  0  0
 11 12  2  0  0  0
 12 13  1  0  0  0
 13 14  1  0  0  0
 14 15  1  0  0  0
 15 16  1  0  0  0
 16 17  1  0  0  0
 17 18  1  0  0  0
 12  1  1  0  0  0
  1  2  2  0  0  0
  2  3  1  0  0  0
  3  4  2  0  0  0
  4  5  1  0  0  0
  5  6  2  0  0  0
  5  7  1  0  0  0
  7  8  1  0  0  0
  8  9  1  0  0  0
 18 14  1  0  0  0
  6  1  1  0  0  0
  9  4  1  0  0  0
  9 10  1  0  0  0
M  END
> <minimizedAffinity>
-6.70986

> <minimizedRMSD>
0.65765

$$$$
C51875-P364


 13 13  0  0  0  0  0  0  0  0999 V2000
    8.9718   11.8180   24.5643 C   0  0  0  0  0  0  0  0  0  0  0  0
    7.7360   11.5399   25.0442 N   0  0  0  0  0  0  0  0  0  0  0  0
    7.2467   12.3619   25.9874 C   0  0  0  0  0  0  0  0  0  0  0  0
    7.9467   13.4363   26.5243 C   0  0  0  0  0  0  0  0  0  0  0  0
    9.2529   13.6450   26.0497 C   0  0  0  0  0  0  0  0  0  0  0  0
    9.7642   12.8511   25.0323 C   0  0  0  0  0  0  0  0  0  0  0  0
   11.3246   13.1881   24.4006 Cl  0  0  0  0  0  0  0  0  0  0  0  0
    9.8296    9.7866   23.8266 C   0  0  0  0  0  0  0  0  0  0  0  0
    9.4363   11.0998   23.4971 O   0  0  0  0  0  0  0  0  0  0  0  0
    7.3629   14.3167   27.6063 C   0  0  0  0  0  0  0  0  0  0  0  0
    5.8380   14.2970   27.7233 C   0  0  0  0  0  0  0  0  0  0  0  0
    7.7752   15.7621   27.4380 C   0  0  0  0  0  0  0  0  0  0  0  0
    8.4443   16.3614   28.2750 O   0  0  0  0  0  0  0  0  0  0  0  0
  8  9  1  0  0  0
  9  1  1  0  0  0
  1  2  2  0  0  0
  2  3  1  0  0  0
  3  4  2  0  0  0
  4 10  1  0  0  0
 10 11  1  0  0  0
 10 12  1  0  0  0
 12 13  2  0  0  0
  4  5  1  0  0  0
  5  6  2  0  0  0
  6  7  1  0  0  0
  6  1  1  0  0  0
M  END
> <minimizedAffinity>
-3.26278

> <minimizedRMSD>
1.11392

$$$$
C51496-P390


 22 23  0  0  0  0  0  0  0  0999 V2000
    8.0472   13.9022   24.7301 C   0  0  0  0  0  0  0  0  0  0  0  0
    9.0303   15.1528   26.7765 C   0  0  0  0  0  0  0  0  0  0  0  0
    7.7924   14.8534   25.9516 C   0  0  0  0  0  0  0  0  0  0  0  0
    7.0783   16.1680   25.6102 C   0  0  0  0  0  0  0  0  0  0  0  0
    6.9155   12.9570   24.7853 N   0  0  0  0  0  0  0  0  0  0  0  0
    6.7415   12.6035   23.8445 H   0  0  0  0  0  0  0  0  0  0  0  0
    7.1599   11.8254   25.6677 C   0  0  0  0  0  0  0  0  0  0  0  0
    6.0581   11.6771   26.6610 C   0  0  0  0  0  0  0  0  0  0  0  0
    6.1050   10.6440   27.5804 N   0  0  0  0  0  0  0  0  0  0  0  0
    5.0176   10.8008   28.2944 C   0  0  0  0  0  0  0  0  0  0  0  0
    4.2661   11.8818   27.9629 O   0  0  0  0  0  0  0  0  0  0  0  0
    4.9437   12.4564   26.9135 C   0  0  0  0  0  0  0  0  0  0  0  0
    4.4042   13.7135   26.3507 C   0  0  0  0  0  0  0  0  0  0  0  0
    3.5190   13.5066   25.3444 F   0  0  0  0  0  0  0  0  0  0  0  0
    3.7262   14.4235   27.2991 F   0  0  0  0  0  0  0  0  0  0  0  0
    8.1361   14.6056   23.3326 C   0  0  0  0  0  0  0  0  0  0  0  0
    9.4430   14.5916   22.6337 N   0  0  0  0  0  0  0  0  0  0  0  0
   10.5964   14.8353   23.4987 C   0  0  0  0  0  0  0  0  0  0  0  0
   11.9142   14.8268   22.7316 C   0  0  0  0  0  0  0  0  0  0  0  0
   11.9073   15.8894   21.6492 C   0  0  0  0  0  0  0  0  0  0  0  0
   10.6986   15.7040   20.7467 C   0  0  0  0  0  0  0  0  0  0  0  0
    9.3988   15.5963   21.5434 C   0  0  0  0  0  0  0  0  0  0  0  0
  2  3  1  0  0  0
  3  4  1  0  0  0
  3  1  1  0  0  0
  1 16  1  0  0  0
 16 17  1  0  0  0
 17 18  1  0  0  0
 18 19  1  0  0  0
 19 20  1  0  0  0
 20 21  1  0  0  0
 21 22  1  0  0  0
  1  5  1  0  0  0
  5  7  1  0  0  0
  7  8  1  0  0  0
  8  9  1  0  0  0
  9 10  2  0  0  0
 10 11  1  0  0  0
 11 12  1  0  0  0
 12 13  1  0  0  0
 13 14  1  0  0  0
 13 15  1  0  0  0
 22 17  1  0  0  0
 12  8  2  0  0  0
  5  6  1  0  0  0
M  END
> <minimizedAffinity>
-5.23907

> <minimizedRMSD>
0.54196

$$$$
C51516-P390


 19 20  0  0  0  0  0  0  0  0999 V2000
    7.2943   14.5045   22.9467 C   0  0  0  0  0  0  0  0  0  0  0  0
    5.8859   16.3989   23.9483 C   0  0  0  0  0  0  0  0  0  0  0  0
    6.1308   15.5228   22.7267 C   0  0  0  0  0  0  0  0  0  0  0  0
    4.8052   14.9054   22.2605 C   0  0  0  0  0  0  0  0  0  0  0  0
    6.8478   13.1841   23.4063 N   0  0  0  0  0  0  0  0  0  0  0  0
    6.9819   12.5185   22.6450 H   0  0  0  0  0  0  0  0  0  0  0  0
    7.5557   12.6875   24.5756 C   0  0  0  0  0  0  0  0  0  0  0  0
    6.6400   12.3270   25.6790 C   0  0  0  0  0  0  0  0  0  0  0  0
    6.5643   11.2720   26.5566 C   0  0  0  0  0  0  0  0  0  0  0  0
    5.5025   11.4483   27.4072 N   0  0  0  0  0  0  0  0  0  0  0  0
    4.9886   12.5981   27.0208 C   0  0  0  0  0  0  0  0  0  0  0  0
    5.6287   13.1974   25.9867 O   0  0  0  0  0  0  0  0  0  0  0  0
    8.1261   14.3386   21.6393 C   0  0  0  0  0  0  0  0  0  0  0  0
    9.5931   14.4799   21.7135 N   0  0  0  0  0  0  0  0  0  0  0  0
   10.1724   15.0089   22.9435 C   0  0  0  0  0  0  0  0  0  0  0  0
   11.6956   14.9365   22.9035 C   0  0  0  0  0  0  0  0  0  0  0  0
   12.2358   15.7339   21.7310 C   0  0  0  0  0  0  0  0  0  0  0  0
   11.6032   15.2546   20.4338 C   0  0  0  0  0  0  0  0  0  0  0  0
   10.0804   15.2112   20.5302 C   0  0  0  0  0  0  0  0  0  0  0  0
  2  3  1  0  0  0
  3  4  1  0  0  0
  3  1  1  0  0  0
  1 13  1  0  0  0
 13 14  1  0  0  0
 14 15  1  0  0  0
 15 16  1  0  0  0
 16 17  1  0  0  0
 17 18  1  0  0  0
 18 19  1  0  0  0
  1  5  1  0  0  0
  5  7  1  0  0  0
  7  8  1  0  0  0
  8  9  2  0  0  0
  9 10  1  0  0  0
 10 11  2  0  0  0
 11 12  1  0  0  0
 19 14  1  0  0  0
 12  8  1  0  0  0
  5  6  1  0  0  0
M  END
> <minimizedAffinity>
-5.78848

> <minimizedRMSD>
1.90108

$$$$
C51403-P239


 22 22  0  0  0  0  0  0  0  0999 V2000
    9.6891   12.2985   23.9997 C   0  0  0  0  0  0  0  0  0  0  0  0
    9.6628   10.9313   23.7572 C   0  0  0  0  0  0  0  0  0  0  0  0
    8.6832   10.1468   24.3849 C   0  0  0  0  0  0  0  0  0  0  0  0
    7.7701   10.7606   25.2305 C   0  0  0  0  0  0  0  0  0  0  0  0
    7.9145   12.1241   25.4487 C   0  0  0  0  0  0  0  0  0  0  0  0
    8.8575   12.8927   24.8678 N   0  0  0  0  0  0  0  0  0  0  0  0
    6.6914   10.0898   25.7974 N   0  0  0  0  0  0  0  0  0  0  0  0
    5.9743   10.3020   27.1635 C   0  0  0  0  0  0  0  0  0  0  0  0
    6.2304   11.0190   28.0481 O   0  0  0  0  0  0  0  0  0  0  0  0
    6.3213    9.3632   25.2457 H   0  0  0  0  0  0  0  0  0  0  0  0
    4.7155    9.4319   27.1367 C   0  0  0  0  0  0  0  0  0  0  0  0
    3.7404    9.5800   28.3294 C   0  0  0  0  0  0  0  0  0  0  0  0
    2.7681   10.7631   28.2521 C   0  0  0  0  0  0  0  0  0  0  0  0
    2.9004    8.3151   28.4652 C   0  0  0  0  0  0  0  0  0  0  0  0
    1.9542    8.4556   29.4170 F   0  0  0  0  0  0  0  0  0  0  0  0
    3.6575    7.2486   28.7974 F   0  0  0  0  0  0  0  0  0  0  0  0
    2.2799    8.0151   27.3003 F   0  0  0  0  0  0  0  0  0  0  0  0
   10.5448   13.0811   23.2540 O   0  0  0  0  0  0  0  0  0  0  0  0
   10.6143   14.4520   23.6820 C   0  0  0  0  0  0  0  0  0  0  0  0
    9.8833   14.9278   21.3261 C   0  0  0  0  0  0  0  0  0  0  0  0
   10.7217   15.4219   22.4955 C   0  0  0  0  0  0  0  0  0  0  0  0
   12.1628   15.6615   22.0660 C   0  0  0  0  0  0  0  0  0  0  0  0
 20 21  1  0  0  0
 21 22  1  0  0  0
 21 19  1  0  0  0
 19 18  1  0  0  0
 18  1  1  0  0  0
  1  2  2  0  0  0
  2  3  1  0  0  0
  3  4  2  0  0  0
  4  7  1  0  0  0
  7  8  1  0  0  0
  8  9  2  0  0  0
  8 11  1  0  0  0
 11 12  1  0  0  0
 12 13  1  0  0  0
 12 14  1  0  0  0
 14 15  1  0  0  0
 14 16  1  0  0  0
 14 17  1  0  0  0
  4  5  1  0  0  0
  5  6  2  0  0  0
  6  1  1  0  0  0
  7 10  1  0  0  0
M  END
> <minimizedAffinity>
-5.41781

> <minimizedRMSD>
1.80624

$$$$
C28118-P252


 16 18  0  0  0  0  0  0  0  0999 V2000
    7.0140   13.2452   24.7767 O   0  0  0  0  0  0  0  0  0  0  0  0
    8.1824   12.8636   24.7816 C   0  0  0  0  0  0  0  0  0  0  0  0
    8.4740   11.4638   24.5133 C   0  0  0  0  0  0  0  0  0  0  0  0
    9.5051   10.8813   23.7568 C   0  0  0  0  0  0  0  0  0  0  0  0
    9.4154    9.5518   23.7020 N   0  0  0  0  0  0  0  0  0  0  0  0
    8.3359    9.2706   24.4376 N   0  0  0  0  0  0  0  0  0  0  0  0
    7.7265   10.3806   24.9363 C   0  0  0  0  0  0  0  0  0  0  0  0
    8.0145    8.3547   24.6019 H   0  0  0  0  0  0  0  0  0  0  0  0
    9.3241   13.8163   25.1258 C   0  0  0  0  0  0  0  0  0  0  0  0
   10.3235   14.0465   24.0048 C   0  0  0  0  0  0  0  0  0  0  0  0
    9.9732   15.1234   23.0276 C   0  0  0  0  0  0  0  0  0  0  0  0
    8.5788   15.5998   22.7011 C   0  0  0  0  0  0  0  0  0  0  0  0
    9.3046   14.7228   21.7251 C   0  0  0  0  0  0  0  0  0  0  0  0
    9.7220   15.2490   20.3691 C   0  0  0  0  0  0  0  0  0  0  0  0
   11.1713   15.4776   20.0178 C   0  0  0  0  0  0  0  0  0  0  0  0
   10.2475   16.6195   20.1568 C   0  0  0  0  0  0  0  0  0  0  0  0
  1  2  2  0  0  0
  2  9  1  0  0  0
  9 10  1  0  0  0
 11 10  1  0  0  0
 11 12  1  0  0  0
 12 13  1  0  0  0
 13 14  1  0  0  0
 14 15  1  0  0  0
 15 16  1  0  0  0
  2  3  1  0  0  0
  3  4  1  0  0  0
  4  5  2  0  0  0
  5  6  1  0  0  0
  6  7  1  0  0  0
 13 11  1  0  0  0
 16 14  1  0  0  0
  7  3  2  0  0  0
  6  8  1  0  0  0
M  END
> <minimizedAffinity>
-5.36739

> <minimizedRMSD>
1.22975

$$$$
C81569-P109


 24 27  0  0  0  0  0  0  0  0999 V2000
   25.2264   21.4605   20.2907 C   0  0  0  0  0  0  0  0  0  0  0  0
   26.4127   20.9436   20.7439 C   0  0  0  0  0  0  0  0  0  0  0  0
   27.5810   21.0413   20.0746 N   0  0  0  0  0  0  0  0  0  0  0  0
   27.5798   21.6935   18.9008 C   0  0  0  0  0  0  0  0  0  0  0  0
   26.4743   22.2978   18.4163 N   0  0  0  0  0  0  0  0  0  0  0  0
   25.3287   22.1653   19.1180 C   0  0  0  0  0  0  0  0  0  0  0  0
   28.7286   21.6597   18.1121 N   0  0  0  0  0  0  0  0  0  0  0  0
   29.9143   21.1177   18.7828 C   0  0  0  0  0  0  0  0  0  0  0  0
   31.1024   20.9905   17.8070 C   0  0  0  0  0  0  0  0  0  0  0  0
   31.4001   22.2435   17.0792 N   0  0  0  0  0  0  0  0  0  0  0  0
   30.1709   22.6601   16.3714 C   0  0  0  0  0  0  0  0  0  0  0  0
   28.9502   22.8547   17.2999 C   0  0  0  0  0  0  0  0  0  0  0  0
   32.1502   22.0839   16.4067 H   0  0  0  0  0  0  0  0  0  0  0  0
   23.3702   18.8673   20.7260 O   0  0  0  0  0  0  0  0  0  0  0  0
   23.1501   19.9665   21.0648 C   0  0  0  0  0  0  0  0  0  0  0  0
   24.0098   21.2516   20.9294 N   0  0  0  0  0  0  0  0  0  0  0  0
   23.6318   22.0484   21.3671 H   0  0  0  0  0  0  0  0  0  0  0  0
   21.8237   20.3268   21.8032 C   0  0  0  0  0  0  0  0  0  0  0  0
   21.4321   21.8251   22.0420 C   0  0  0  0  0  0  0  0  0  0  0  0
   19.9537   21.4195   21.8356 C   0  0  0  0  0  0  0  0  0  0  0  0
   20.4974   20.2314   21.0665 C   0  0  0  0  0  0  0  0  0  0  0  0
   20.4074   20.3034   19.5540 C   0  0  0  0  0  0  0  0  0  0  0  0
   19.1796   19.3640   19.6810 C   0  0  0  0  0  0  0  0  0  0  0  0
   19.7087   18.9464   21.0786 C   0  0  0  0  0  0  0  0  0  0  0  0
 14 15  2  0  0  0
 15 16  1  0  0  0
 16  1  1  0  0  0
  1  2  2  0  0  0
  2  3  1  0  0  0
  3  4  2  0  0  0
  4  7  1  0  0  0
  7  8  1  0  0  0
  8  9  1  0  0  0
  9 10  1  0  0  0
 10 11  1  0  0  0
 11 12  1  0  0  0
  4  5  1  0  0  0
  5  6  2  0  0  0
 18 15  1  0  0  0
 18 19  1  0  0  0
 19 20  1  0  0  0
 20 21  1  0  0  0
 21 22  1  0  0  0
 22 23  1  0  0  0
 23 24  1  0  0  0
  6  1  1  0  0  0
 21 18  1  0  0  0
 12  7  1  0  0  0
 24 21  1  0  0  0
 16 17  1  0  0  0
 10 13  1  0  0  0
M  END
> <minimizedAffinity>
-4.31134

> <minimizedRMSD>
1.60365

$$$$
C51862-P405


 12 12  0  0  0  0  0  0  0  0999 V2000
    7.9840   12.3809   24.5427 C   0  0  0  0  0  0  0  0  0  0  0  0
    7.2347   11.5065   25.2606 N   0  0  0  0  0  0  0  0  0  0  0  0
    7.5422   10.2032   25.1491 C   0  0  0  0  0  0  0  0  0  0  0  0
    8.5911    9.7164   24.3876 C   0  0  0  0  0  0  0  0  0  0  0  0
    9.3915   10.6195   23.7076 C   0  0  0  0  0  0  0  0  0  0  0  0
    9.0907   11.9698   23.7922 C   0  0  0  0  0  0  0  0  0  0  0  0
    9.8630   12.8775   23.1317 O   0  0  0  0  0  0  0  0  0  0  0  0
   10.6016   12.5891   22.6324 H   0  0  0  0  0  0  0  0  0  0  0  0
    8.4051   14.7495   25.2759 C   0  0  0  0  0  0  0  0  0  0  0  0
    7.4782   13.8001   24.5397 C   0  0  0  0  0  0  0  0  0  0  0  0
    7.1514   14.2821   23.1425 C   0  0  0  0  0  0  0  0  0  0  0  0
    6.7714   13.5377   22.2380 O   0  0  0  0  0  0  0  0  0  0  0  0
 10  9  1  0  0  0
 10 11  1  0  0  0
 11 12  2  0  0  0
 10  1  1  0  0  0
  1  2  2  0  0  0
  2  3  1  0  0  0
  3  4  2  0  0  0
  4  5  1  0  0  0
  5  6  2  0  0  0
  6  7  1  0  0  0
  6  1  1  0  0  0
  7  8  1  0  0  0
M  END
> <minimizedAffinity>
-3.45790

> <minimizedRMSD>
0.49351

$$$$
C29316-P225


 19 21  0  0  0  0  0  0  0  0999 V2000
    9.2721    9.9533   23.5870 O   0  0  0  0  0  0  0  0  0  0  0  0
    9.0102   11.0531   24.0103 C   0  0  0  0  0  0  0  0  0  0  0  0
    9.7732   12.3697   23.7633 C   0  0  0  0  0  0  0  0  0  0  0  0
   10.8151   12.4320   23.1589 O   0  0  0  0  0  0  0  0  0  0  0  0
    9.0315   13.3658   24.3708 N   0  0  0  0  0  0  0  0  0  0  0  0
    7.9356   12.7932   25.0514 C   0  0  0  0  0  0  0  0  0  0  0  0
    6.9804   13.4070   25.8403 C   0  0  0  0  0  0  0  0  0  0  0  0
    6.0039   12.5999   26.4428 C   0  0  0  0  0  0  0  0  0  0  0  0
    5.9827   11.2082   26.2377 C   0  0  0  0  0  0  0  0  0  0  0  0
    6.9342   10.6042   25.4226 C   0  0  0  0  0  0  0  0  0  0  0  0
    7.8922   11.4173   24.8628 C   0  0  0  0  0  0  0  0  0  0  0  0
    9.2640   14.7989   24.3479 C   0  0  0  0  0  0  0  0  0  0  0  0
    9.8326   15.5048   23.1026 C   0  0  0  0  0  0  0  0  0  0  0  0
   11.3664   15.5988   23.0860 C   0  0  0  0  0  0  0  0  0  0  0  0
   11.8641   16.2106   21.7814 C   0  0  0  0  0  0  0  0  0  0  0  0
   11.2073   15.5893   20.5585 C   0  0  0  0  0  0  0  0  0  0  0  0
    9.7582   15.7679   20.6433 N   0  0  0  0  0  0  0  0  0  0  0  0
    9.2198   15.0219   21.7777 C   0  0  0  0  0  0  0  0  0  0  0  0
    9.3268   15.4296   19.7832 H   0  0  0  0  0  0  0  0  0  0  0  0
  1  2  2  0  0  0
  2  3  1  0  0  0
  3  4  2  0  0  0
  3  5  1  0  0  0
  5 12  1  0  0  0
 13 12  1  0  0  0
 13 14  1  0  0  0
 14 15  1  0  0  0
 15 16  1  0  0  0
 16 17  1  0  0  0
 17 18  1  0  0  0
  5  6  1  0  0  0
  6  7  2  0  0  0
  7  8  1  0  0  0
  8  9  2  0  0  0
  9 10  1  0  0  0
 10 11  2  0  0  0
 11  2  1  0  0  0
 18 13  1  0  0  0
 11  6  1  0  0  0
 17 19  1  0  0  0
M  END
> <minimizedAffinity>
-6.41849

> <minimizedRMSD>
0.73696

$$$$
C45903-P336


 23 25  0  0  0  0  0  0  0  0999 V2000
   26.3945   20.3099   22.0424 C   0  0  0  0  0  0  0  0  0  0  0  0
   26.2146   21.3387   22.9301 C   0  0  0  0  0  0  0  0  0  0  0  0
   27.0332   22.4204   22.7727 C   0  0  0  0  0  0  0  0  0  0  0  0
   27.9814   22.4990   21.8319 N   0  0  0  0  0  0  0  0  0  0  0  0
   28.1233   21.4532   21.0002 C   0  0  0  0  0  0  0  0  0  0  0  0
   27.3263   20.3687   21.0716 N   0  0  0  0  0  0  0  0  0  0  0  0
   29.1723   21.5012   20.0648 N   0  0  0  0  0  0  0  0  0  0  0  0
   30.0413   20.3312   20.0987 C   0  0  0  0  0  0  0  0  0  0  0  0
   31.2632   20.5398   19.2062 C   0  0  0  0  0  0  0  0  0  0  0  0
   30.8562   20.9330   17.7920 C   0  0  0  0  0  0  0  0  0  0  0  0
   29.9525   22.1589   17.8281 C   0  0  0  0  0  0  0  0  0  0  0  0
   28.7417   21.9420   18.7367 C   0  0  0  0  0  0  0  0  0  0  0  0
   25.6050   19.1778   22.0415 N   0  0  0  0  0  0  0  0  0  0  0  0
   25.9262   18.3882   21.5490 H   0  0  0  0  0  0  0  0  0  0  0  0
   24.3270   19.0851   22.7258 C   0  0  0  0  0  0  0  0  0  0  0  0
   23.1757   19.0357   21.7086 C   0  0  0  0  0  0  0  0  0  0  0  0
   22.6970   21.2621   22.4877 O   0  0  0  0  0  0  0  0  0  0  0  0
   22.6561   20.4228   21.3279 C   0  0  0  0  0  0  0  0  0  0  0  0
   23.5942   21.2605   22.8565 H   0  0  0  0  0  0  0  0  0  0  0  0
   21.2338   20.4468   20.7725 C   0  0  0  0  0  0  0  0  0  0  0  0
   20.1090   19.5299   21.3277 C   0  0  0  0  0  0  0  0  0  0  0  0
   19.5615   19.4633   19.8843 C   0  0  0  0  0  0  0  0  0  0  0  0
   20.9937   19.7603   19.4019 C   0  0  0  0  0  0  0  0  0  0  0  0
 18 17  1  0  0  0
 18 16  1  0  0  0
 16 15  1  0  0  0
 15 13  1  0  0  0
 13  1  1  0  0  0
  1  2  2  0  0  0
  2  3  1  0  0  0
  3  4  2  0  0  0
  4  5  1  0  0  0
  5  7  1  0  0  0
  7  8  1  0  0  0
  8  9  1  0  0  0
  9 10  1  0  0  0
 10 11  1  0  0  0
 11 12  1  0  0  0
  5  6  2  0  0  0
 18 20  1  0  0  0
 20 21  1  0  0  0
 21 22  1  0  0  0
 22 23  1  0  0  0
  6  1  1  0  0  0
 23 20  1  0  0  0
 12  7  1  0  0  0
 17 19  1  0  0  0
 13 14  1  0  0  0
M  END
> <minimizedAffinity>
-4.10910

> <minimizedRMSD>
1.12232

$$$$
C51859-P495


 14 14  0  0  0  0  0  0  0  0999 V2000
    8.9442   12.2676   24.3296 C   0  0  0  0  0  0  0  0  0  0  0  0
    7.8261   12.2111   25.1566 C   0  0  0  0  0  0  0  0  0  0  0  0
    7.5549   13.3022   25.9509 C   0  0  0  0  0  0  0  0  0  0  0  0
    8.3180   14.4066   25.9712 N   0  0  0  0  0  0  0  0  0  0  0  0
    9.4011   14.4292   25.1730 C   0  0  0  0  0  0  0  0  0  0  0  0
   10.0831   15.6074   25.2151 O   0  0  0  0  0  0  0  0  0  0  0  0
    9.8110   13.3697   24.3748 C   0  0  0  0  0  0  0  0  0  0  0  0
    9.7811   16.3042   25.7640 H   0  0  0  0  0  0  0  0  0  0  0  0
    9.4858    9.9844   23.8793 C   0  0  0  0  0  0  0  0  0  0  0  0
    9.2804   11.3065   23.4292 O   0  0  0  0  0  0  0  0  0  0  0  0
   11.1686   13.3275   23.6951 C   0  0  0  0  0  0  0  0  0  0  0  0
   12.2907   13.3580   24.7375 C   0  0  0  0  0  0  0  0  0  0  0  0
   11.4221   14.4020   22.6745 C   0  0  0  0  0  0  0  0  0  0  0  0
   12.1876   15.3429   22.8710 O   0  0  0  0  0  0  0  0  0  0  0  0
  9 10  1  0  0  0
 10  1  1  0  0  0
  1  2  2  0  0  0
  2  3  1  0  0  0
  3  4  2  0  0  0
  4  5  1  0  0  0
  5  6  1  0  0  0
  5  7  2  0  0  0
  7 11  1  0  0  0
 11 12  1  0  0  0
 11 13  1  0  0  0
 13 14  2  0  0  0
  7  1  1  0  0  0
  6  8  1  0  0  0
M  END
> <minimizedAffinity>
-4.38096

> <minimizedRMSD>
1.31487

$$$$
C46321-P481


 24 26  0  0  0  0  0  0  0  0999 V2000
   23.4244   21.4678   20.9712 C   0  0  0  0  0  0  0  0  0  0  0  0
   22.3387   21.7649   20.2408 N   0  0  0  0  0  0  0  0  0  0  0  0
   22.8344   22.3296   19.1314 N   0  0  0  0  0  0  0  0  0  0  0  0
   24.1991   22.3850   19.0956 C   0  0  0  0  0  0  0  0  0  0  0  0
   25.0580   22.8636   18.1079 C   0  0  0  0  0  0  0  0  0  0  0  0
   26.4250   22.7992   18.3701 C   0  0  0  0  0  0  0  0  0  0  0  0
   26.9111   22.2336   19.5553 C   0  0  0  0  0  0  0  0  0  0  0  0
   26.0178   21.7321   20.5287 C   0  0  0  0  0  0  0  0  0  0  0  0
   24.6299   21.8199   20.2907 C   0  0  0  0  0  0  0  0  0  0  0  0
   22.2653   22.6744   18.4059 H   0  0  0  0  0  0  0  0  0  0  0  0
   28.3795   22.2595   19.8645 C   0  0  0  0  0  0  0  0  0  0  0  0
   28.6938   22.4139   20.9768 O   0  0  0  0  0  0  0  0  0  0  0  0
   29.2391   22.1502   18.5890 N   0  0  0  0  0  0  0  0  0  0  0  0
   28.7353   21.9422   17.7692 H   0  0  0  0  0  0  0  0  0  0  0  0
   30.6722   22.3043   18.4000 C   0  0  0  0  0  0  0  0  0  0  0  0
   31.2187   21.2494   17.4285 C   0  0  0  0  0  0  0  0  0  0  0  0
   31.4930   21.8073   16.0308 C   0  0  0  0  0  0  0  0  0  0  0  0
   30.4679   22.8621   15.6286 C   0  0  0  0  0  0  0  0  0  0  0  0
   30.3709   23.9912   16.5577 N   0  0  0  0  0  0  0  0  0  0  0  0
   30.9680   23.7249   17.8804 C   0  0  0  0  0  0  0  0  0  0  0  0
   29.3848   24.2161   16.6890 H   0  0  0  0  0  0  0  0  0  0  0  0
   23.2589   20.8012   22.3030 C   0  0  0  0  0  0  0  0  0  0  0  0
   21.9664   18.7140   22.9286 C   0  0  0  0  0  0  0  0  0  0  0  0
   21.8749   20.1655   22.4915 C   0  0  0  0  0  0  0  0  0  0  0  0
 23 24  1  0  0  0
 24 22  1  0  0  0
 22  1  1  0  0  0
  1  2  2  0  0  0
  2  3  1  0  0  0
  3  4  1  0  0  0
  4  5  2  0  0  0
  5  6  1  0  0  0
  6  7  2  0  0  0
  7 11  1  0  0  0
 11 12  2  0  0  0
 11 13  1  0  0  0
 15 13  1  0  0  0
 15 16  1  0  0  0
 16 17  1  0  0  0
 17 18  1  0  0  0
 18 19  1  0  0  0
 19 20  1  0  0  0
  7  8  1  0  0  0
  8  9  2  0  0  0
  9  1  1  0  0  0
  9  4  1  0  0  0
 20 15  1  0  0  0
  3 10  1  0  0  0
 13 14  1  0  0  0
 19 21  1  0  0  0
M  END
> <minimizedAffinity>
-4.06741

> <minimizedRMSD>
1.45896

$$$$
C46327-P481


 21 23  0  0  0  0  0  0  0  0999 V2000
   27.1207   23.3904   15.9664 C   0  0  0  0  0  0  0  0  0  0  0  0
   30.0455   22.2862   18.1712 C   0  0  0  0  0  0  0  0  0  0  0  0
   29.2952   22.7537   17.0921 C   0  0  0  0  0  0  0  0  0  0  0  0
   27.8948   22.8876   17.1597 C   0  0  0  0  0  0  0  0  0  0  0  0
   27.3088   22.5292   18.3879 C   0  0  0  0  0  0  0  0  0  0  0  0
   25.9997   22.5197   18.8027 N   0  0  0  0  0  0  0  0  0  0  0  0
   25.8165   22.0382   20.0502 N   0  0  0  0  0  0  0  0  0  0  0  0
   27.0595   21.7663   20.4563 C   0  0  0  0  0  0  0  0  0  0  0  0
   28.0321   22.0345   19.4679 C   0  0  0  0  0  0  0  0  0  0  0  0
   29.4266   21.9069   19.3657 C   0  0  0  0  0  0  0  0  0  0  0  0
   25.2581   22.8369   18.2382 H   0  0  0  0  0  0  0  0  0  0  0  0
   25.9286   24.1198   16.3999 N   0  0  0  0  0  0  0  0  0  0  0  0
   26.1741   25.0970   16.5588 H   0  0  0  0  0  0  0  0  0  0  0  0
   24.8759   24.0489   15.3848 C   0  0  0  0  0  0  0  0  0  0  0  0
   23.4881   24.3361   15.9893 C   0  0  0  0  0  0  0  0  0  0  0  0
   23.1239   23.3511   17.1165 C   0  0  0  0  0  0  0  0  0  0  0  0
   21.6134   23.1937   17.2974 C   0  0  0  0  0  0  0  0  0  0  0  0
   20.8562   24.4153   16.7927 C   0  0  0  0  0  0  0  0  0  0  0  0
   21.0692   24.6515   15.3644 N   0  0  0  0  0  0  0  0  0  0  0  0
   22.4133   24.3064   14.8924 C   0  0  0  0  0  0  0  0  0  0  0  0
   20.9083   25.6410   15.1763 H   0  0  0  0  0  0  0  0  0  0  0  0
  2  3  2  0  0  0
  3  4  1  0  0  0
  4  1  1  0  0  0
  1 12  1  0  0  0
 12 14  1  0  0  0
 15 14  1  0  0  0
 15 16  1  0  0  0
 16 17  1  0  0  0
 17 18  1  0  0  0
 18 19  1  0  0  0
 19 20  1  0  0  0
  4  5  2  0  0  0
  5  6  1  0  0  0
  6  7  1  0  0  0
  7  8  2  0  0  0
  8  9  1  0  0  0
  9 10  2  0  0  0
 10  2  1  0  0  0
 20 15  1  0  0  0
  9  5  1  0  0  0
 12 13  1  0  0  0
 19 21  1  0  0  0
  6 11  1  0  0  0
M  END
> <minimizedAffinity>
-3.69822

> <minimizedRMSD>
4.24487

$$$$
C46328-P481


 22 24  0  0  0  0  0  0  0  0999 V2000
   26.2956   22.1566   21.5963 O   0  0  0  0  0  0  0  0  0  0  0  0
   25.9437   22.2288   20.4881 C   0  0  0  0  0  0  0  0  0  0  0  0
   26.6821   22.7403   19.2378 N   0  0  0  0  0  0  0  0  0  0  0  0
   26.1899   22.6259   18.3929 H   0  0  0  0  0  0  0  0  0  0  0  0
   24.5489   21.7833   20.1693 C   0  0  0  0  0  0  0  0  0  0  0  0
   23.7650   22.4071   19.1890 C   0  0  0  0  0  0  0  0  0  0  0  0
   22.4149   22.0737   19.0285 C   0  0  0  0  0  0  0  0  0  0  0  0
   21.9049   21.0700   19.8579 C   0  0  0  0  0  0  0  0  0  0  0  0
   20.6431   20.5463   19.9834 N   0  0  0  0  0  0  0  0  0  0  0  0
   20.5668   19.4974   20.8316 N   0  0  0  0  0  0  0  0  0  0  0  0
   21.8094   19.4016   21.3126 C   0  0  0  0  0  0  0  0  0  0  0  0
   22.6874   20.3550   20.7539 C   0  0  0  0  0  0  0  0  0  0  0  0
   24.0362   20.7049   20.9133 C   0  0  0  0  0  0  0  0  0  0  0  0
   19.8635   20.9026   19.4992 H   0  0  0  0  0  0  0  0  0  0  0  0
   27.9778   23.3602   19.1028 C   0  0  0  0  0  0  0  0  0  0  0  0
   28.7553   22.8265   17.8946 C   0  0  0  0  0  0  0  0  0  0  0  0
   29.7823   21.7570   18.3064 C   0  0  0  0  0  0  0  0  0  0  0  0
   30.9890   21.7028   17.3696 C   0  0  0  0  0  0  0  0  0  0  0  0
   30.6258   22.1703   15.9664 C   0  0  0  0  0  0  0  0  0  0  0  0
   30.1447   23.5545   15.9347 N   0  0  0  0  0  0  0  0  0  0  0  0
   29.4487   23.9754   17.1524 C   0  0  0  0  0  0  0  0  0  0  0  0
   29.5018   23.6519   15.1488 H   0  0  0  0  0  0  0  0  0  0  0  0
  1  2  2  0  0  0
  2  3  1  0  0  0
  3 15  1  0  0  0
 16 15  1  0  0  0
 16 17  1  0  0  0
 17 18  1  0  0  0
 18 19  1  0  0  0
 19 20  1  0  0  0
 20 21  1  0  0  0
  2  5  1  0  0  0
  5  6  2  0  0  0
  6  7  1  0  0  0
  7  8  2  0  0  0
  8  9  1  0  0  0
  9 10  1  0  0  0
 10 11  2  0  0  0
 11 12  1  0  0  0
 12 13  2  0  0  0
 21 16  1  0  0  0
 13  5  1  0  0  0
 12  8  1  0  0  0
  3  4  1  0  0  0
 20 22  1  0  0  0
  9 14  1  0  0  0
M  END
> <minimizedAffinity>
-3.76067

> <minimizedRMSD>
4.16365

$$$$
C46349-P481


 23 25  0  0  0  0  0  0  0  0999 V2000
   30.1803   23.1935   18.9990 C   0  0  0  0  0  0  0  0  0  0  0  0
   32.9598   21.9371   18.1292 O   0  0  0  0  0  0  0  0  0  0  0  0
   32.3682   21.7553   19.1526 C   0  0  0  0  0  0  0  0  0  0  0  0
   31.1350   22.3146   19.6352 N   0  0  0  0  0  0  0  0  0  0  0  0
   30.9010   22.0548   20.5555 H   0  0  0  0  0  0  0  0  0  0  0  0
   32.9160   20.7687   20.2031 C   0  0  0  0  0  0  0  0  0  0  0  0
   33.9680   21.4399   21.1091 C   0  0  0  0  0  0  0  0  0  0  0  0
   35.3536   20.8282   20.9217 C   0  0  0  0  0  0  0  0  0  0  0  0
   35.3285   19.3036   21.0701 C   0  0  0  0  0  0  0  0  0  0  0  0
   34.1396   18.6563   20.5092 N   0  0  0  0  0  0  0  0  0  0  0  0
   33.4621   19.5024   19.5244 C   0  0  0  0  0  0  0  0  0  0  0  0
   33.4894   18.4496   21.2674 H   0  0  0  0  0  0  0  0  0  0  0  0
   29.4179   22.4418   17.9085 C   0  0  0  0  0  0  0  0  0  0  0  0
   27.9576   22.8026   17.7622 C   0  0  0  0  0  0  0  0  0  0  0  0
   27.0400   22.5352   18.7890 C   0  0  0  0  0  0  0  0  0  0  0  0
   25.6617   22.7225   18.6076 C   0  0  0  0  0  0  0  0  0  0  0  0
   25.2001   23.1729   17.3608 C   0  0  0  0  0  0  0  0  0  0  0  0
   23.9453   23.4263   16.7653 C   0  0  0  0  0  0  0  0  0  0  0  0
   24.0426   23.8141   15.4903 N   0  0  0  0  0  0  0  0  0  0  0  0
   25.3761   23.8486   15.2790 N   0  0  0  0  0  0  0  0  0  0  0  0
   26.1205   23.4638   16.3648 C   0  0  0  0  0  0  0  0  0  0  0  0
   27.5004   23.3068   16.5320 C   0  0  0  0  0  0  0  0  0  0  0  0
   25.7773   24.1249   14.4235 H   0  0  0  0  0  0  0  0  0  0  0  0
  2  3  2  0  0  0
  3  4  1  0  0  0
  4  1  1  0  0  0
  1 13  1  0  0  0
 13 14  1  0  0  0
 14 15  2  0  0  0
 15 16  1  0  0  0
 16 17  2  0  0  0
 17 18  1  0  0  0
 18 19  2  0  0  0
 19 20  1  0  0  0
 20 21  1  0  0  0
 21 22  2  0  0  0
  6  3  1  0  0  0
  6  7  1  0  0  0
  7  8  1  0  0  0
  8  9  1  0  0  0
  9 10  1  0  0  0
 10 11  1  0  0  0
 22 14  1  0  0  0
 11  6  1  0  0  0
 21 17  1  0  0  0
  4  5  1  0  0  0
 20 23  1  0  0  0
 10 12  1  0  0  0
M  END
> <minimizedAffinity>
-4.29676

> <minimizedRMSD>
3.32102

$$$$
C46350-P481


 24 26  0  0  0  0  0  0  0  0999 V2000
   29.3644   22.6812   17.2779 N   0  0  0  0  0  0  0  0  0  0  0  0
   30.2263   22.1628   16.0742 C   0  0  0  0  0  0  0  0  0  0  0  0
   29.9159   21.9066   14.9731 O   0  0  0  0  0  0  0  0  0  0  0  0
   29.8773   22.8966   18.0901 H   0  0  0  0  0  0  0  0  0  0  0  0
   25.0122   24.2685   14.2317 C   0  0  0  0  0  0  0  0  0  0  0  0
   24.8484   23.7718   15.5779 N   0  0  0  0  0  0  0  0  0  0  0  0
   23.6052   23.6600   16.1035 N   0  0  0  0  0  0  0  0  0  0  0  0
   23.8355   23.2553   17.3554 C   0  0  0  0  0  0  0  0  0  0  0  0
   25.2083   23.0778   17.6324 C   0  0  0  0  0  0  0  0  0  0  0  0
   25.9740   22.6775   18.7396 C   0  0  0  0  0  0  0  0  0  0  0  0
   27.3674   22.6015   18.6002 C   0  0  0  0  0  0  0  0  0  0  0  0
   27.9907   22.8862   17.3835 C   0  0  0  0  0  0  0  0  0  0  0  0
   27.2438   23.3224   16.2881 C   0  0  0  0  0  0  0  0  0  0  0  0
   25.8514   23.4100   16.4447 C   0  0  0  0  0  0  0  0  0  0  0  0
   31.6704   22.0431   16.6381 C   0  0  0  0  0  0  0  0  0  0  0  0
   31.7810   20.8558   17.3204 F   0  0  0  0  0  0  0  0  0  0  0  0
   31.9018   23.0016   17.5843 F   0  0  0  0  0  0  0  0  0  0  0  0
   32.7707   22.0953   15.5713 C   0  0  0  0  0  0  0  0  0  0  0  0
   34.1014   21.5761   16.1463 C   0  0  0  0  0  0  0  0  0  0  0  0
   35.2316   21.7188   15.1308 C   0  0  0  0  0  0  0  0  0  0  0  0
   35.3240   23.1486   14.6091 C   0  0  0  0  0  0  0  0  0  0  0  0
   34.0527   23.5953   14.0409 N   0  0  0  0  0  0  0  0  0  0  0  0
   32.9668   23.5191   15.0263 C   0  0  0  0  0  0  0  0  0  0  0  0
   33.8193   23.0027   13.2441 H   0  0  0  0  0  0  0  0  0  0  0  0
  5  6  1  0  0  0
  6  7  1  0  0  0
  7  8  2  0  0  0
  8  9  1  0  0  0
  9 10  2  0  0  0
 10 11  1  0  0  0
 11 12  2  0  0  0
 12  1  1  0  0  0
  1  2  1  0  0  0
  2  3  2  0  0  0
  2 15  1  0  0  0
 15 16  1  0  0  0
 15 17  1  0  0  0
 18 15  1  0  0  0
 18 19  1  0  0  0
 19 20  1  0  0  0
 20 21  1  0  0  0
 21 22  1  0  0  0
 22 23  1  0  0  0
 12 13  1  0  0  0
 13 14  2  0  0  0
 14  6  1  0  0  0
 14  9  1  0  0  0
 23 18  1  0  0  0
  1  4  1  0  0  0
 22 24  1  0  0  0
M  END
> <minimizedAffinity>
-4.16823

> <minimizedRMSD>
2.67875

$$$$
C46353-P481


 20 22  0  0  0  0  0  0  0  0999 V2000
   28.1792   22.4717   18.7856 C   0  0  0  0  0  0  0  0  0  0  0  0
   28.0354   22.8994   17.4631 C   0  0  0  0  0  0  0  0  0  0  0  0
   26.7726   23.1671   16.9064 C   0  0  0  0  0  0  0  0  0  0  0  0
   25.6789   22.9414   17.7593 C   0  0  0  0  0  0  0  0  0  0  0  0
   24.3330   23.0839   17.5350 N   0  0  0  0  0  0  0  0  0  0  0  0
   23.5573   22.7076   18.5756 N   0  0  0  0  0  0  0  0  0  0  0  0
   24.4521   22.3745   19.5120 C   0  0  0  0  0  0  0  0  0  0  0  0
   25.7884   22.4868   19.0651 C   0  0  0  0  0  0  0  0  0  0  0  0
   27.0634   22.2505   19.6020 C   0  0  0  0  0  0  0  0  0  0  0  0
   23.9646   23.4299   16.6901 H   0  0  0  0  0  0  0  0  0  0  0  0
   26.6135   23.6184   15.4757 C   0  0  0  0  0  0  0  0  0  0  0  0
   25.5719   24.6486   15.3791 N   0  0  0  0  0  0  0  0  0  0  0  0
   26.0096   25.5596   15.5164 H   0  0  0  0  0  0  0  0  0  0  0  0
   24.8584   24.6687   14.0905 C   0  0  0  0  0  0  0  0  0  0  0  0
   23.3879   24.2525   14.2771 C   0  0  0  0  0  0  0  0  0  0  0  0
   22.7592   23.7356   12.9813 C   0  0  0  0  0  0  0  0  0  0  0  0
   23.3956   24.3686   11.7492 C   0  0  0  0  0  0  0  0  0  0  0  0
   24.8336   24.1110   11.6332 N   0  0  0  0  0  0  0  0  0  0  0  0
   25.5027   23.8870   12.9224 C   0  0  0  0  0  0  0  0  0  0  0  0
   25.2687   24.9148   11.1805 H   0  0  0  0  0  0  0  0  0  0  0  0
  1  2  2  0  0  0
  2  3  1  0  0  0
  3 11  1  0  0  0
 11 12  1  0  0  0
 14 12  1  0  0  0
 14 15  1  0  0  0
 15 16  1  0  0  0
 16 17  1  0  0  0
 17 18  1  0  0  0
 18 19  1  0  0  0
  3  4  2  0  0  0
  4  5  1  0  0  0
  5  6  1  0  0  0
  6  7  2  0  0  0
  7  8  1  0  0  0
  8  9  2  0  0  0
  9  1  1  0  0  0
 19 14  1  0  0  0
  8  4  1  0  0  0
 12 13  1  0  0  0
 18 20  1  0  0  0
  5 10  1  0  0  0
M  END
> <minimizedAffinity>
-3.55809

> <minimizedRMSD>
2.19799

$$$$
C45903-P444


 23 25  0  0  0  0  0  0  0  0999 V2000
   25.9248   20.7839   22.1866 C   0  0  0  0  0  0  0  0  0  0  0  0
   26.3754   21.6893   23.1144 C   0  0  0  0  0  0  0  0  0  0  0  0
   27.2122   22.6606   22.6425 C   0  0  0  0  0  0  0  0  0  0  0  0
   27.6051   22.7429   21.3635 N   0  0  0  0  0  0  0  0  0  0  0  0
   27.1184   21.8323   20.5047 C   0  0  0  0  0  0  0  0  0  0  0  0
   26.2644   20.8619   20.8905 N   0  0  0  0  0  0  0  0  0  0  0  0
   27.5525   21.8752   19.1727 N   0  0  0  0  0  0  0  0  0  0  0  0
   26.4610   22.1973   18.2602 C   0  0  0  0  0  0  0  0  0  0  0  0
   26.9649   22.7259   16.9119 C   0  0  0  0  0  0  0  0  0  0  0  0
   28.2748   22.1000   16.4596 C   0  0  0  0  0  0  0  0  0  0  0  0
   29.3479   22.1268   17.5494 C   0  0  0  0  0  0  0  0  0  0  0  0
   28.8249   22.5327   18.9310 C   0  0  0  0  0  0  0  0  0  0  0  0
   25.2281   19.6368   22.5984 N   0  0  0  0  0  0  0  0  0  0  0  0
   25.2960   19.3000   23.5210 H   0  0  0  0  0  0  0  0  0  0  0  0
   24.3923   18.9583   21.5958 C   0  0  0  0  0  0  0  0  0  0  0  0
   22.9822   19.5188   21.4045 C   0  0  0  0  0  0  0  0  0  0  0  0
   22.4608   17.4519   20.2740 O   0  0  0  0  0  0  0  0  0  0  0  0
   21.9462   18.4101   21.1992 C   0  0  0  0  0  0  0  0  0  0  0  0
   23.3137   17.1188   20.5943 H   0  0  0  0  0  0  0  0  0  0  0  0
   20.6106   18.8952   20.6438 C   0  0  0  0  0  0  0  0  0  0  0  0
   20.5239   20.2050   19.8096 C   0  0  0  0  0  0  0  0  0  0  0  0
   19.0934   20.3699   20.3665 C   0  0  0  0  0  0  0  0  0  0  0  0
   19.5432   19.5268   21.5796 C   0  0  0  0  0  0  0  0  0  0  0  0
 18 17  1  0  0  0
 18 16  1  0  0  0
 16 15  1  0  0  0
 15 13  1  0  0  0
 13  1  1  0  0  0
  1  2  2  0  0  0
  2  3  1  0  0  0
  3  4  2  0  0  0
  4  5  1  0  0  0
  5  7  1  0  0  0
  7  8  1  0  0  0
  8  9  1  0  0  0
  9 10  1  0  0  0
 10 11  1  0  0  0
 11 12  1  0  0  0
  5  6  2  0  0  0
 18 20  1  0  0  0
 20 21  1  0  0  0
 21 22  1  0  0  0
 22 23  1  0  0  0
  6  1  1  0  0  0
 23 20  1  0  0  0
 12  7  1  0  0  0
 17 19  1  0  0  0
 13 14  1  0  0  0
M  END
> <minimizedAffinity>
-4.48726

> <minimizedRMSD>
1.92761

$$$$
C45662-P441


 24 26  0  0  0  0  0  0  0  0999 V2000
    4.1753   14.7046    4.6759 O   0  0  0  0  0  0  0  0  0  0  0  0
    4.4664   13.6646    4.2285 C   0  0  0  0  0  0  0  0  0  0  0  0
    5.8075   12.8760    4.3002 N   0  0  0  0  0  0  0  0  0  0  0  0
    5.7782   11.9758    3.9026 H   0  0  0  0  0  0  0  0  0  0  0  0
    3.4486   12.8735    3.5363 C   0  0  0  0  0  0  0  0  0  0  0  0
    2.0737   13.1976    3.4355 C   0  0  0  0  0  0  0  0  0  0  0  0
    1.3680   12.2817    2.7712 N   0  0  0  0  0  0  0  0  0  0  0  0
    2.2760   11.3400    2.4577 N   0  0  0  0  0  0  0  0  0  0  0  0
    3.5391   11.6551    2.8853 C   0  0  0  0  0  0  0  0  0  0  0  0
    1.8809   10.1288    1.7539 C   0  0  0  0  0  0  0  0  0  0  0  0
    0.3606   10.0413    1.5344 C   0  0  0  0  0  0  0  0  0  0  0  0
   -0.0241    8.6216    1.9318 C   0  0  0  0  0  0  0  0  0  0  0  0
    0.9739    8.2676    3.0204 C   0  0  0  0  0  0  0  0  0  0  0  0
    2.2815    8.8408    2.4918 C   0  0  0  0  0  0  0  0  0  0  0  0
    7.2463   13.2972    4.9241 S   0  0  0  0  0  0  0  0  0  0  0  0
    7.8740   12.0527    5.3016 O   0  0  0  0  0  0  0  0  0  0  0  0
    7.0498   14.3141    5.9401 O   0  0  0  0  0  0  0  0  0  0  0  0
    8.1650   14.0013    3.5742 C   0  0  0  0  0  0  0  0  0  0  0  0
    8.4729   15.4808    3.7307 C   0  0  0  0  0  0  0  0  0  0  0  0
    9.4375   15.9356    2.6344 C   0  0  0  0  0  0  0  0  0  0  0  0
    9.4003   15.0404    1.3872 C   0  0  0  0  0  0  0  0  0  0  0  0
    8.0602   14.5326    1.1238 N   0  0  0  0  0  0  0  0  0  0  0  0
    7.5157   13.7154    2.2206 C   0  0  0  0  0  0  0  0  0  0  0  0
    8.0917   13.9606    0.2799 H   0  0  0  0  0  0  0  0  0  0  0  0
  1  2  2  0  0  0
  2  3  1  0  0  0
  3 15  1  0  0  0
 15 16  2  0  0  0
 15 17  2  0  0  0
 18 15  1  0  0  0
 18 19  1  0  0  0
 19 20  1  0  0  0
 20 21  1  0  0  0
 21 22  1  0  0  0
 22 23  1  0  0  0
  2  5  1  0  0  0
  5  6  1  0  0  0
  6  7  2  0  0  0
  7  8  1  0  0  0
  8 10  1  0  0  0
 10 11  1  0  0  0
 11 12  1  0  0  0
 12 13  1  0  0  0
 13 14  1  0  0  0
  8  9  1  0  0  0
 23 18  1  0  0  0
  9  5  2  0  0  0
 14 10  1  0  0  0
  3  4  1  0  0  0
 22 24  1  0  0  0
M  END
> <minimizedAffinity>
-4.21203

> <minimizedRMSD>
1.25774

$$$$
C102905-P123


 20 22  0  0  0  0  0  0  0  0999 V2000
    9.9308   13.1860    0.6401 C   0  0  0  0  0  0  0  0  0  0  0  0
   10.6410   12.3221    1.0163 O   0  0  0  0  0  0  0  0  0  0  0  0
    8.6647   13.7699    1.2686 N   0  0  0  0  0  0  0  0  0  0  0  0
    7.3692   13.0010    0.7723 C   0  0  0  0  0  0  0  0  0  0  0  0
    7.4449   11.4595    0.8651 C   0  0  0  0  0  0  0  0  0  0  0  0
    7.8984   11.0193    2.2473 C   0  0  0  0  0  0  0  0  0  0  0  0
    7.7816   12.2164    3.1315 C   0  0  0  0  0  0  0  0  0  0  0  0
    7.3752   12.0981    4.4628 C   0  0  0  0  0  0  0  0  0  0  0  0
    7.2220   13.2369    5.2523 C   0  0  0  0  0  0  0  0  0  0  0  0
    7.4717   14.4985    4.7212 C   0  0  0  0  0  0  0  0  0  0  0  0
    7.8787   14.6242    3.3933 C   0  0  0  0  0  0  0  0  0  0  0  0
    8.0193   13.4922    2.5747 C   0  0  0  0  0  0  0  0  0  0  0  0
   11.1933   13.2754   -1.5590 C   0  0  0  0  0  0  0  0  0  0  0  0
   10.1978   13.9869   -0.6457 C   0  0  0  0  0  0  0  0  0  0  0  0
   10.7498   15.6946   -0.2893 S   0  0  0  0  0  0  0  0  0  0  0  0
   11.9512   15.4476    0.9519 C   0  0  0  0  0  0  0  0  0  0  0  0
   11.7803   15.8514    2.1937 N   0  0  0  0  0  0  0  0  0  0  0  0
   12.8937   15.6074    2.9778 N   0  0  0  0  0  0  0  0  0  0  0  0
   13.8581   15.0367    2.2880 C   0  0  0  0  0  0  0  0  0  0  0  0
   13.4918   14.7612    0.6371 S   0  0  0  0  0  0  0  0  0  0  0  0
 14 13  1  0  0  0
 14 15  1  0  0  0
 15 16  1  0  0  0
 16 17  2  0  0  0
 17 18  1  0  0  0
 18 19  2  0  0  0
 19 20  1  0  0  0
 14  1  1  0  0  0
  1  2  2  0  0  0
  1  3  1  0  0  0
  3  4  1  0  0  0
  4  5  1  0  0  0
  5  6  1  0  0  0
  6  7  1  0  0  0
  7  8  2  0  0  0
  8  9  1  0  0  0
  9 10  2  0  0  0
 10 11  1  0  0  0
 11 12  2  0  0  0
 20 16  1  0  0  0
 12  3  1  0  0  0
 12  7  1  0  0  0
M  END
> <minimizedAffinity>
-3.48006

> <minimizedRMSD>
1.17351

$$$$
C81620-P174


 12 12  0  0  0  0  0  0  0  0999 V2000
   11.6280   17.2006   20.4854 N   0  0  0  0  0  0  0  0  0  0  0  0
   12.3346   18.3621   20.2703 C   0  0  0  0  0  0  0  0  0  0  0  0
   13.5759   18.2625   20.6713 N   0  0  0  0  0  0  0  0  0  0  0  0
   13.6814   16.9721   21.1078 C   0  0  0  0  0  0  0  0  0  0  0  0
   12.4844   16.2832   21.0358 C   0  0  0  0  0  0  0  0  0  0  0  0
    9.2824   17.3262   21.2337 C   0  0  0  0  0  0  0  0  0  0  0  0
   10.2423   17.0820   20.0769 C   0  0  0  0  0  0  0  0  0  0  0  0
    9.8828   15.8538   19.2873 C   0  0  0  0  0  0  0  0  0  0  0  0
   12.1959   14.8525   21.3462 C   0  0  0  0  0  0  0  0  0  0  0  0
   11.3733   14.6210   22.6041 C   0  0  0  0  0  0  0  0  0  0  0  0
   11.8887   13.4225   23.3500 C   0  0  0  0  0  0  0  0  0  0  0  0
   12.4420   13.5026   24.4448 O   0  0  0  0  0  0  0  0  0  0  0  0
  6  7  1  0  0  0
  7  8  1  0  0  0
  7  1  1  0  0  0
  1  2  1  0  0  0
  2  3  2  0  0  0
  3  4  1  0  0  0
  4  5  2  0  0  0
  5  9  1  0  0  0
  9 10  1  0  0  0
 10 11  1  0  0  0
 11 12  2  0  0  0
  5  1  1  0  0  0
M  END
> <minimizedAffinity>
-4.60888

> <minimizedRMSD>
1.57304

$$$$
C5573-P103


 16 18  0  0  0  0  0  0  0  0999 V2000
   14.0556   -4.1805   17.5062 C   0  0  0  0  0  0  0  0  0  0  0  0
   15.1551   -3.5014   18.0323 C   0  0  0  0  0  0  0  0  0  0  0  0
   16.3894   -4.1505   18.2608 C   0  0  0  0  0  0  0  0  0  0  0  0
   16.4859   -5.5123   17.8975 C   0  0  0  0  0  0  0  0  0  0  0  0
   17.4996   -6.5005   17.8804 C   0  0  0  0  0  0  0  0  0  0  0  0
   17.0609   -7.6918   17.4644 N   0  0  0  0  0  0  0  0  0  0  0  0
   15.7592   -7.4668   17.2147 N   0  0  0  0  0  0  0  0  0  0  0  0
   15.3622   -6.1719   17.4120 C   0  0  0  0  0  0  0  0  0  0  0  0
   14.1341   -5.5402   17.2047 C   0  0  0  0  0  0  0  0  0  0  0  0
   15.1433   -8.1740   16.9151 H   0  0  0  0  0  0  0  0  0  0  0  0
   17.5019   -3.4781   18.9401 C   0  0  0  0  0  0  0  0  0  0  0  0
   17.5434   -3.3688   20.3381 C   0  0  0  0  0  0  0  0  0  0  0  0
   18.5513   -2.6286   20.9321 C   0  0  0  0  0  0  0  0  0  0  0  0
   19.5279   -2.0107   20.2418 N   0  0  0  0  0  0  0  0  0  0  0  0
   19.5002   -2.1598   18.9004 C   0  0  0  0  0  0  0  0  0  0  0  0
   18.5258   -2.8682   18.2166 C   0  0  0  0  0  0  0  0  0  0  0  0
  1  2  2  0  0  0
  2  3  1  0  0  0
  3 11  1  0  0  0
 11 12  2  0  0  0
 12 13  1  0  0  0
 13 14  2  0  0  0
 14 15  1  0  0  0
 15 16  2  0  0  0
  3  4  2  0  0  0
  4  5  1  0  0  0
  5  6  2  0  0  0
  6  7  1  0  0  0
  7  8  1  0  0  0
  8  9  2  0  0  0
  9  1  1  0  0  0
 16 11  1  0  0  0
  8  4  1  0  0  0
  7 10  1  0  0  0
M  END
> <minimizedAffinity>
-4.95205

> <minimizedRMSD>
1.05692

$$$$
C76028-P170


 21 23  0  0  0  0  0  0  0  0999 V2000
    9.0443   14.7916   23.5329 C   0  0  0  0  0  0  0  0  0  0  0  0
    8.7743   13.8668   24.5440 C   0  0  0  0  0  0  0  0  0  0  0  0
    7.4629   13.5918   24.9465 C   0  0  0  0  0  0  0  0  0  0  0  0
    6.3871   14.2352   24.3381 C   0  0  0  0  0  0  0  0  0  0  0  0
    6.6097   15.1865   23.3524 C   0  0  0  0  0  0  0  0  0  0  0  0
    7.9349   15.4523   22.9803 C   0  0  0  0  0  0  0  0  0  0  0  0
   11.4458   15.3397   25.1020 O   0  0  0  0  0  0  0  0  0  0  0  0
   11.4666   15.2898   23.8688 C   0  0  0  0  0  0  0  0  0  0  0  0
   12.8153   15.4227   23.2022 C   0  0  0  0  0  0  0  0  0  0  0  0
   12.7516   16.1364   21.8744 C   0  0  0  0  0  0  0  0  0  0  0  0
   11.8783   15.3042   20.9736 C   0  0  0  0  0  0  0  0  0  0  0  0
   10.4810   15.2580   21.5594 C   0  0  0  0  0  0  0  0  0  0  0  0
   10.3757   15.0486   23.0239 N   0  0  0  0  0  0  0  0  0  0  0  0
    5.6272   15.8257   22.6167 N   0  0  0  0  0  0  0  0  0  0  0  0
    5.8672   16.6578   22.1484 H   0  0  0  0  0  0  0  0  0  0  0  0
    4.2662   15.3435   22.4947 C   0  0  0  0  0  0  0  0  0  0  0  0
    3.9994   14.7111   21.1730 C   0  0  0  0  0  0  0  0  0  0  0  0
    4.7171   13.7203   20.5422 C   0  0  0  0  0  0  0  0  0  0  0  0
    4.1263   13.4642   19.3454 O   0  0  0  0  0  0  0  0  0  0  0  0
    3.0748   14.3282   19.3129 C   0  0  0  0  0  0  0  0  0  0  0  0
    2.9595   15.1150   20.3635 N   0  0  0  0  0  0  0  0  0  0  0  0
  7  8  2  0  0  0
  8  9  1  0  0  0
  9 10  1  0  0  0
 10 11  1  0  0  0
 11 12  1  0  0  0
 12 13  1  0  0  0
 13  1  1  0  0  0
  1  2  2  0  0  0
  2  3  1  0  0  0
  3  4  2  0  0  0
  4  5  1  0  0  0
  5 14  1  0  0  0
 14 16  1  0  0  0
 16 17  1  0  0  0
 17 18  2  0  0  0
 18 19  1  0  0  0
 19 20  1  0  0  0
 20 21  2  0  0  0
  5  6  2  0  0  0
 13  8  1  0  0  0
  6  1  1  0  0  0
 21 17  1  0  0  0
 14 15  1  0  0  0
M  END
> <minimizedAffinity>
-6.56366

> <minimizedRMSD>
0.79078

$$$$
C111020-P31


 24 26  0  0  0  0  0  0  0  0999 V2000
    7.9329   12.0348    1.9390 C   0  0  0  0  0  0  0  0  0  0  0  0
    8.2725   11.0820    3.0983 C   0  0  0  0  0  0  0  0  0  0  0  0
    7.6102   11.5576    4.3854 C   0  0  0  0  0  0  0  0  0  0  0  0
    7.4716   13.0565    4.4723 C   0  0  0  0  0  0  0  0  0  0  0  0
    6.8412   13.5827    5.6174 C   0  0  0  0  0  0  0  0  0  0  0  0
    6.6014   14.9457    5.7316 C   0  0  0  0  0  0  0  0  0  0  0  0
    6.9838   15.7889    4.6980 C   0  0  0  0  0  0  0  0  0  0  0  0
    7.6269   15.2729    3.5616 C   0  0  0  0  0  0  0  0  0  0  0  0
    7.8999   13.9024    3.4195 C   0  0  0  0  0  0  0  0  0  0  0  0
    8.5638   13.3399    2.2905 N   0  0  0  0  0  0  0  0  0  0  0  0
    7.1068   10.6773   -0.0483 C   0  0  0  0  0  0  0  0  0  0  0  0
    8.3034   11.4373    0.5506 C   0  0  0  0  0  0  0  0  0  0  0  0
    9.5187   10.5064    0.5524 C   0  0  0  0  0  0  0  0  0  0  0  0
    9.1198   14.2434    1.2588 C   0  0  0  0  0  0  0  0  0  0  0  0
   10.6196   14.6099    1.5135 C   0  0  0  0  0  0  0  0  0  0  0  0
   10.9378   15.5431    2.1464 O   0  0  0  0  0  0  0  0  0  0  0  0
   11.4890   13.5596    0.7542 N   0  0  0  0  0  0  0  0  0  0  0  0
   10.9773   12.9050    0.2261 H   0  0  0  0  0  0  0  0  0  0  0  0
   12.9333   13.3910    0.7002 C   0  0  0  0  0  0  0  0  0  0  0  0
   13.4653   12.4655   -0.4134 C   0  0  0  0  0  0  0  0  0  0  0  0
   13.7391   11.0377    0.0569 C   0  0  0  0  0  0  0  0  0  0  0  0
   15.2052   11.0626    0.4191 C   0  0  0  0  0  0  0  0  0  0  0  0
   15.7632   11.9973   -0.6257 C   0  0  0  0  0  0  0  0  0  0  0  0
   14.7423   12.9753   -0.8768 O   0  0  0  0  0  0  0  0  0  0  0  0
 11 12  1  0  0  0
 12 13  1  0  0  0
  1 12  1  0  0  0
  1  2  1  0  0  0
  2  3  1  0  0  0
  3  4  1  0  0  0
  4  5  2  0  0  0
  5  6  1  0  0  0
  6  7  2  0  0  0
  7  8  1  0  0  0
  8  9  2  0  0  0
  9 10  1  0  0  0
 10 14  1  0  0  0
 14 15  1  0  0  0
 15 16  2  0  0  0
 15 17  1  0  0  0
 17 19  1  0  0  0
 20 19  1  0  0  0
 20 21  1  0  0  0
 21 22  1  0  0  0
 22 23  1  0  0  0
 23 24  1  0  0  0
 10  1  1  0  0  0
 24 20  1  0  0  0
  9  4  1  0  0  0
 17 18  1  0  0  0
M  END
> <minimizedAffinity>
-3.78685

> <minimizedRMSD>
2.55921

$$$$
C111024-P31


 22 24  0  0  0  0  0  0  0  0999 V2000
    7.3506    7.8726    2.8430 C   0  0  0  0  0  0  0  0  0  0  0  0
    7.9860    9.1814    2.4511 C   0  0  0  0  0  0  0  0  0  0  0  0
    7.4898   10.3577    3.0345 C   0  0  0  0  0  0  0  0  0  0  0  0
    7.9856   11.6000    2.6540 C   0  0  0  0  0  0  0  0  0  0  0  0
    8.9971   11.6770    1.6978 C   0  0  0  0  0  0  0  0  0  0  0  0
    9.5523   10.5181    1.1292 C   0  0  0  0  0  0  0  0  0  0  0  0
    9.0476    9.2568    1.5197 C   0  0  0  0  0  0  0  0  0  0  0  0
    9.5948    7.9900    0.9040 C   0  0  0  0  0  0  0  0  0  0  0  0
   10.8440    8.2046    0.0676 C   0  0  0  0  0  0  0  0  0  0  0  0
   10.7149    9.4995   -0.7140 C   0  0  0  0  0  0  0  0  0  0  0  0
   10.6202   10.6573    0.1893 N   0  0  0  0  0  0  0  0  0  0  0  0
   11.8598   11.0379    0.9114 C   0  0  0  0  0  0  0  0  0  0  0  0
   13.0217   11.6522    0.0836 C   0  0  0  0  0  0  0  0  0  0  0  0
   12.9025   12.1668   -0.9600 O   0  0  0  0  0  0  0  0  0  0  0  0
   14.2925   11.4554    0.9777 N   0  0  0  0  0  0  0  0  0  0  0  0
   14.1186   11.0527    1.8591 H   0  0  0  0  0  0  0  0  0  0  0  0
   15.6810   11.7695    0.7178 C   0  0  0  0  0  0  0  0  0  0  0  0
   16.4631   12.0317    2.0105 C   0  0  0  0  0  0  0  0  0  0  0  0
   17.7880   12.7385    1.7806 C   0  0  0  0  0  0  0  0  0  0  0  0
   18.0159   13.4079    3.1119 C   0  0  0  0  0  0  0  0  0  0  0  0
   16.6150   13.8473    3.4769 C   0  0  0  0  0  0  0  0  0  0  0  0
   15.7086   12.8794    2.9108 O   0  0  0  0  0  0  0  0  0  0  0  0
  1  2  1  0  0  0
  2  3  2  0  0  0
  3  4  1  0  0  0
  4  5  2  0  0  0
  5  6  1  0  0  0
  6  7  2  0  0  0
  7  8  1  0  0  0
  8  9  1  0  0  0
  9 10  1  0  0  0
 10 11  1  0  0  0
 11 12  1  0  0  0
 12 13  1  0  0  0
 13 14  2  0  0  0
 13 15  1  0  0  0
 15 17  1  0  0  0
 18 17  1  0  0  0
 18 19  1  0  0  0
 19 20  1  0  0  0
 20 21  1  0  0  0
 21 22  1  0  0  0
  7  2  1  0  0  0
 22 18  1  0  0  0
 11  6  1  0  0  0
 15 16  1  0  0  0
M  END
> <minimizedAffinity>
-3.98067

> <minimizedRMSD>
2.39200

$$$$
C45903-P536


 23 25  0  0  0  0  0  0  0  0999 V2000
   25.8208   20.3509   22.1022 C   0  0  0  0  0  0  0  0  0  0  0  0
   25.1480   21.4079   22.6399 C   0  0  0  0  0  0  0  0  0  0  0  0
   25.8173   22.5802   22.6201 C   0  0  0  0  0  0  0  0  0  0  0  0
   27.0002   22.7784   22.0383 N   0  0  0  0  0  0  0  0  0  0  0  0
   27.5826   21.7274   21.4546 C   0  0  0  0  0  0  0  0  0  0  0  0
   27.0032   20.5052   21.4522 N   0  0  0  0  0  0  0  0  0  0  0  0
   28.8111   21.9725   20.8299 N   0  0  0  0  0  0  0  0  0  0  0  0
   29.6220   20.8265   20.4764 C   0  0  0  0  0  0  0  0  0  0  0  0
   30.6916   21.2287   19.4649 C   0  0  0  0  0  0  0  0  0  0  0  0
   31.5364   22.3867   19.9713 C   0  0  0  0  0  0  0  0  0  0  0  0
   30.6551   23.5615   20.3653 C   0  0  0  0  0  0  0  0  0  0  0  0
   29.5348   23.1494   21.3258 C   0  0  0  0  0  0  0  0  0  0  0  0
   25.3011   19.0592   22.2572 N   0  0  0  0  0  0  0  0  0  0  0  0
   25.1243   18.4860   21.4765 H   0  0  0  0  0  0  0  0  0  0  0  0
   25.0288   18.5880   23.6180 C   0  0  0  0  0  0  0  0  0  0  0  0
   23.6024   18.9588   24.0594 C   0  0  0  0  0  0  0  0  0  0  0  0
   24.2874   18.6634   26.3550 O   0  0  0  0  0  0  0  0  0  0  0  0
   23.2113   18.4285   25.4419 C   0  0  0  0  0  0  0  0  0  0  0  0
   24.5081   19.6080   26.3585 H   0  0  0  0  0  0  0  0  0  0  0  0
   22.8777   16.9409   25.4489 C   0  0  0  0  0  0  0  0  0  0  0  0
   21.9936   16.4690   26.6410 C   0  0  0  0  0  0  0  0  0  0  0  0
   21.3039   15.5009   25.6645 C   0  0  0  0  0  0  0  0  0  0  0  0
   21.7208   16.4565   24.5318 C   0  0  0  0  0  0  0  0  0  0  0  0
 18 17  1  0  0  0
 18 16  1  0  0  0
 16 15  1  0  0  0
 15 13  1  0  0  0
 13  1  1  0  0  0
  1  2  2  0  0  0
  2  3  1  0  0  0
  3  4  2  0  0  0
  4  5  1  0  0  0
  5  7  1  0  0  0
  7  8  1  0  0  0
  8  9  1  0  0  0
  9 10  1  0  0  0
 10 11  1  0  0  0
 11 12  1  0  0  0
  5  6  2  0  0  0
 18 20  1  0  0  0
 20 21  1  0  0  0
 21 22  1  0  0  0
 22 23  1  0  0  0
  6  1  1  0  0  0
 23 20  1  0  0  0
 12  7  1  0  0  0
 17 19  1  0  0  0
 13 14  1  0  0  0
M  END
> <minimizedAffinity>
-5.84907

> <minimizedRMSD>
1.08974

$$$$
C55840-P103


 25 28  0  0  0  0  0  0  0  0999 V2000
   22.6040    0.2063   19.8529 N   0  0  0  0  0  0  0  0  0  0  0  0
   23.5336    0.4900   20.0093 H   0  0  0  0  0  0  0  0  0  0  0  0
   21.2882   -3.0045   18.6081 C   0  0  0  0  0  0  0  0  0  0  0  0
   21.4385   -2.2075   17.5647 N   0  0  0  0  0  0  0  0  0  0  0  0
   22.0521   -1.0210   17.9112 N   0  0  0  0  0  0  0  0  0  0  0  0
   22.2636   -0.9422   19.2068 C   0  0  0  0  0  0  0  0  0  0  0  0
   22.0503   -2.4221   20.0337 S   0  0  0  0  0  0  0  0  0  0  0  0
   19.2853   -6.6812   18.6874 C   0  0  0  0  0  0  0  0  0  0  0  0
   18.8278   -5.7003   17.8167 C   0  0  0  0  0  0  0  0  0  0  0  0
   19.4675   -4.4674   17.7826 C   0  0  0  0  0  0  0  0  0  0  0  0
   20.5394   -4.2545   18.6386 C   0  0  0  0  0  0  0  0  0  0  0  0
   20.9674   -5.1856   19.5353 N   0  0  0  0  0  0  0  0  0  0  0  0
   20.3408   -6.3765   19.5266 C   0  0  0  0  0  0  0  0  0  0  0  0
   21.4306    0.9773   20.2921 C   0  0  0  0  0  0  0  0  0  0  0  0
   21.0760    0.7884   21.7714 C   0  0  0  0  0  0  0  0  0  0  0  0
   19.5666    0.9457   22.0735 C   0  0  0  0  0  0  0  0  0  0  0  0
   18.7208   -0.0029   21.3067 C   0  0  0  0  0  0  0  0  0  0  0  0
   17.9762    0.2728   20.2522 N   0  0  0  0  0  0  0  0  0  0  0  0
   17.4430   -0.9077   19.7870 N   0  0  0  0  0  0  0  0  0  0  0  0
   17.8607   -1.8765   20.5741 C   0  0  0  0  0  0  0  0  0  0  0  0
   17.6654   -3.2838   20.5742 C   0  0  0  0  0  0  0  0  0  0  0  0
   18.2023   -4.0365   21.5544 C   0  0  0  0  0  0  0  0  0  0  0  0
   18.9662   -3.4391   22.6381 C   0  0  0  0  0  0  0  0  0  0  0  0
   19.1527   -2.1089   22.6419 C   0  0  0  0  0  0  0  0  0  0  0  0
   18.6206   -1.3447   21.6017 N   0  0  0  0  0  0  0  0  0  0  0  0
  8  9  2  0  0  0
  9 10  1  0  0  0
 10 11  2  0  0  0
 11  3  1  0  0  0
  3  4  2  0  0  0
  4  5  1  0  0  0
  5  6  2  0  0  0
  6  1  1  0  0  0
  1 14  1  0  0  0
 14 15  1  0  0  0
 15 16  1  0  0  0
 16 17  1  0  0  0
 17 18  2  0  0  0
 18 19  1  0  0  0
 19 20  2  0  0  0
 20 21  1  0  0  0
 21 22  2  0  0  0
 22 23  1  0  0  0
 23 24  2  0  0  0
 24 25  1  0  0  0
  6  7  1  0  0  0
 11 12  1  0  0  0
 12 13  2  0  0  0
 13  8  1  0  0  0
  7  3  1  0  0  0
 25 17  1  0  0  0
 25 20  1  0  0  0
  1  2  1  0  0  0
M  END
> <minimizedAffinity>
-4.61560

> <minimizedRMSD>
1.06500

$$$$
C55852-P103


 23 25  0  0  0  0  0  0  0  0999 V2000
   22.3019   -0.0380   20.9569 C   0  0  0  0  0  0  0  0  0  0  0  0
   21.6169   -0.9662   17.9384 O   0  0  0  0  0  0  0  0  0  0  0  0
   21.5999   -1.6310   18.8929 C   0  0  0  0  0  0  0  0  0  0  0  0
   21.9496   -1.2906   20.3507 N   0  0  0  0  0  0  0  0  0  0  0  0
   21.9284   -2.0562   20.9692 H   0  0  0  0  0  0  0  0  0  0  0  0
   21.0804   -3.0409   18.8347 C   0  0  0  0  0  0  0  0  0  0  0  0
   20.1560   -3.3874   17.8526 C   0  0  0  0  0  0  0  0  0  0  0  0
   19.5832   -4.6568   17.8971 C   0  0  0  0  0  0  0  0  0  0  0  0
   19.9727   -5.5263   18.9022 C   0  0  0  0  0  0  0  0  0  0  0  0
   19.4600   -6.7607   18.9750 F   0  0  0  0  0  0  0  0  0  0  0  0
   20.9058   -5.1040   19.8362 C   0  0  0  0  0  0  0  0  0  0  0  0
   21.4541   -3.8671   19.8572 N   0  0  0  0  0  0  0  0  0  0  0  0
   21.2039    1.0233   20.7809 C   0  0  0  0  0  0  0  0  0  0  0  0
   19.9193    0.8973   21.6256 C   0  0  0  0  0  0  0  0  0  0  0  0
   18.9258   -0.0303   21.0398 C   0  0  0  0  0  0  0  0  0  0  0  0
   18.1939    0.1737   19.9608 N   0  0  0  0  0  0  0  0  0  0  0  0
   17.5921   -1.0173   19.6258 N   0  0  0  0  0  0  0  0  0  0  0  0
   17.9273   -1.9087   20.5336 C   0  0  0  0  0  0  0  0  0  0  0  0
   17.6113   -3.2838   20.7085 C   0  0  0  0  0  0  0  0  0  0  0  0
   18.1001   -3.9548   21.7695 C   0  0  0  0  0  0  0  0  0  0  0  0
   18.9347   -3.2980   22.7628 C   0  0  0  0  0  0  0  0  0  0  0  0
   19.2212   -1.9942   22.6104 C   0  0  0  0  0  0  0  0  0  0  0  0
   18.7238   -1.3134   21.4972 N   0  0  0  0  0  0  0  0  0  0  0  0
  2  3  2  0  0  0
  3  4  1  0  0  0
  4  1  1  0  0  0
  1 13  1  0  0  0
 13 14  1  0  0  0
 14 15  1  0  0  0
 15 16  2  0  0  0
 16 17  1  0  0  0
 17 18  2  0  0  0
 18 19  1  0  0  0
 19 20  2  0  0  0
 20 21  1  0  0  0
 21 22  2  0  0  0
 22 23  1  0  0  0
  3  6  1  0  0  0
  6  7  2  0  0  0
  7  8  1  0  0  0
  8  9  2  0  0  0
  9 10  1  0  0  0
  9 11  1  0  0  0
 11 12  2  0  0  0
 23 15  1  0  0  0
 12  6  1  0  0  0
 23 18  1  0  0  0
  4  5  1  0  0  0
M  END
> <minimizedAffinity>
-4.49283

> <minimizedRMSD>
1.29462

$$$$
C55854-P103


 23 25  0  0  0  0  0  0  0  0999 V2000
   21.4439   -0.1888   19.2469 C   0  0  0  0  0  0  0  0  0  0  0  0
   21.0166   -2.5768   18.0590 C   0  0  0  0  0  0  0  0  0  0  0  0
   21.1223   -2.4028   16.9110 O   0  0  0  0  0  0  0  0  0  0  0  0
   21.1934   -1.6017   19.2363 N   0  0  0  0  0  0  0  0  0  0  0  0
   21.1234   -2.0145   20.1273 H   0  0  0  0  0  0  0  0  0  0  0  0
   19.3968   -7.6714   20.1193 C   0  0  0  0  0  0  0  0  0  0  0  0
   19.7221   -6.3051   19.6068 C   0  0  0  0  0  0  0  0  0  0  0  0
   19.0442   -5.7504   18.5213 C   0  0  0  0  0  0  0  0  0  0  0  0
   19.4646   -4.5289   18.0048 C   0  0  0  0  0  0  0  0  0  0  0  0
   20.5446   -3.8966   18.6011 C   0  0  0  0  0  0  0  0  0  0  0  0
   21.1876   -4.3648   19.7071 N   0  0  0  0  0  0  0  0  0  0  0  0
   20.7760   -5.5734   20.1523 C   0  0  0  0  0  0  0  0  0  0  0  0
   21.2451    0.4651   20.6174 C   0  0  0  0  0  0  0  0  0  0  0  0
   19.7880    0.8113   21.0037 C   0  0  0  0  0  0  0  0  0  0  0  0
   18.8359   -0.3003   20.7525 C   0  0  0  0  0  0  0  0  0  0  0  0
   18.0304   -0.4161   19.7131 N   0  0  0  0  0  0  0  0  0  0  0  0
   17.5118   -1.6897   19.7168 N   0  0  0  0  0  0  0  0  0  0  0  0
   17.9722   -2.3098   20.7815 C   0  0  0  0  0  0  0  0  0  0  0  0
   17.7864   -3.6221   21.2965 C   0  0  0  0  0  0  0  0  0  0  0  0
   18.3608   -3.9715   22.4642 C   0  0  0  0  0  0  0  0  0  0  0  0
   19.1522   -3.0232   23.2326 C   0  0  0  0  0  0  0  0  0  0  0  0
   19.3227   -1.7797   22.7522 C   0  0  0  0  0  0  0  0  0  0  0  0
   18.7521   -1.4393   21.5245 N   0  0  0  0  0  0  0  0  0  0  0  0
  6  7  1  0  0  0
  7  8  2  0  0  0
  8  9  1  0  0  0
  9 10  2  0  0  0
 10  2  1  0  0  0
  2  3  2  0  0  0
  2  4  1  0  0  0
  4  1  1  0  0  0
  1 13  1  0  0  0
 13 14  1  0  0  0
 14 15  1  0  0  0
 15 16  2  0  0  0
 16 17  1  0  0  0
 17 18  2  0  0  0
 18 19  1  0  0  0
 19 20  2  0  0  0
 20 21  1  0  0  0
 21 22  2  0  0  0
 22 23  1  0  0  0
 10 11  1  0  0  0
 11 12  2  0  0  0
 12  7  1  0  0  0
 23 15  1  0  0  0
 23 18  1  0  0  0
  4  5  1  0  0  0
M  END
> <minimizedAffinity>
-4.31380

> <minimizedRMSD>
0.86424

$$$$
C55855-P103


 24 26  0  0  0  0  0  0  0  0999 V2000
   20.1954   -3.0688   16.5584 O   0  0  0  0  0  0  0  0  0  0  0  0
   20.2968   -3.1805   17.7148 C   0  0  0  0  0  0  0  0  0  0  0  0
   20.8786   -2.2106   18.7672 N   0  0  0  0  0  0  0  0  0  0  0  0
   20.9209   -2.5719   19.6820 H   0  0  0  0  0  0  0  0  0  0  0  0
   19.7709   -4.4072   18.3896 C   0  0  0  0  0  0  0  0  0  0  0  0
   20.6543   -5.0118   19.2478 N   0  0  0  0  0  0  0  0  0  0  0  0
   20.2235   -6.1454   19.8376 C   0  0  0  0  0  0  0  0  0  0  0  0
   18.9604   -6.6851   19.6544 C   0  0  0  0  0  0  0  0  0  0  0  0
   18.0732   -6.0227   18.8140 C   0  0  0  0  0  0  0  0  0  0  0  0
   18.4733   -4.8620   18.1686 C   0  0  0  0  0  0  0  0  0  0  0  0
   17.5154   -4.2549   17.4192 O   0  0  0  0  0  0  0  0  0  0  0  0
   16.6686   -4.6469   17.3342 H   0  0  0  0  0  0  0  0  0  0  0  0
   21.3690   -0.8639   18.6277 C   0  0  0  0  0  0  0  0  0  0  0  0
   21.2082   -0.0024   19.8897 C   0  0  0  0  0  0  0  0  0  0  0  0
   19.7840    0.5037   20.2210 C   0  0  0  0  0  0  0  0  0  0  0  0
   18.7998   -0.5971   20.3648 C   0  0  0  0  0  0  0  0  0  0  0  0
   17.8620   -0.9182   19.4947 N   0  0  0  0  0  0  0  0  0  0  0  0
   17.3771   -2.1583   19.8345 N   0  0  0  0  0  0  0  0  0  0  0  0
   17.9814   -2.5405   20.9375 C   0  0  0  0  0  0  0  0  0  0  0  0
   17.8918   -3.7134   21.7356 C   0  0  0  0  0  0  0  0  0  0  0  0
   18.5980   -3.8004   22.8795 C   0  0  0  0  0  0  0  0  0  0  0  0
   19.4420   -2.7055   23.3326 C   0  0  0  0  0  0  0  0  0  0  0  0
   19.5327   -1.5983   22.5760 C   0  0  0  0  0  0  0  0  0  0  0  0
   18.8229   -1.5331   21.3760 N   0  0  0  0  0  0  0  0  0  0  0  0
  1  2  2  0  0  0
  2  3  1  0  0  0
  3 13  1  0  0  0
 13 14  1  0  0  0
 14 15  1  0  0  0
 15 16  1  0  0  0
 16 17  2  0  0  0
 17 18  1  0  0  0
 18 19  2  0  0  0
 19 20  1  0  0  0
 20 21  2  0  0  0
 21 22  1  0  0  0
 22 23  2  0  0  0
 23 24  1  0  0  0
  2  5  1  0  0  0
  5  6  2  0  0  0
  6  7  1  0  0  0
  7  8  2  0  0  0
  8  9  1  0  0  0
  9 10  2  0  0  0
 10 11  1  0  0  0
 24 16  1  0  0  0
 10  5  1  0  0  0
 24 19  1  0  0  0
  3  4  1  0  0  0
 11 12  1  0  0  0
M  END
> <minimizedAffinity>
-4.81125

> <minimizedRMSD>
0.78998

$$$$
C55859-P103


 25 27  0  0  0  0  0  0  0  0999 V2000
   21.0439    1.3918   19.8028 O   0  0  0  0  0  0  0  0  0  0  0  0
   21.6884    0.5779   20.2634 C   0  0  0  0  0  0  0  0  0  0  0  0
   22.1871    0.4018   21.7151 N   0  0  0  0  0  0  0  0  0  0  0  0
   22.2379   -0.7300   19.6471 N   0  0  0  0  0  0  0  0  0  0  0  0
   22.8032   -0.3539   21.8517 H   0  0  0  0  0  0  0  0  0  0  0  0
   22.8431   -1.2403   20.2324 H   0  0  0  0  0  0  0  0  0  0  0  0
   21.8965    1.1626   22.8953 C   0  0  0  0  0  0  0  0  0  0  0  0
   20.9276    0.4703   23.8683 C   0  0  0  0  0  0  0  0  0  0  0  0
   19.4235    0.6664   23.6496 C   0  0  0  0  0  0  0  0  0  0  0  0
   18.8005    0.2827   22.3438 C   0  0  0  0  0  0  0  0  0  0  0  0
   18.2631    1.1778   21.5263 N   0  0  0  0  0  0  0  0  0  0  0  0
   17.7688    0.5348   20.4260 N   0  0  0  0  0  0  0  0  0  0  0  0
   17.9959   -0.7488   20.5813 C   0  0  0  0  0  0  0  0  0  0  0  0
   17.6388   -1.8779   19.7973 C   0  0  0  0  0  0  0  0  0  0  0  0
   17.9731   -3.1170   20.1981 C   0  0  0  0  0  0  0  0  0  0  0  0
   18.6746   -3.3328   21.4451 C   0  0  0  0  0  0  0  0  0  0  0  0
   18.9734   -2.2730   22.2127 C   0  0  0  0  0  0  0  0  0  0  0  0
   18.6429   -0.9784   21.7901 N   0  0  0  0  0  0  0  0  0  0  0  0
   22.0063   -1.3210   18.3541 C   0  0  0  0  0  0  0  0  0  0  0  0
   21.4355   -2.7191   18.4676 C   0  0  0  0  0  0  0  0  0  0  0  0
   20.5735   -3.2180   17.4921 C   0  0  0  0  0  0  0  0  0  0  0  0
   20.1363   -4.5380   17.5802 C   0  0  0  0  0  0  0  0  0  0  0  0
   20.5841   -5.3340   18.6240 C   0  0  0  0  0  0  0  0  0  0  0  0
   21.4322   -4.7626   19.5583 C   0  0  0  0  0  0  0  0  0  0  0  0
   21.8511   -3.4769   19.5224 N   0  0  0  0  0  0  0  0  0  0  0  0
  1  2  2  0  0  0
  2  3  1  0  0  0
  3  7  1  0  0  0
  7  8  1  0  0  0
  8  9  1  0  0  0
  9 10  1  0  0  0
 10 11  2  0  0  0
 11 12  1  0  0  0
 12 13  2  0  0  0
 13 14  1  0  0  0
 14 15  2  0  0  0
 15 16  1  0  0  0
 16 17  2  0  0  0
 17 18  1  0  0  0
  2  4  1  0  0  0
  4 19  1  0  0  0
 19 20  1  0  0  0
 20 21  2  0  0  0
 21 22  1  0  0  0
 22 23  2  0  0  0
 23 24  1  0  0  0
 24 25  2  0  0  0
 18 10  1  0  0  0
 25 20  1  0  0  0
 18 13  1  0  0  0
  3  5  1  0  0  0
  4  6  1  0  0  0
M  END
> <minimizedAffinity>
-4.64165

> <minimizedRMSD>
1.77824

$$$$
C55877-P103


 23 25  0  0  0  0  0  0  0  0999 V2000
   22.2668    0.0283   20.0583 C   0  0  0  0  0  0  0  0  0  0  0  0
   21.5165   -2.3151   19.7393 N   0  0  0  0  0  0  0  0  0  0  0  0
   21.9481   -1.0294   18.9944 C   0  0  0  0  0  0  0  0  0  0  0  0
   21.9777   -0.7909   17.8526 O   0  0  0  0  0  0  0  0  0  0  0  0
   21.6568   -2.2938   20.7135 H   0  0  0  0  0  0  0  0  0  0  0  0
   20.7213   -6.8880   20.6117 C   0  0  0  0  0  0  0  0  0  0  0  0
   20.4758   -5.6854   19.7518 C   0  0  0  0  0  0  0  0  0  0  0  0
   19.5813   -5.7616   18.6914 C   0  0  0  0  0  0  0  0  0  0  0  0
   19.4086   -4.6436   17.8861 C   0  0  0  0  0  0  0  0  0  0  0  0
   20.1264   -3.4852   18.1611 C   0  0  0  0  0  0  0  0  0  0  0  0
   20.9681   -3.4838   19.2614 C   0  0  0  0  0  0  0  0  0  0  0  0
   21.1570   -4.5576   20.0565 N   0  0  0  0  0  0  0  0  0  0  0  0
   21.0983    1.0199   20.2249 C   0  0  0  0  0  0  0  0  0  0  0  0
   20.0200    0.7442   21.2942 C   0  0  0  0  0  0  0  0  0  0  0  0
   18.9720   -0.2022   20.8624 C   0  0  0  0  0  0  0  0  0  0  0  0
   18.1414   -0.0479   19.8506 N   0  0  0  0  0  0  0  0  0  0  0  0
   17.4587   -1.2288   19.6801 N   0  0  0  0  0  0  0  0  0  0  0  0
   17.8608   -2.0674   20.6111 C   0  0  0  0  0  0  0  0  0  0  0  0
   17.5401   -3.4199   20.9083 C   0  0  0  0  0  0  0  0  0  0  0  0
   18.1117   -4.0292   21.9652 C   0  0  0  0  0  0  0  0  0  0  0  0
   19.0432   -3.3262   22.8323 C   0  0  0  0  0  0  0  0  0  0  0  0
   19.3531   -2.0493   22.5518 C   0  0  0  0  0  0  0  0  0  0  0  0
   18.7726   -1.4364   21.4390 N   0  0  0  0  0  0  0  0  0  0  0  0
  6  7  1  0  0  0
  7  8  2  0  0  0
  8  9  1  0  0  0
  9 10  2  0  0  0
 10 11  1  0  0  0
 11  2  1  0  0  0
  2  3  1  0  0  0
  3  4  2  0  0  0
  3  1  1  0  0  0
  1 13  1  0  0  0
 13 14  1  0  0  0
 14 15  1  0  0  0
 15 16  2  0  0  0
 16 17  1  0  0  0
 17 18  2  0  0  0
 18 19  1  0  0  0
 19 20  2  0  0  0
 20 21  1  0  0  0
 21 22  2  0  0  0
 22 23  1  0  0  0
 11 12  2  0  0  0
 12  7  1  0  0  0
 23 15  1  0  0  0
 23 18  1  0  0  0
  2  5  1  0  0  0
M  END
> <minimizedAffinity>
-4.38967

> <minimizedRMSD>
1.18484

$$$$
C2394-P339


 14 14  0  0  0  0  0  0  0  0999 V2000
    8.8440   15.5877   24.2447 C   0  0  0  0  0  0  0  0  0  0  0  0
    9.4466   15.8899   25.6233 C   0  0  0  0  0  0  0  0  0  0  0  0
   10.9356   16.2535   25.5057 C   0  0  0  0  0  0  0  0  0  0  0  0
   11.4907   16.7120   26.8483 C   0  0  0  0  0  0  0  0  0  0  0  0
   10.6367   17.8228   27.4509 C   0  0  0  0  0  0  0  0  0  0  0  0
    9.2461   17.4034   27.5976 N   0  0  0  0  0  0  0  0  0  0  0  0
    8.6680   17.0369   26.3020 C   0  0  0  0  0  0  0  0  0  0  0  0
    8.7068   18.1709   27.9982 H   0  0  0  0  0  0  0  0  0  0  0  0
    9.8948   15.7451   23.3048 O   0  0  0  0  0  0  0  0  0  0  0  0
   10.1348   14.7389   22.3286 C   0  0  0  0  0  0  0  0  0  0  0  0
    9.3590   15.0185   21.0346 C   0  0  0  0  0  0  0  0  0  0  0  0
    9.7902   13.3692   22.9274 C   0  0  0  0  0  0  0  0  0  0  0  0
   12.1385   16.2755   21.7446 C   0  0  0  0  0  0  0  0  0  0  0  0
   11.6396   14.8549   21.9761 C   0  0  0  0  0  0  0  0  0  0  0  0
 13 14  1  0  0  0
 14 10  1  0  0  0
 10 11  1  0  0  0
 10 12  1  0  0  0
 10  9  1  0  0  0
  9  1  1  0  0  0
  2  1  1  0  0  0
  2  3  1  0  0  0
  3  4  1  0  0  0
  4  5  1  0  0  0
  5  6  1  0  0  0
  6  7  1  0  0  0
  7  2  1  0  0  0
  6  8  1  0  0  0
M  END
> <minimizedAffinity>
-3.79261

> <minimizedRMSD>
2.40419

$$$$
C2397-P339


 16 16  0  0  0  0  0  0  0  0999 V2000
    8.2392   13.1711   24.8769 C   0  0  0  0  0  0  0  0  0  0  0  0
    7.9027   11.8345   25.5583 C   0  0  0  0  0  0  0  0  0  0  0  0
    9.2550   13.9847   25.7349 C   0  0  0  0  0  0  0  0  0  0  0  0
   10.7221   13.5257   25.6064 C   0  0  0  0  0  0  0  0  0  0  0  0
   11.6489   14.3643   26.4897 C   0  0  0  0  0  0  0  0  0  0  0  0
   11.4392   15.8552   26.2516 C   0  0  0  0  0  0  0  0  0  0  0  0
    9.9628   16.2282   26.3436 C   0  0  0  0  0  0  0  0  0  0  0  0
    9.1775   15.4134   25.4211 N   0  0  0  0  0  0  0  0  0  0  0  0
    9.5275   15.5605   24.4744 H   0  0  0  0  0  0  0  0  0  0  0  0
    8.6681   12.9365   23.4153 C   0  0  0  0  0  0  0  0  0  0  0  0
    8.7083   14.1757   22.7019 O   0  0  0  0  0  0  0  0  0  0  0  0
    9.9735   14.4208   22.0791 C   0  0  0  0  0  0  0  0  0  0  0  0
    9.7628   15.4544   20.9806 C   0  0  0  0  0  0  0  0  0  0  0  0
   11.4702   15.2668   19.1582 C   0  0  0  0  0  0  0  0  0  0  0  0
   11.0426   16.0658   20.3928 C   0  0  0  0  0  0  0  0  0  0  0  0
   12.1939   16.1342   21.3914 C   0  0  0  0  0  0  0  0  0  0  0  0
 14 15  1  0  0  0
 15 16  1  0  0  0
 15 13  1  0  0  0
 13 12  1  0  0  0
 12 11  1  0  0  0
 11 10  1  0  0  0
 10  1  1  0  0  0
  1  2  1  0  0  0
  1  3  1  0  0  0
  3  4  1  0  0  0
  4  5  1  0  0  0
  5  6  1  0  0  0
  6  7  1  0  0  0
  7  8  1  0  0  0
  8  3  1  0  0  0
  8  9  1  0  0  0
M  END
> <minimizedAffinity>
-4.42009

> <minimizedRMSD>
2.20160

$$$$
C2399-P339


 16 16  0  0  0  0  0  0  0  0999 V2000
    8.1880   15.7659   23.3812 C   0  0  0  0  0  0  0  0  0  0  0  0
    6.9088   16.5723   23.1444 C   0  0  0  0  0  0  0  0  0  0  0  0
    7.6989   14.5462   23.8092 F   0  0  0  0  0  0  0  0  0  0  0  0
    9.1093   16.3179   24.5395 C   0  0  0  0  0  0  0  0  0  0  0  0
   10.2088   15.3148   24.9373 C   0  0  0  0  0  0  0  0  0  0  0  0
   11.1191   15.8969   26.0200 C   0  0  0  0  0  0  0  0  0  0  0  0
   10.3171   16.3414   27.2369 C   0  0  0  0  0  0  0  0  0  0  0  0
    9.3000   17.3069   26.8517 N   0  0  0  0  0  0  0  0  0  0  0  0
    8.3865   16.7703   25.8341 C   0  0  0  0  0  0  0  0  0  0  0  0
    9.7594   18.1367   26.4767 H   0  0  0  0  0  0  0  0  0  0  0  0
    8.9575   14.2393   21.5454 C   0  0  0  0  0  0  0  0  0  0  0  0
    8.9645   15.4694   22.1058 C   0  0  0  0  0  0  0  0  0  0  0  0
    9.7293   16.5880   21.4758 C   0  0  0  0  0  0  0  0  0  0  0  0
   10.9503   16.7354   22.0416 F   0  0  0  0  0  0  0  0  0  0  0  0
    9.9238   16.3712   20.1525 F   0  0  0  0  0  0  0  0  0  0  0  0
    9.0892   17.7789   21.5415 F   0  0  0  0  0  0  0  0  0  0  0  0
 11 12  2  0  0  0
 12 13  1  0  0  0
 13 14  1  0  0  0
 13 15  1  0  0  0
 13 16  1  0  0  0
 12  1  1  0  0  0
  1  2  1  0  0  0
  1  3  1  0  0  0
  1  4  1  0  0  0
  4  5  1  0  0  0
  5  6  1  0  0  0
  6  7  1  0  0  0
  7  8  1  0  0  0
  8  9  1  0  0  0
  9  4  1  0  0  0
  8 10  1  0  0  0
M  END
> <minimizedAffinity>
-4.19123

> <minimizedRMSD>
3.38393

$$$$
C2410-P339


 15 15  0  0  0  0  0  0  0  0999 V2000
   10.8332   13.7875   22.8639 C   0  0  0  0  0  0  0  0  0  0  0  0
    9.6295   13.4043   22.3536 F   0  0  0  0  0  0  0  0  0  0  0  0
   10.6333   14.3696   24.2904 C   0  0  0  0  0  0  0  0  0  0  0  0
   11.3372   15.7301   24.4336 C   0  0  0  0  0  0  0  0  0  0  0  0
   11.1802   16.2975   25.8408 C   0  0  0  0  0  0  0  0  0  0  0  0
    9.7114   16.3372   26.2389 C   0  0  0  0  0  0  0  0  0  0  0  0
    9.0467   14.9786   26.0475 C   0  0  0  0  0  0  0  0  0  0  0  0
    9.2201   14.4875   24.6795 N   0  0  0  0  0  0  0  0  0  0  0  0
    8.7591   15.1349   24.0402 H   0  0  0  0  0  0  0  0  0  0  0  0
   11.5738   14.6577   21.8380 C   0  0  0  0  0  0  0  0  0  0  0  0
   10.7252   15.2169   20.6873 C   0  0  0  0  0  0  0  0  0  0  0  0
    9.0943   16.8821   21.7761 C   0  0  0  0  0  0  0  0  0  0  0  0
   10.2981   16.6687   20.8849 C   0  0  0  0  0  0  0  0  0  0  0  0
   10.0306   17.2114   19.6668 F   0  0  0  0  0  0  0  0  0  0  0  0
   11.3445   17.3683   21.3984 F   0  0  0  0  0  0  0  0  0  0  0  0
 12 13  1  0  0  0
 13 14  1  0  0  0
 13 15  1  0  0  0
 13 11  1  0  0  0
 11 10  1  0  0  0
 10  1  1  0  0  0
  1  2  1  0  0  0
  1  3  1  0  0  0
  3  4  1  0  0  0
  4  5  1  0  0  0
  5  6  1  0  0  0
  6  7  1  0  0  0
  7  8  1  0  0  0
  8  3  1  0  0  0
  8  9  1  0  0  0
M  END
> <minimizedAffinity>
-4.30690

> <minimizedRMSD>
3.55697

$$$$
C2413-P339


 16 16  0  0  0  0  0  0  0  0999 V2000
    8.5863   14.9608   23.0381 C   0  0  0  0  0  0  0  0  0  0  0  0
    7.3187   14.8062   22.1963 C   0  0  0  0  0  0  0  0  0  0  0  0
    8.7106   13.7397   23.6578 F   0  0  0  0  0  0  0  0  0  0  0  0
    8.4744   16.0809   24.1623 C   0  0  0  0  0  0  0  0  0  0  0  0
    9.3435   15.7950   25.3979 C   0  0  0  0  0  0  0  0  0  0  0  0
    9.3214   16.9813   26.3685 C   0  0  0  0  0  0  0  0  0  0  0  0
    7.8937   17.3685   26.7373 C   0  0  0  0  0  0  0  0  0  0  0  0
    7.0191   17.5215   25.4997 C   0  0  0  0  0  0  0  0  0  0  0  0
    7.0989   16.3314   24.6520 N   0  0  0  0  0  0  0  0  0  0  0  0
    6.4830   16.4589   23.8489 H   0  0  0  0  0  0  0  0  0  0  0  0
   10.8860   14.2856   22.3037 C   0  0  0  0  0  0  0  0  0  0  0  0
    9.8462   15.1423   22.2039 C   0  0  0  0  0  0  0  0  0  0  0  0
    9.8976   16.3343   21.3013 C   0  0  0  0  0  0  0  0  0  0  0  0
   11.1002   16.9561   21.3651 F   0  0  0  0  0  0  0  0  0  0  0  0
    9.6918   15.9858   20.0082 F   0  0  0  0  0  0  0  0  0  0  0  0
    8.9482   17.2599   21.5757 F   0  0  0  0  0  0  0  0  0  0  0  0
 11 12  2  0  0  0
 12 13  1  0  0  0
 13 14  1  0  0  0
 13 15  1  0  0  0
 13 16  1  0  0  0
 12  1  1  0  0  0
  1  2  1  0  0  0
  1  3  1  0  0  0
  1  4  1  0  0  0
  4  5  1  0  0  0
  5  6  1  0  0  0
  6  7  1  0  0  0
  7  8  1  0  0  0
  8  9  1  0  0  0
  9  4  1  0  0  0
  9 10  1  0  0  0
M  END
> <minimizedAffinity>
-4.04028

> <minimizedRMSD>
3.09858

$$$$
C2416-P339


 14 14  0  0  0  0  0  0  0  0999 V2000
    8.3530   13.3613   25.9088 C   0  0  0  0  0  0  0  0  0  0  0  0
    7.5370   12.9078   26.7229 O   0  0  0  0  0  0  0  0  0  0  0  0
    8.6834   14.8640   25.8713 C   0  0  0  0  0  0  0  0  0  0  0  0
    9.3561   15.3103   27.1689 C   0  0  0  0  0  0  0  0  0  0  0  0
    9.6819   16.8000   27.1001 C   0  0  0  0  0  0  0  0  0  0  0  0
    8.4383   17.6079   26.7366 C   0  0  0  0  0  0  0  0  0  0  0  0
    7.7331   17.0567   25.4973 C   0  0  0  0  0  0  0  0  0  0  0  0
    7.4519   15.6241   25.6094 N   0  0  0  0  0  0  0  0  0  0  0  0
    7.0369   15.2964   24.7372 H   0  0  0  0  0  0  0  0  0  0  0  0
    9.0833   12.4520   24.8840 C   0  0  0  0  0  0  0  0  0  0  0  0
    8.5844   11.0057   25.0957 C   0  0  0  0  0  0  0  0  0  0  0  0
   10.5973   12.4390   25.1527 C   0  0  0  0  0  0  0  0  0  0  0  0
    9.7509   13.6832   22.6555 C   0  0  0  0  0  0  0  0  0  0  0  0
    8.7095   12.8930   23.4419 C   0  0  0  0  0  0  0  0  0  0  0  0
 13 14  1  0  0  0
 14 10  1  0  0  0
 10 11  1  0  0  0
 10 12  1  0  0  0
 10  1  1  0  0  0
  1  2  2  0  0  0
  3  1  1  0  0  0
  3  4  1  0  0  0
  4  5  1  0  0  0
  5  6  1  0  0  0
  6  7  1  0  0  0
  7  8  1  0  0  0
  8  3  1  0  0  0
  8  9  1  0  0  0
M  END
> <minimizedAffinity>
-3.00546

> <minimizedRMSD>
0.88112

$$$$
C7674-P77


 15 16  0  0  0  0  0  0  0  0999 V2000
    8.1784   15.0891   25.0892 C   0  0  0  0  0  0  0  0  0  0  0  0
    6.8969   15.3174   24.3047 C   0  0  0  0  0  0  0  0  0  0  0  0
    5.5379   15.7575   22.0733 N   0  0  0  0  0  0  0  0  0  0  0  0
    6.9836   15.0595   22.5414 S   0  0  0  0  0  0  0  0  0  0  0  0
    8.0263   15.8707   21.9670 O   0  0  0  0  0  0  0  0  0  0  0  0
    6.8710   13.6484   22.2501 O   0  0  0  0  0  0  0  0  0  0  0  0
    5.4386   15.6872   21.0606 H   0  0  0  0  0  0  0  0  0  0  0  0
    5.5297   16.7396   22.3484 H   0  0  0  0  0  0  0  0  0  0  0  0
    9.3119   14.2665   24.4740 C   0  0  0  0  0  0  0  0  0  0  0  0
    9.3489   12.8484   24.7318 N   0  0  0  0  0  0  0  0  0  0  0  0
    9.5380   11.9923   23.5605 C   0  0  0  0  0  0  0  0  0  0  0  0
    9.1514   10.5947   24.0515 C   0  0  0  0  0  0  0  0  0  0  0  0
    8.2259   10.8110   25.2155 C   0  0  0  0  0  0  0  0  0  0  0  0
    7.0765   11.7711   25.1888 C   0  0  0  0  0  0  0  0  0  0  0  0
    8.3910   12.2363   25.6413 C   0  0  0  0  0  0  0  0  0  0  0  0
  3  4  1  0  0  0
  4  5  2  0  0  0
  4  6  2  0  0  0
  4  2  1  0  0  0
  2  1  1  0  0  0
  1  9  1  0  0  0
  9 10  1  0  0  0
 10 11  1  0  0  0
 11 12  1  0  0  0
 13 12  1  0  0  0
 13 14  1  0  0  0
 15 14  1  0  0  0
 15 10  1  0  0  0
 15 13  1  0  0  0
  3  7  1  0  0  0
  3  8  1  0  0  0
M  END
> <minimizedAffinity>
-3.31237

> <minimizedRMSD>
0.39912

$$$$
C5400-P106


 11 12  0  0  0  0  0  0  0  0999 V2000
   10.1372   12.2946   24.3491 C   0  0  0  0  0  0  0  0  0  0  0  0
   10.1391   11.0287   23.4993 C   0  0  0  0  0  0  0  0  0  0  0  0
    9.2114   10.0852   24.2265 C   0  0  0  0  0  0  0  0  0  0  0  0
    8.1609   10.9507   24.7244 N   0  0  0  0  0  0  0  0  0  0  0  0
    8.7763   12.2369   25.0780 C   0  0  0  0  0  0  0  0  0  0  0  0
    7.7280   10.5338   25.5485 H   0  0  0  0  0  0  0  0  0  0  0  0
   10.4538   15.0271   21.9038 C   0  0  0  0  0  0  0  0  0  0  0  0
   11.7396   14.7489   22.1312 C   0  0  0  0  0  0  0  0  0  0  0  0
   11.8444   13.6100   23.0853 C   0  0  0  0  0  0  0  0  0  0  0  0
   10.5126   13.5416   23.6946 N   0  0  0  0  0  0  0  0  0  0  0  0
    9.5819   14.1363   22.7256 C   0  0  0  0  0  0  0  0  0  0  0  0
  7  8  2  0  0  0
  8  9  1  0  0  0
  9 10  1  0  0  0
  1 10  1  0  0  0
  1  2  1  0  0  0
  2  3  1  0  0  0
  3  4  1  0  0  0
  4  5  1  0  0  0
 10 11  1  0  0  0
 11  7  1  0  0  0
  5  1  1  0  0  0
  4  6  1  0  0  0
M  END
> <minimizedAffinity>
-4.98257

> <minimizedRMSD>
0.59566

$$$$
C8137-P187


 20 20  0  0  0  0  0  0  0  0999 V2000
    8.3325   14.2506   23.6610 N   0  0  0  0  0  0  0  0  0  0  0  0
    8.7254   13.6295   22.9538 H   0  0  0  0  0  0  0  0  0  0  0  0
    8.7970   15.7963   23.2246 S   0  0  0  0  0  0  0  0  0  0  0  0
    8.3989   15.9010   21.8453 O   0  0  0  0  0  0  0  0  0  0  0  0
    8.3230   16.7128   24.2299 O   0  0  0  0  0  0  0  0  0  0  0  0
   10.4624   15.6670   23.3343 N   0  0  0  0  0  0  0  0  0  0  0  0
   11.1409   15.9717   24.5866 C   0  0  0  0  0  0  0  0  0  0  0  0
   11.2601   14.9318   22.3333 C   0  0  0  0  0  0  0  0  0  0  0  0
   11.9778   15.8883   21.3794 C   0  0  0  0  0  0  0  0  0  0  0  0
   10.6524   16.0222   19.2132 C   0  0  0  0  0  0  0  0  0  0  0  0
   11.8339   15.4110   19.9363 C   0  0  0  0  0  0  0  0  0  0  0  0
    8.6666   13.6486   24.9577 C   0  0  0  0  0  0  0  0  0  0  0  0
    7.7862   14.1481   26.1114 C   0  0  0  0  0  0  0  0  0  0  0  0
    8.6426   12.1011   24.8704 C   0  0  0  0  0  0  0  0  0  0  0  0
    7.2848   11.4541   25.1408 C   0  0  0  0  0  0  0  0  0  0  0  0
    7.4115    9.9420   25.2434 C   0  0  0  0  0  0  0  0  0  0  0  0
    8.1469    9.3088   24.1643 N   0  0  0  0  0  0  0  0  0  0  0  0
    9.3691    9.9815   23.7401 C   0  0  0  0  0  0  0  0  0  0  0  0
    9.2628   11.4989   23.6151 C   0  0  0  0  0  0  0  0  0  0  0  0
    7.5267    9.2505   23.3567 H   0  0  0  0  0  0  0  0  0  0  0  0
 10 11  1  0  0  0
 11  9  1  0  0  0
  9  8  1  0  0  0
  8  6  1  0  0  0
  6  7  1  0  0  0
  6  3  1  0  0  0
  3  4  2  0  0  0
  3  5  2  0  0  0
  3  1  1  0  0  0
  1 12  1  0  0  0
 12 13  1  0  0  0
 12 14  1  0  0  0
 14 15  1  0  0  0
 15 16  1  0  0  0
 16 17  1  0  0  0
 17 18  1  0  0  0
 18 19  1  0  0  0
 19 14  1  0  0  0
  1  2  1  0  0  0
 17 20  1  0  0  0
M  END
> <minimizedAffinity>
-5.78819

> <minimizedRMSD>
0.84176

$$$$
C13035-P120


 19 20  0  0  0  0  0  0  0  0999 V2000
    5.1957    9.9884   28.7734 C   0  0  0  0  0  0  0  0  0  0  0  0
    5.9140   10.5532   29.5024 O   0  0  0  0  0  0  0  0  0  0  0  0
    5.1326    9.9886   27.2240 N   0  0  0  0  0  0  0  0  0  0  0  0
    4.4777    9.3632   26.8379 H   0  0  0  0  0  0  0  0  0  0  0  0
    5.8364   10.7139   26.3102 C   0  0  0  0  0  0  0  0  0  0  0  0
    6.6491   10.1461   25.2923 C   0  0  0  0  0  0  0  0  0  0  0  0
    7.3681   11.2012   24.8173 C   0  0  0  0  0  0  0  0  0  0  0  0
    6.8088   12.2985   25.3663 N   0  0  0  0  0  0  0  0  0  0  0  0
    5.9717   12.0480   26.3649 N   0  0  0  0  0  0  0  0  0  0  0  0
    7.4551   13.5453   25.0222 C   0  0  0  0  0  0  0  0  0  0  0  0
    8.6956   13.0683   24.2419 C   0  0  0  0  0  0  0  0  0  0  0  0
    8.5450   11.5254   24.0105 C   0  0  0  0  0  0  0  0  0  0  0  0
    4.1139    9.0550   29.3098 C   0  0  0  0  0  0  0  0  0  0  0  0
    2.5421    9.3837   31.3022 C   0  0  0  0  0  0  0  0  0  0  0  0
    2.9532    9.8609   29.9034 C   0  0  0  0  0  0  0  0  0  0  0  0
    1.7354    9.8123   29.0010 C   0  0  0  0  0  0  0  0  0  0  0  0
    0.5960   10.0818   29.6713 F   0  0  0  0  0  0  0  0  0  0  0  0
    1.5942    8.6036   28.4157 F   0  0  0  0  0  0  0  0  0  0  0  0
    1.8588   10.7204   28.0078 F   0  0  0  0  0  0  0  0  0  0  0  0
 15 14  1  0  0  0
 15 13  1  0  0  0
 13  1  1  0  0  0
  1  2  2  0  0  0
  1  3  1  0  0  0
  3  5  1  0  0  0
  5  6  1  0  0  0
  6  7  2  0  0  0
  7  8  1  0  0  0
  8  9  1  0  0  0
  8 10  1  0  0  0
 10 11  1  0  0  0
 11 12  1  0  0  0
 15 16  1  0  0  0
 16 17  1  0  0  0
 16 18  1  0  0  0
 16 19  1  0  0  0
  9  5  2  0  0  0
 12  7  1  0  0  0
  3  4  1  0  0  0
M  END
> <minimizedAffinity>
-5.17024

> <minimizedRMSD>
1.54187

$$$$
C2376-P328


 15 15  0  0  0  0  0  0  0  0999 V2000
    9.7530   13.2088   24.5453 C   0  0  0  0  0  0  0  0  0  0  0  0
   10.1113   13.9583   25.8417 C   0  0  0  0  0  0  0  0  0  0  0  0
   10.7777   12.3103   24.3583 F   0  0  0  0  0  0  0  0  0  0  0  0
    8.4558   12.3641   24.6755 C   0  0  0  0  0  0  0  0  0  0  0  0
    7.4940   12.8275   25.7822 C   0  0  0  0  0  0  0  0  0  0  0  0
    6.2840   11.9091   25.9318 C   0  0  0  0  0  0  0  0  0  0  0  0
    6.6437   10.4961   26.0052 N   0  0  0  0  0  0  0  0  0  0  0  0
    7.4806   10.0873   24.8809 C   0  0  0  0  0  0  0  0  0  0  0  0
    8.7706   10.8780   24.8311 C   0  0  0  0  0  0  0  0  0  0  0  0
    5.7899    9.9380   26.0006 H   0  0  0  0  0  0  0  0  0  0  0  0
    9.7566   14.1927   23.3247 C   0  0  0  0  0  0  0  0  0  0  0  0
    8.6911   13.9267   22.2476 C   0  0  0  0  0  0  0  0  0  0  0  0
   11.1021   14.2275   22.5716 C   0  0  0  0  0  0  0  0  0  0  0  0
   12.2147   16.1430   21.4602 C   0  0  0  0  0  0  0  0  0  0  0  0
   11.9676   15.4595   22.7917 C   0  0  0  0  0  0  0  0  0  0  0  0
 14 15  1  0  0  0
 15 13  1  0  0  0
 13 11  1  0  0  0
 11 12  1  0  0  0
 11  1  1  0  0  0
  1  2  1  0  0  0
  1  3  1  0  0  0
  1  4  1  0  0  0
  4  5  1  0  0  0
  5  6  1  0  0  0
  6  7  1  0  0  0
  7  8  1  0  0  0
  8  9  1  0  0  0
  9  4  1  0  0  0
  7 10  1  0  0  0
M  END
> <minimizedAffinity>
-4.75387

> <minimizedRMSD>
1.07694

$$$$
C2382-P328


 15 15  0  0  0  0  0  0  0  0999 V2000
    9.1235   13.9734   23.3889 C   0  0  0  0  0  0  0  0  0  0  0  0
    7.8306   13.8156   22.5640 C   0  0  0  0  0  0  0  0  0  0  0  0
   10.1961   13.0361   22.8510 C   0  0  0  0  0  0  0  0  0  0  0  0
    9.5695   15.3999   23.3550 N   0  0  0  0  0  0  0  0  0  0  0  0
   10.9991   15.6499   23.5870 C   0  0  0  0  0  0  0  0  0  0  0  0
   11.8923   15.6124   22.3448 C   0  0  0  0  0  0  0  0  0  0  0  0
   11.3629   16.4745   21.2145 C   0  0  0  0  0  0  0  0  0  0  0  0
    9.8957   16.1830   20.9452 C   0  0  0  0  0  0  0  0  0  0  0  0
    9.0890   16.2478   22.2419 C   0  0  0  0  0  0  0  0  0  0  0  0
    8.8554   13.5116   24.8809 C   0  0  0  0  0  0  0  0  0  0  0  0
    9.6881   13.5953   25.7964 O   0  0  0  0  0  0  0  0  0  0  0  0
    7.5178   12.8777   25.2465 C   0  0  0  0  0  0  0  0  0  0  0  0
    6.4719   10.8089   26.0965 C   0  0  0  0  0  0  0  0  0  0  0  0
    7.2877   11.3920   24.9443 C   0  0  0  0  0  0  0  0  0  0  0  0
    8.5314   10.5415   24.7545 C   0  0  0  0  0  0  0  0  0  0  0  0
 13 14  1  0  0  0
 14 15  1  0  0  0
 14 12  1  0  0  0
 12 10  1  0  0  0
 10 11  2  0  0  0
 10  1  1  0  0  0
  1  2  1  0  0  0
  1  3  1  0  0  0
  1  4  1  0  0  0
  4  5  1  0  0  0
  5  6  1  0  0  0
  6  7  1  0  0  0
  7  8  1  0  0  0
  8  9  1  0  0  0
  9  4  1  0  0  0
M  END
> <minimizedAffinity>
-4.90332

> <minimizedRMSD>
0.46528

$$$$
C2399-P328


 16 16  0  0  0  0  0  0  0  0999 V2000
    9.1766   12.8960   23.9891 C   0  0  0  0  0  0  0  0  0  0  0  0
    9.7949   13.7135   25.1409 C   0  0  0  0  0  0  0  0  0  0  0  0
   10.1730   12.0152   23.6334 F   0  0  0  0  0  0  0  0  0  0  0  0
    7.9509   12.0282   24.4390 C   0  0  0  0  0  0  0  0  0  0  0  0
    7.2167   12.5670   25.6796 C   0  0  0  0  0  0  0  0  0  0  0  0
    6.0498   11.6803   26.0878 C   0  0  0  0  0  0  0  0  0  0  0  0
    6.3965   10.1985   26.0567 C   0  0  0  0  0  0  0  0  0  0  0  0
    7.1116    9.7677   24.8693 N   0  0  0  0  0  0  0  0  0  0  0  0
    8.3147   10.5539   24.6142 C   0  0  0  0  0  0  0  0  0  0  0  0
    6.4897    9.8544   24.0655 H   0  0  0  0  0  0  0  0  0  0  0  0
    7.6697   14.0107   22.2140 C   0  0  0  0  0  0  0  0  0  0  0  0
    8.8764   13.7896   22.7825 C   0  0  0  0  0  0  0  0  0  0  0  0
   10.0813   14.4896   22.2170 C   0  0  0  0  0  0  0  0  0  0  0  0
   11.2349   13.7952   22.3495 F   0  0  0  0  0  0  0  0  0  0  0  0
    9.9385   14.7896   20.9013 F   0  0  0  0  0  0  0  0  0  0  0  0
   10.2814   15.6693   22.8635 F   0  0  0  0  0  0  0  0  0  0  0  0
 11 12  2  0  0  0
 12 13  1  0  0  0
 13 14  1  0  0  0
 13 15  1  0  0  0
 13 16  1  0  0  0
 12  1  1  0  0  0
  1  2  1  0  0  0
  1  3  1  0  0  0
  1  4  1  0  0  0
  4  5  1  0  0  0
  5  6  1  0  0  0
  6  7  1  0  0  0
  7  8  1  0  0  0
  8  9  1  0  0  0
  9  4  1  0  0  0
  8 10  1  0  0  0
M  END
> <minimizedAffinity>
-4.80741

> <minimizedRMSD>
0.94435

$$$$
C2413-P328


 16 16  0  0  0  0  0  0  0  0999 V2000
    9.2967   13.2293   24.0388 C   0  0  0  0  0  0  0  0  0  0  0  0
    9.8684   14.1351   25.1422 C   0  0  0  0  0  0  0  0  0  0  0  0
   10.3192   12.3509   23.7357 F   0  0  0  0  0  0  0  0  0  0  0  0
    8.1133   12.3348   24.5518 C   0  0  0  0  0  0  0  0  0  0  0  0
    7.2868   12.9545   25.6899 C   0  0  0  0  0  0  0  0  0  0  0  0
    6.1069   12.0776   26.1032 C   0  0  0  0  0  0  0  0  0  0  0  0
    6.4274   10.5863   26.1226 C   0  0  0  0  0  0  0  0  0  0  0  0
    7.3663   10.1331   25.0145 C   0  0  0  0  0  0  0  0  0  0  0  0
    8.5464   10.9892   24.9739 N   0  0  0  0  0  0  0  0  0  0  0  0
    9.2223   10.6170   24.3067 H   0  0  0  0  0  0  0  0  0  0  0  0
    7.7438   14.0943   22.1723 C   0  0  0  0  0  0  0  0  0  0  0  0
    8.9575   13.9961   22.7605 C   0  0  0  0  0  0  0  0  0  0  0  0
   10.1378   14.6815   22.1361 C   0  0  0  0  0  0  0  0  0  0  0  0
   11.3077   14.0249   22.3121 F   0  0  0  0  0  0  0  0  0  0  0  0
    9.9811   14.8669   20.8009 F   0  0  0  0  0  0  0  0  0  0  0  0
   10.3108   15.9111   22.6863 F   0  0  0  0  0  0  0  0  0  0  0  0
 11 12  2  0  0  0
 12 13  1  0  0  0
 13 14  1  0  0  0
 13 15  1  0  0  0
 13 16  1  0  0  0
 12  1  1  0  0  0
  1  2  1  0  0  0
  1  3  1  0  0  0
  1  4  1  0  0  0
  4  5  1  0  0  0
  5  6  1  0  0  0
  6  7  1  0  0  0
  7  8  1  0  0  0
  8  9  1  0  0  0
  9  4  1  0  0  0
  9 10  1  0  0  0
M  END
> <minimizedAffinity>
-4.70483

> <minimizedRMSD>
0.88815

$$$$
C6118-P124


 13 15  0  0  0  0  0  0  0  0999 V2000
   11.0955    9.9100   22.8450 C   0  0  0  0  0  0  0  0  0  0  0  0
    9.9789    9.2372   23.3447 C   0  0  0  0  0  0  0  0  0  0  0  0
    9.0869    9.8737   24.2181 C   0  0  0  0  0  0  0  0  0  0  0  0
    9.3043   11.1834   24.5784 C   0  0  0  0  0  0  0  0  0  0  0  0
   10.4331   11.8340   24.0792 C   0  0  0  0  0  0  0  0  0  0  0  0
   11.3339   11.2256   23.2183 C   0  0  0  0  0  0  0  0  0  0  0  0
   10.5094   13.1880   24.6647 C   0  0  0  0  0  0  0  0  0  0  0  0
    9.1103   13.3346   25.2379 C   0  0  0  0  0  0  0  0  0  0  0  0
    8.5304   11.9892   25.4659 N   0  0  0  0  0  0  0  0  0  0  0  0
    7.0962   11.9786   25.5814 C   0  0  0  0  0  0  0  0  0  0  0  0
    6.5796   13.1616   26.4543 C   0  0  0  0  0  0  0  0  0  0  0  0
    5.5027   12.2038   26.9788 C   0  0  0  0  0  0  0  0  0  0  0  0
    6.4808   11.0565   26.6537 C   0  0  0  0  0  0  0  0  0  0  0  0
  1  2  2  0  0  0
  2  3  1  0  0  0
  3  4  2  0  0  0
  4  5  1  0  0  0
  5  6  2  0  0  0
  5  7  1  0  0  0
  7  8  1  0  0  0
  8  9  1  0  0  0
  9 10  1  0  0  0
 10 11  1  0  0  0
 11 12  1  0  0  0
 12 13  1  0  0  0
  6  1  1  0  0  0
 13 10  1  0  0  0
  9  4  1  0  0  0
M  END
> <minimizedAffinity>
-5.12199

> <minimizedRMSD>
0.45648

$$$$
C37857-P128


 18 18  0  0  0  0  0  0  0  0999 V2000
    9.5381   14.2712   24.7610 N   0  0  0  0  0  0  0  0  0  0  0  0
    8.1581   13.5809   24.5132 C   0  0  0  0  0  0  0  0  0  0  0  0
    7.3281   13.8086   23.7190 O   0  0  0  0  0  0  0  0  0  0  0  0
   10.0285   13.9420   25.5486 H   0  0  0  0  0  0  0  0  0  0  0  0
    8.0663   12.3833   25.4737 C   0  0  0  0  0  0  0  0  0  0  0  0
    6.7802   12.1834   25.8814 F   0  0  0  0  0  0  0  0  0  0  0  0
    8.5945   11.1715   24.8261 N   0  0  0  0  0  0  0  0  0  0  0  0
    9.7147   11.0378   24.0378 C   0  0  0  0  0  0  0  0  0  0  0  0
    9.6548    9.7803   23.4891 C   0  0  0  0  0  0  0  0  0  0  0  0
    8.5287    9.1933   24.0838 C   0  0  0  0  0  0  0  0  0  0  0  0
    7.9729    9.9783   25.0102 N   0  0  0  0  0  0  0  0  0  0  0  0
   10.2090   15.3117   24.0233 C   0  0  0  0  0  0  0  0  0  0  0  0
   12.0811   13.7316   24.3013 C   0  0  0  0  0  0  0  0  0  0  0  0
   11.5579   14.8751   23.4701 C   0  0  0  0  0  0  0  0  0  0  0  0
   11.5015   14.5230   21.9825 C   0  0  0  0  0  0  0  0  0  0  0  0
   12.2399   15.4883   21.0743 C   0  0  0  0  0  0  0  0  0  0  0  0
   11.9841   13.2819   21.7900 F   0  0  0  0  0  0  0  0  0  0  0  0
   10.2169   14.4138   21.5751 F   0  0  0  0  0  0  0  0  0  0  0  0
 14 13  1  0  0  0
 14 12  1  0  0  0
 12  1  1  0  0  0
  1  2  1  0  0  0
  2  3  2  0  0  0
  2  5  1  0  0  0
  5  6  1  0  0  0
  5  7  1  0  0  0
  7  8  1  0  0  0
  8  9  2  0  0  0
  9 10  1  0  0  0
 10 11  2  0  0  0
 14 15  1  0  0  0
 15 16  1  0  0  0
 15 17  1  0  0  0
 15 18  1  0  0  0
 11  7  1  0  0  0
  1  4  1  0  0  0
M  END
> <minimizedAffinity>
-5.06777

> <minimizedRMSD>
2.26908

$$$$
C6791-P439


 12 13  0  0  0  0  0  0  0  0999 V2000
    9.3090   10.2680   23.9133 C   0  0  0  0  0  0  0  0  0  0  0  0
    9.5889   11.5589   23.5174 C   0  0  0  0  0  0  0  0  0  0  0  0
    8.8717   12.5802   24.1057 C   0  0  0  0  0  0  0  0  0  0  0  0
    7.9164   12.3080   25.0089 N   0  0  0  0  0  0  0  0  0  0  0  0
    7.7203   11.0199   25.3289 C   0  0  0  0  0  0  0  0  0  0  0  0
    8.3780    9.9685   24.8286 N   0  0  0  0  0  0  0  0  0  0  0  0
    9.1636   13.9145   23.8905 N   0  0  0  0  0  0  0  0  0  0  0  0
   10.4411   14.3682   24.4429 C   0  0  0  0  0  0  0  0  0  0  0  0
   11.5837   14.3045   23.4333 C   0  0  0  0  0  0  0  0  0  0  0  0
   11.2808   15.4040   22.0333 S   0  0  0  0  0  0  0  0  0  0  0  0
    9.6618   14.7374   21.5499 C   0  0  0  0  0  0  0  0  0  0  0  0
    8.6570   14.6176   22.7015 C   0  0  0  0  0  0  0  0  0  0  0  0
  1  2  2  0  0  0
  2  3  1  0  0  0
  3  7  1  0  0  0
  7  8  1  0  0  0
  8  9  1  0  0  0
  9 10  1  0  0  0
 10 11  1  0  0  0
 11 12  1  0  0  0
  3  4  2  0  0  0
  4  5  1  0  0  0
  5  6  2  0  0  0
  6  1  1  0  0  0
 12  7  1  0  0  0
M  END
> <minimizedAffinity>
-4.78356

> <minimizedRMSD>
0.25325

$$$$
C4581-P20


 18 19  0  0  0  0  0  0  0  0999 V2000
   13.8003   23.0730   23.5785 N   0  0  0  0  0  0  0  0  0  0  0  0
   14.5399   23.1135   24.2270 H   0  0  0  0  0  0  0  0  0  0  0  0
   15.0059   23.7010   18.0873 C   0  0  0  0  0  0  0  0  0  0  0  0
   14.7085   23.4996   19.4956 N   0  0  0  0  0  0  0  0  0  0  0  0
   13.8579   24.3814   20.1290 C   0  0  0  0  0  0  0  0  0  0  0  0
   13.5668   24.2525   21.4287 C   0  0  0  0  0  0  0  0  0  0  0  0
   14.1305   23.1812   22.2283 C   0  0  0  0  0  0  0  0  0  0  0  0
   15.0129   22.3577   21.6329 C   0  0  0  0  0  0  0  0  0  0  0  0
   15.3500   22.4757   20.1872 C   0  0  0  0  0  0  0  0  0  0  0  0
   16.1445   21.6878   19.6810 O   0  0  0  0  0  0  0  0  0  0  0  0
   12.4303   22.9020   24.1226 C   0  0  0  0  0  0  0  0  0  0  0  0
   11.9212   24.2101   24.7346 C   0  0  0  0  0  0  0  0  0  0  0  0
   10.3982   24.3277   24.7392 C   0  0  0  0  0  0  0  0  0  0  0  0
    9.6185   23.1024   25.2069 C   0  0  0  0  0  0  0  0  0  0  0  0
   10.2788   22.3242   26.3304 C   0  0  0  0  0  0  0  0  0  0  0  0
   11.2318   21.3478   25.8491 N   0  0  0  0  0  0  0  0  0  0  0  0
   12.4632   21.7970   25.2208 C   0  0  0  0  0  0  0  0  0  0  0  0
   10.7439   20.7695   25.1651 H   0  0  0  0  0  0  0  0  0  0  0  0
  3  4  1  0  0  0
  4  5  1  0  0  0
  5  6  2  0  0  0
  6  7  1  0  0  0
  7  1  1  0  0  0
 11  1  1  0  0  0
 11 12  1  0  0  0
 12 13  1  0  0  0
 13 14  1  0  0  0
 14 15  1  0  0  0
 15 16  1  0  0  0
 16 17  1  0  0  0
  7  8  2  0  0  0
  8  9  1  0  0  0
  9 10  2  0  0  0
  9  4  1  0  0  0
 17 11  1  0  0  0
  1  2  1  0  0  0
 16 18  1  0  0  0
M  END
> <minimizedAffinity>
-3.72723

> <minimizedRMSD>
1.11978

$$$$
C4584-P20


 19 20  0  0  0  0  0  0  0  0999 V2000
   12.5048   23.1227   24.1976 C   0  0  0  0  0  0  0  0  0  0  0  0
   12.2459   24.3698   23.7763 C   0  0  0  0  0  0  0  0  0  0  0  0
   10.9763   25.0057   23.9993 C   0  0  0  0  0  0  0  0  0  0  0  0
   10.0375   24.3780   24.7114 C   0  0  0  0  0  0  0  0  0  0  0  0
   10.2529   23.1079   25.2068 N   0  0  0  0  0  0  0  0  0  0  0  0
   11.4091   22.3737   24.9155 C   0  0  0  0  0  0  0  0  0  0  0  0
   11.5647   21.2002   25.2343 O   0  0  0  0  0  0  0  0  0  0  0  0
   13.7667   22.5914   23.9617 O   0  0  0  0  0  0  0  0  0  0  0  0
   14.7424   22.7155   24.9997 C   0  0  0  0  0  0  0  0  0  0  0  0
   16.0676   24.3319   23.5342 C   0  0  0  0  0  0  0  0  0  0  0  0
   15.8618   23.6745   24.6840 C   0  0  0  0  0  0  0  0  0  0  0  0
    9.2772   22.5265   26.1264 C   0  0  0  0  0  0  0  0  0  0  0  0
    9.6145   22.8046   27.6057 C   0  0  0  0  0  0  0  0  0  0  0  0
    8.4745   23.5245   28.3430 C   0  0  0  0  0  0  0  0  0  0  0  0
    8.7726   23.6676   29.8341 C   0  0  0  0  0  0  0  0  0  0  0  0
    9.0405   22.3700   30.4529 N   0  0  0  0  0  0  0  0  0  0  0  0
   10.1874   21.7175   29.8215 C   0  0  0  0  0  0  0  0  0  0  0  0
    9.9459   21.4918   28.3316 C   0  0  0  0  0  0  0  0  0  0  0  0
    8.2188   21.7746   30.3493 H   0  0  0  0  0  0  0  0  0  0  0  0
 10 11  2  0  0  0
 11  9  1  0  0  0
  9  8  1  0  0  0
  8  1  1  0  0  0
  1  2  2  0  0  0
  2  3  1  0  0  0
  3  4  2  0  0  0
  4  5  1  0  0  0
  5 12  1  0  0  0
 12 13  1  0  0  0
 13 14  1  0  0  0
 14 15  1  0  0  0
 15 16  1  0  0  0
 16 17  1  0  0  0
 17 18  1  0  0  0
  5  6  1  0  0  0
  6  7  2  0  0  0
  6  1  1  0  0  0
 18 13  1  0  0  0
 16 19  1  0  0  0
M  END
> <minimizedAffinity>
-2.70444

> <minimizedRMSD>
1.88920

$$$$
C8131-P308


 15 15  0  0  0  0  0  0  0  0999 V2000
    8.1812   13.8999   24.2165 C   0  0  0  0  0  0  0  0  0  0  0  0
    7.4992   15.0131   24.7937 O   0  0  0  0  0  0  0  0  0  0  0  0
    6.5433   14.9084   24.6658 H   0  0  0  0  0  0  0  0  0  0  0  0
    7.7921   12.6301   24.9765 C   0  0  0  0  0  0  0  0  0  0  0  0
    8.0982   11.3443   24.2127 C   0  0  0  0  0  0  0  0  0  0  0  0
    7.7422   10.1272   25.0488 C   0  0  0  0  0  0  0  0  0  0  0  0
    6.4023   10.1431   25.6129 N   0  0  0  0  0  0  0  0  0  0  0  0
    6.0682   11.3701   26.3181 C   0  0  0  0  0  0  0  0  0  0  0  0
    6.3552   12.6273   25.5062 C   0  0  0  0  0  0  0  0  0  0  0  0
    6.3215    9.3653   26.2679 H   0  0  0  0  0  0  0  0  0  0  0  0
    7.9729   13.9025   22.6920 C   0  0  0  0  0  0  0  0  0  0  0  0
    6.8768   13.6811   22.1688 O   0  0  0  0  0  0  0  0  0  0  0  0
    9.1629   14.3062   21.8433 C   0  0  0  0  0  0  0  0  0  0  0  0
   11.5145   14.1020   23.0836 C   0  0  0  0  0  0  0  0  0  0  0  0
   10.4459   14.1873   22.5453 C   0  0  0  0  0  0  0  0  0  0  0  0
 14 15  3  0  0  0
 15 13  1  0  0  0
 13 11  1  0  0  0
 11 12  2  0  0  0
 11  1  1  0  0  0
  1  2  1  0  0  0
  1  4  1  0  0  0
  4  5  1  0  0  0
  5  6  1  0  0  0
  6  7  1  0  0  0
  7  8  1  0  0  0
  8  9  1  0  0  0
  9  4  1  0  0  0
  2  3  1  0  0  0
  7 10  1  0  0  0
M  END
> <minimizedAffinity>
-3.82427

> <minimizedRMSD>
0.70626

$$$$
C8152-P308


 15 15  0  0  0  0  0  0  0  0999 V2000
    9.2602   12.7384   24.3233 C   0  0  0  0  0  0  0  0  0  0  0  0
    9.7987   13.0936   25.6081 O   0  0  0  0  0  0  0  0  0  0  0  0
    9.1292   13.5773   26.1168 H   0  0  0  0  0  0  0  0  0  0  0  0
    8.0546   11.8113   24.4992 C   0  0  0  0  0  0  0  0  0  0  0  0
    6.9896   12.2324   24.9497 O   0  0  0  0  0  0  0  0  0  0  0  0
    8.1885   10.5063   24.1546 O   0  0  0  0  0  0  0  0  0  0  0  0
    9.2736    8.4544   23.5547 C   0  0  0  0  0  0  0  0  0  0  0  0
    9.4809    9.8890   23.9998 C   0  0  0  0  0  0  0  0  0  0  0  0
    8.8906   14.0431   23.5865 C   0  0  0  0  0  0  0  0  0  0  0  0
    9.9171   14.5330   22.6414 N   0  0  0  0  0  0  0  0  0  0  0  0
   10.8448   15.5120   23.2263 C   0  0  0  0  0  0  0  0  0  0  0  0
   11.9595   15.7941   22.2235 C   0  0  0  0  0  0  0  0  0  0  0  0
   11.4048   16.4151   20.9512 C   0  0  0  0  0  0  0  0  0  0  0  0
   10.3026   15.5329   20.3806 C   0  0  0  0  0  0  0  0  0  0  0  0
    9.2772   15.1293   21.4456 C   0  0  0  0  0  0  0  0  0  0  0  0
  7  8  1  0  0  0
  8  6  1  0  0  0
  6  4  1  0  0  0
  4  5  2  0  0  0
  4  1  1  0  0  0
  1  2  1  0  0  0
  1  9  1  0  0  0
  9 10  1  0  0  0
 10 11  1  0  0  0
 11 12  1  0  0  0
 12 13  1  0  0  0
 13 14  1  0  0  0
 14 15  1  0  0  0
 15 10  1  0  0  0
  2  3  1  0  0  0
M  END
> <minimizedAffinity>
-4.72687

> <minimizedRMSD>
0.86820

$$$$
C8163-P308


 17 17  0  0  0  0  0  0  0  0999 V2000
    8.8591   13.7528   22.8774 S   0  0  0  0  0  0  0  0  0  0  0  0
    7.5186   13.6172   22.3500 O   0  0  0  0  0  0  0  0  0  0  0  0
    9.8991   12.7864   22.6099 O   0  0  0  0  0  0  0  0  0  0  0  0
    9.3723   15.2813   22.4594 N   0  0  0  0  0  0  0  0  0  0  0  0
    9.3089   15.3398   21.4431 H   0  0  0  0  0  0  0  0  0  0  0  0
   10.7140   15.7586   22.8213 C   0  0  0  0  0  0  0  0  0  0  0  0
   11.6795   15.7078   21.6448 C   0  0  0  0  0  0  0  0  0  0  0  0
   10.4903   16.0025   19.2796 C   0  0  0  0  0  0  0  0  0  0  0  0
   10.9725   15.8713   20.3704 C   0  0  0  0  0  0  0  0  0  0  0  0
    8.7331   13.9425   24.6190 C   0  0  0  0  0  0  0  0  0  0  0  0
    7.9136   12.8827   25.3249 C   0  0  0  0  0  0  0  0  0  0  0  0
    6.5661   13.4174   25.7945 C   0  0  0  0  0  0  0  0  0  0  0  0
    5.9327   12.4094   26.7393 C   0  0  0  0  0  0  0  0  0  0  0  0
    5.9392   11.0002   26.1624 C   0  0  0  0  0  0  0  0  0  0  0  0
    7.2061   10.5641   25.5959 N   0  0  0  0  0  0  0  0  0  0  0  0
    7.7905   11.5159   24.6624 C   0  0  0  0  0  0  0  0  0  0  0  0
    7.0524    9.6840   25.1039 H   0  0  0  0  0  0  0  0  0  0  0  0
  8  9  3  0  0  0
  9  7  1  0  0  0
  7  6  1  0  0  0
  6  4  1  0  0  0
  4  1  1  0  0  0
  1  2  2  0  0  0
  1  3  2  0  0  0
  1 10  1  0  0  0
 11 10  1  0  0  0
 11 12  1  0  0  0
 12 13  1  0  0  0
 13 14  1  0  0  0
 14 15  1  0  0  0
 15 16  1  0  0  0
 16 11  1  0  0  0
  4  5  1  0  0  0
 15 17  1  0  0  0
M  END
> <minimizedAffinity>
-4.52727

> <minimizedRMSD>
0.83322

$$$$
C8173-P308


 19 19  0  0  0  0  0  0  0  0999 V2000
    7.4027   13.4020   22.6714 O   0  0  0  0  0  0  0  0  0  0  0  0
    8.1549   14.0006   23.3347 C   0  0  0  0  0  0  0  0  0  0  0  0
    8.9524   15.3015   23.0308 N   0  0  0  0  0  0  0  0  0  0  0  0
    9.4695   15.6551   23.7903 H   0  0  0  0  0  0  0  0  0  0  0  0
    8.6462   13.5559   24.7256 C   0  0  0  0  0  0  0  0  0  0  0  0
    8.6361   14.5931   25.6157 F   0  0  0  0  0  0  0  0  0  0  0  0
    7.9572   12.3631   25.3757 C   0  0  0  0  0  0  0  0  0  0  0  0
    8.0405   11.0875   24.5389 C   0  0  0  0  0  0  0  0  0  0  0  0
    7.3342    9.9368   25.2324 C   0  0  0  0  0  0  0  0  0  0  0  0
    5.9820   10.2359   25.6659 N   0  0  0  0  0  0  0  0  0  0  0  0
    5.8812   11.4456   26.4730 C   0  0  0  0  0  0  0  0  0  0  0  0
    6.5194   12.6586   25.8007 C   0  0  0  0  0  0  0  0  0  0  0  0
    5.6395    9.4501   26.2188 H   0  0  0  0  0  0  0  0  0  0  0  0
    9.0568   16.0730   21.8173 C   0  0  0  0  0  0  0  0  0  0  0  0
    9.6928   15.2218   20.7338 C   0  0  0  0  0  0  0  0  0  0  0  0
   10.2880   16.0692   19.6430 C   0  0  0  0  0  0  0  0  0  0  0  0
    9.7150   15.8539   18.4518 F   0  0  0  0  0  0  0  0  0  0  0  0
   10.1811   17.3794   19.9347 F   0  0  0  0  0  0  0  0  0  0  0  0
   11.5950   15.7682   19.4952 F   0  0  0  0  0  0  0  0  0  0  0  0
  1  2  2  0  0  0
  2  3  1  0  0  0
  3 14  1  0  0  0
 14 15  1  0  0  0
 15 16  1  0  0  0
 16 17  1  0  0  0
 16 18  1  0  0  0
 16 19  1  0  0  0
  2  5  1  0  0  0
  5  6  1  0  0  0
  5  7  1  0  0  0
  7  8  1  0  0  0
  8  9  1  0  0  0
  9 10  1  0  0  0
 10 11  1  0  0  0
 11 12  1  0  0  0
 12  7  1  0  0  0
  3  4  1  0  0  0
 10 13  1  0  0  0
M  END
> <minimizedAffinity>
-5.35957

> <minimizedRMSD>
0.81828

$$$$
C727-P310


 12 13  0  0  0  0  0  0  0  0999 V2000
    7.7842   12.0640   25.2167 C   0  0  0  0  0  0  0  0  0  0  0  0
    8.3064   13.0713   24.4135 C   0  0  0  0  0  0  0  0  0  0  0  0
    9.2887   12.7453   23.4859 C   0  0  0  0  0  0  0  0  0  0  0  0
    9.6731   11.4037   23.3981 C   0  0  0  0  0  0  0  0  0  0  0  0
    9.0961   10.4636   24.2374 C   0  0  0  0  0  0  0  0  0  0  0  0
    8.1699   10.7683   25.1686 N   0  0  0  0  0  0  0  0  0  0  0  0
    9.9294   13.6807   22.6668 N   0  0  0  0  0  0  0  0  0  0  0  0
   10.9140   14.4892   23.4007 C   0  0  0  0  0  0  0  0  0  0  0  0
   11.8724   15.1323   22.4043 C   0  0  0  0  0  0  0  0  0  0  0  0
   11.1308   15.9493   21.3533 C   0  0  0  0  0  0  0  0  0  0  0  0
   10.0341   15.1172   20.6910 C   0  0  0  0  0  0  0  0  0  0  0  0
    9.1126   14.4713   21.7323 C   0  0  0  0  0  0  0  0  0  0  0  0
  1  2  2  0  0  0
  2  3  1  0  0  0
  3  7  1  0  0  0
  7  8  1  0  0  0
  8  9  1  0  0  0
  9 10  1  0  0  0
 10 11  1  0  0  0
 11 12  1  0  0  0
  3  4  2  0  0  0
  4  5  1  0  0  0
  5  6  2  0  0  0
  6  1  1  0  0  0
 12  7  1  0  0  0
M  END
> <minimizedAffinity>
-5.02538

> <minimizedRMSD>
0.55793

$$$$
C2414-P197


 16 16  0  0  0  0  0  0  0  0999 V2000
    8.6957   15.4707   23.6836 C   0  0  0  0  0  0  0  0  0  0  0  0
    7.3645   15.5920   22.9073 C   0  0  0  0  0  0  0  0  0  0  0  0
    9.8380   15.4971   22.6971 N   0  0  0  0  0  0  0  0  0  0  0  0
   11.1820   15.5170   23.3173 C   0  0  0  0  0  0  0  0  0  0  0  0
   12.3133   15.4482   22.2856 C   0  0  0  0  0  0  0  0  0  0  0  0
   12.2156   16.5589   21.2549 C   0  0  0  0  0  0  0  0  0  0  0  0
   10.8251   16.5673   20.6479 C   0  0  0  0  0  0  0  0  0  0  0  0
    9.7540   16.6289   21.7373 C   0  0  0  0  0  0  0  0  0  0  0  0
    8.6943   14.1030   24.4684 C   0  0  0  0  0  0  0  0  0  0  0  0
    8.7091   14.0443   25.7082 O   0  0  0  0  0  0  0  0  0  0  0  0
    8.6009   12.7900   23.7235 C   0  0  0  0  0  0  0  0  0  0  0  0
    9.9031   12.0084   23.7407 C   0  0  0  0  0  0  0  0  0  0  0  0
    9.3564    9.4020   23.6467 C   0  0  0  0  0  0  0  0  0  0  0  0
    9.5757   10.5772   23.7484 C   0  0  0  0  0  0  0  0  0  0  0  0
    8.7277   16.5531   24.8135 C   0  0  0  0  0  0  0  0  0  0  0  0
    7.5780   17.5514   24.8535 C   0  0  0  0  0  0  0  0  0  0  0  0
 13 14  3  0  0  0
 14 12  1  0  0  0
 12 11  1  0  0  0
 11  9  1  0  0  0
  9 10  2  0  0  0
  9  1  1  0  0  0
  1  2  1  0  0  0
  1 15  1  0  0  0
 15 16  1  0  0  0
  1  3  1  0  0  0
  3  4  1  0  0  0
  4  5  1  0  0  0
  5  6  1  0  0  0
  6  7  1  0  0  0
  7  8  1  0  0  0
  8  3  1  0  0  0
M  END
> <minimizedAffinity>
-5.03040

> <minimizedRMSD>
1.59166

$$$$
C2408-P323


 15 15  0  0  0  0  0  0  0  0999 V2000
    8.3012   14.7407   23.1359 C   0  0  0  0  0  0  0  0  0  0  0  0
    7.2932   13.9464   22.2859 C   0  0  0  0  0  0  0  0  0  0  0  0
    7.6521   16.1382   23.3460 C   0  0  0  0  0  0  0  0  0  0  0  0
    9.6360   14.8082   22.4579 N   0  0  0  0  0  0  0  0  0  0  0  0
   10.6638   15.4868   23.2720 C   0  0  0  0  0  0  0  0  0  0  0  0
   12.0369   15.4029   22.6183 C   0  0  0  0  0  0  0  0  0  0  0  0
   12.0345   16.0354   21.2393 C   0  0  0  0  0  0  0  0  0  0  0  0
   10.9439   15.4044   20.3930 C   0  0  0  0  0  0  0  0  0  0  0  0
    9.5909   15.4239   21.1087 C   0  0  0  0  0  0  0  0  0  0  0  0
    8.4756   14.1213   24.5723 C   0  0  0  0  0  0  0  0  0  0  0  0
    8.4393   14.8466   25.5820 O   0  0  0  0  0  0  0  0  0  0  0  0
    8.6771   12.6286   24.8260 C   0  0  0  0  0  0  0  0  0  0  0  0
    7.4036   11.9556   25.2955 C   0  0  0  0  0  0  0  0  0  0  0  0
    9.2806   10.3877   23.7451 C   0  0  0  0  0  0  0  0  0  0  0  0
    9.4593   11.8977   23.7447 C   0  0  0  0  0  0  0  0  0  0  0  0
 14 15  1  0  0  0
 15 12  1  0  0  0
 12 13  1  0  0  0
 12 10  1  0  0  0
 10 11  2  0  0  0
 10  1  1  0  0  0
  1  2  1  0  0  0
  1  3  1  0  0  0
  1  4  1  0  0  0
  4  5  1  0  0  0
  5  6  1  0  0  0
  6  7  1  0  0  0
  7  8  1  0  0  0
  8  9  1  0  0  0
  9  4  1  0  0  0
M  END
> <minimizedAffinity>
-5.08102

> <minimizedRMSD>
0.72941

$$$$
C9370-P564


 15 15  0  0  0  0  0  0  0  0999 V2000
    9.1658   13.9050   23.9845 S   0  0  0  0  0  0  0  0  0  0  0  0
    7.9947   14.8691   23.9729 N   0  0  0  0  0  0  0  0  0  0  0  0
   10.1629   13.7536   25.0205 O   0  0  0  0  0  0  0  0  0  0  0  0
    8.0564   15.4595   23.1422 H   0  0  0  0  0  0  0  0  0  0  0  0
    8.4359   12.4019   23.8408 N   0  0  0  0  0  0  0  0  0  0  0  0
    7.2211   12.1010   24.5921 C   0  0  0  0  0  0  0  0  0  0  0  0
    7.3095   10.6497   25.0182 C   0  0  0  0  0  0  0  0  0  0  0  0
    8.3339   10.0394   24.0932 C   0  0  0  0  0  0  0  0  0  0  0  0
    9.2360   11.1967   23.7249 C   0  0  0  0  0  0  0  0  0  0  0  0
   10.0381   14.2239   22.5471 N   0  0  0  0  0  0  0  0  0  0  0  0
   11.4961   14.1382   22.5994 C   0  0  0  0  0  0  0  0  0  0  0  0
   12.1968   15.4824   22.5368 C   0  0  0  0  0  0  0  0  0  0  0  0
    9.7696   15.5409   21.9601 O   0  0  0  0  0  0  0  0  0  0  0  0
   10.0429   15.9431   19.5743 C   0  0  0  0  0  0  0  0  0  0  0  0
    9.1873   15.3470   20.6772 C   0  0  0  0  0  0  0  0  0  0  0  0
 14 15  1  0  0  0
 15 13  1  0  0  0
 13 10  1  0  0  0
 10 11  1  0  0  0
 11 12  1  0  0  0
  1 10  1  0  0  0
  1  2  2  0  0  0
  1  3  2  0  0  0
  1  5  1  0  0  0
  5  6  1  0  0  0
  6  7  1  0  0  0
  7  8  1  0  0  0
  8  9  1  0  0  0
  9  5  1  0  0  0
  2  4  1  0  0  0
M  END
> <minimizedAffinity>
-5.24639

> <minimizedRMSD>
0.44826

$$$$
C9388-P77


 18 18  0  0  0  0  0  0  0  0999 V2000
    9.5093   14.0653   24.1663 N   0  0  0  0  0  0  0  0  0  0  0  0
    9.6571   14.5745   25.0377 H   0  0  0  0  0  0  0  0  0  0  0  0
    7.8792   13.9681   24.0124 S   0  0  0  0  0  0  0  0  0  0  0  0
    7.4763   13.2555   22.8304 O   0  0  0  0  0  0  0  0  0  0  0  0
    7.3481   15.2460   24.4137 O   0  0  0  0  0  0  0  0  0  0  0  0
    7.7270   12.9277   25.3298 N   0  0  0  0  0  0  0  0  0  0  0  0
    6.4146   12.9588   25.9789 C   0  0  0  0  0  0  0  0  0  0  0  0
    6.3570   11.6540   26.7384 C   0  0  0  0  0  0  0  0  0  0  0  0
    7.2065   10.6774   25.9542 C   0  0  0  0  0  0  0  0  0  0  0  0
    8.0917   11.5146   25.0636 C   0  0  0  0  0  0  0  0  0  0  0  0
   11.3700   13.4756   22.9072 C   0  0  0  0  0  0  0  0  0  0  0  0
   10.4591   14.6466   23.2340 C   0  0  0  0  0  0  0  0  0  0  0  0
    9.9016   15.2995   21.9703 C   0  0  0  0  0  0  0  0  0  0  0  0
   11.0342   15.4895   20.9527 C   0  0  0  0  0  0  0  0  0  0  0  0
   10.6506   15.3770   19.5047 C   0  0  0  0  0  0  0  0  0  0  0  0
    9.7213   14.4190   19.3581 F   0  0  0  0  0  0  0  0  0  0  0  0
   10.2177   16.5531   19.0313 F   0  0  0  0  0  0  0  0  0  0  0  0
   11.7121   14.9627   18.7873 F   0  0  0  0  0  0  0  0  0  0  0  0
 12 11  1  0  0  0
 12 13  1  0  0  0
 13 14  1  0  0  0
 14 15  1  0  0  0
 15 16  1  0  0  0
 15 17  1  0  0  0
 15 18  1  0  0  0
 12  1  1  0  0  0
  1  3  1  0  0  0
  3  4  2  0  0  0
  3  5  2  0  0  0
  3  6  1  0  0  0
  6  7  1  0  0  0
  7  8  1  0  0  0
  8  9  1  0  0  0
  9 10  1  0  0  0
 10  6  1  0  0  0
  1  2  1  0  0  0
M  END
> <minimizedAffinity>
-5.17951

> <minimizedRMSD>
1.18192

$$$$
C18204-P412


 14 14  0  0  0  0  0  0  0  0999 V2000
    7.9814   13.5536   23.0803 C   0  0  0  0  0  0  0  0  0  0  0  0
    6.9253   13.2716   22.5101 O   0  0  0  0  0  0  0  0  0  0  0  0
    9.1510   12.5850   23.1328 C   0  0  0  0  0  0  0  0  0  0  0  0
    7.9664   11.7834   25.2235 C   0  0  0  0  0  0  0  0  0  0  0  0
    9.2473   11.7420   24.4089 C   0  0  0  0  0  0  0  0  0  0  0  0
   10.4186   12.3499   25.1668 C   0  0  0  0  0  0  0  0  0  0  0  0
    9.4881   10.2586   24.1270 C   0  0  0  0  0  0  0  0  0  0  0  0
    8.1241   14.9482   23.6421 C   0  0  0  0  0  0  0  0  0  0  0  0
    8.4179   16.0706   22.6648 C   0  0  0  0  0  0  0  0  0  0  0  0
    9.7670   16.1312   22.1429 N   0  0  0  0  0  0  0  0  0  0  0  0
   10.9497   16.1845   22.8230 C   0  0  0  0  0  0  0  0  0  0  0  0
   11.9363   16.0818   21.8692 C   0  0  0  0  0  0  0  0  0  0  0  0
   11.2504   16.0206   20.6443 C   0  0  0  0  0  0  0  0  0  0  0  0
    9.9258   16.0337   20.8133 N   0  0  0  0  0  0  0  0  0  0  0  0
  4  5  1  0  0  0
  5  6  1  0  0  0
  5  7  1  0  0  0
  5  3  1  0  0  0
  3  1  1  0  0  0
  1  2  2  0  0  0
  1  8  1  0  0  0
  8  9  1  0  0  0
  9 10  1  0  0  0
 10 11  1  0  0  0
 11 12  2  0  0  0
 12 13  1  0  0  0
 13 14  2  0  0  0
 14 10  1  0  0  0
M  END
> <minimizedAffinity>
-4.94246

> <minimizedRMSD>
1.65020

$$$$
C8155-P328


 17 17  0  0  0  0  0  0  0  0999 V2000
    8.5734   14.4223   22.4340 S   0  0  0  0  0  0  0  0  0  0  0  0
    7.4089   14.6481   21.6107 O   0  0  0  0  0  0  0  0  0  0  0  0
    9.4116   13.2526   22.3106 O   0  0  0  0  0  0  0  0  0  0  0  0
    9.4989   15.8084   22.4921 N   0  0  0  0  0  0  0  0  0  0  0  0
   10.6479   15.8455   23.4074 C   0  0  0  0  0  0  0  0  0  0  0  0
   11.8951   15.3217   22.7082 C   0  0  0  0  0  0  0  0  0  0  0  0
   12.1768   16.0933   21.4224 C   0  0  0  0  0  0  0  0  0  0  0  0
   10.9572   16.0677   20.5071 C   0  0  0  0  0  0  0  0  0  0  0  0
    9.7179   16.5687   21.2360 C   0  0  0  0  0  0  0  0  0  0  0  0
    8.0596   14.4101   24.0291 N   0  0  0  0  0  0  0  0  0  0  0  0
    8.7775   13.9598   24.5968 H   0  0  0  0  0  0  0  0  0  0  0  0
    6.7966   13.6969   24.2261 C   0  0  0  0  0  0  0  0  0  0  0  0
    7.0196   11.8813   25.9663 C   0  0  0  0  0  0  0  0  0  0  0  0
    6.8007   13.1529   25.6090 C   0  0  0  0  0  0  0  0  0  0  0  0
    9.8616   10.9554   24.6661 C   0  0  0  0  0  0  0  0  0  0  0  0
    8.4928   10.3876   24.5706 C   0  0  0  0  0  0  0  0  0  0  0  0
    7.3280   10.7615   25.1168 C   0  0  0  0  0  0  0  0  0  0  0  0
 15 16  1  0  0  0
 16 17  2  0  0  0
 17 13  1  0  0  0
 13 14  2  0  0  0
 14 12  1  0  0  0
 12 10  1  0  0  0
 10  1  1  0  0  0
  1  2  2  0  0  0
  1  3  2  0  0  0
  1  4  1  0  0  0
  4  5  1  0  0  0
  5  6  1  0  0  0
  6  7  1  0  0  0
  7  8  1  0  0  0
  8  9  1  0  0  0
  9  4  1  0  0  0
 10 11  1  0  0  0
M  END
> <minimizedAffinity>
-5.21807

> <minimizedRMSD>
1.25502

$$$$
C4703-P122


 11 11  0  0  0  0  0  0  0  0999 V2000
   12.2568   12.7744   22.9557 C   0  0  0  0  0  0  0  0  0  0  0  0
   11.4293   12.2727   23.8764 C   0  0  0  0  0  0  0  0  0  0  0  0
   10.9148   13.0686   25.0388 C   0  0  0  0  0  0  0  0  0  0  0  0
    9.4182   12.8304   25.2711 C   0  0  0  0  0  0  0  0  0  0  0  0
    9.0448   11.3914   25.3987 N   0  0  0  0  0  0  0  0  0  0  0  0
    9.5295   10.6904   24.1848 C   0  0  0  0  0  0  0  0  0  0  0  0
   11.0041   10.8463   23.8225 C   0  0  0  0  0  0  0  0  0  0  0  0
    7.5605   11.2756   25.5319 C   0  0  0  0  0  0  0  0  0  0  0  0
    6.9964   11.0879   26.9296 C   0  0  0  0  0  0  0  0  0  0  0  0
    6.8912   12.5599   25.1194 C   0  0  0  0  0  0  0  0  0  0  0  0
    5.8244   12.9360   25.6010 O   0  0  0  0  0  0  0  0  0  0  0  0
  1  2  2  0  0  0
  2  3  1  0  0  0
  3  4  1  0  0  0
  4  5  1  0  0  0
  5  8  1  0  0  0
  8  9  1  0  0  0
  8 10  1  0  0  0
 10 11  2  0  0  0
  5  6  1  0  0  0
  6  7  1  0  0  0
  7  2  1  0  0  0
M  END
> <minimizedAffinity>
-4.38677

> <minimizedRMSD>
1.33563

$$$$
C11373-P9


 20 22  0  0  0  0  0  0  0  0999 V2000
   19.1255   13.7321    1.4289 N   0  0  0  0  0  0  0  0  0  0  0  0
   18.4717   12.5564    1.6073 N   0  0  0  0  0  0  0  0  0  0  0  0
   17.4266   12.8918    2.3663 C   0  0  0  0  0  0  0  0  0  0  0  0
   17.3877   14.2693    2.6674 C   0  0  0  0  0  0  0  0  0  0  0  0
   16.5440   15.1181    3.4024 C   0  0  0  0  0  0  0  0  0  0  0  0
   16.8495   16.4849    3.4673 C   0  0  0  0  0  0  0  0  0  0  0  0
   17.9730   17.0032    2.8195 C   0  0  0  0  0  0  0  0  0  0  0  0
   18.8238   16.1684    2.0889 C   0  0  0  0  0  0  0  0  0  0  0  0
   18.5035   14.8027    2.0310 C   0  0  0  0  0  0  0  0  0  0  0  0
   18.2216   18.3696    2.9211 N   0  0  0  0  0  0  0  0  0  0  0  0
   18.9966   19.1769    3.9994 C   0  0  0  0  0  0  0  0  0  0  0  0
   19.6113   18.8094    4.9272 O   0  0  0  0  0  0  0  0  0  0  0  0
   17.8452   18.9125    2.1911 H   0  0  0  0  0  0  0  0  0  0  0  0
   18.8775   20.7027    3.6610 C   0  0  0  0  0  0  0  0  0  0  0  0
   18.8455   21.6790    4.8801 C   0  0  0  0  0  0  0  0  0  0  0  0
   19.8438   22.5508    4.0986 C   0  0  0  0  0  0  0  0  0  0  0  0
   20.1956   23.7075    4.1769 O   0  0  0  0  0  0  0  0  0  0  0  0
   20.1786   21.3922    3.1429 C   0  0  0  0  0  0  0  0  0  0  0  0
   20.3266   12.9896   -0.5978 C   0  0  0  0  0  0  0  0  0  0  0  0
   20.3847   13.7625    0.7046 C   0  0  0  0  0  0  0  0  0  0  0  0
 19 20  1  0  0  0
 20  1  1  0  0  0
  1  2  1  0  0  0
  2  3  2  0  0  0
  3  4  1  0  0  0
  4  5  2  0  0  0
  5  6  1  0  0  0
  6  7  2  0  0  0
  7 10  1  0  0  0
 10 11  1  0  0  0
 11 12  2  0  0  0
 11 14  1  0  0  0
 14 15  1  0  0  0
 15 16  1  0  0  0
 16 17  2  0  0  0
 16 18  1  0  0  0
  7  8  1  0  0  0
  8  9  2  0  0  0
  9  1  1  0  0  0
  9  4  1  0  0  0
 18 14  1  0  0  0
 10 13  1  0  0  0
M  END
> <minimizedAffinity>
-3.07510

> <minimizedRMSD>
3.24442

$$$$
C4790-P187


 11 12  0  0  0  0  0  0  0  0999 V2000
    8.6636   11.1352   24.4418 C   0  0  0  0  0  0  0  0  0  0  0  0
    7.5482   10.5663   25.0851 C   0  0  0  0  0  0  0  0  0  0  0  0
    7.4191    9.2659   24.8319 N   0  0  0  0  0  0  0  0  0  0  0  0
    8.4604    8.9903   24.0215 N   0  0  0  0  0  0  0  0  0  0  0  0
    9.2360   10.0877   23.7581 C   0  0  0  0  0  0  0  0  0  0  0  0
    8.6441    8.0943   23.6572 H   0  0  0  0  0  0  0  0  0  0  0  0
   10.2726   12.9982   24.0899 C   0  0  0  0  0  0  0  0  0  0  0  0
    9.1028   12.4777   24.4781 C   0  0  0  0  0  0  0  0  0  0  0  0
    8.1840   13.5204   25.0389 C   0  0  0  0  0  0  0  0  0  0  0  0
    8.8650   14.8221   24.6097 C   0  0  0  0  0  0  0  0  0  0  0  0
   10.3245   14.4700   24.3265 C   0  0  0  0  0  0  0  0  0  0  0  0
  7  8  2  0  0  0
  8  1  1  0  0  0
  1  2  1  0  0  0
  2  3  2  0  0  0
  3  4  1  0  0  0
  4  5  1  0  0  0
  8  9  1  0  0  0
  9 10  1  0  0  0
 10 11  1  0  0  0
 11  7  1  0  0  0
  5  1  2  0  0  0
  4  6  1  0  0  0
M  END
> <minimizedAffinity>
-4.72539

> <minimizedRMSD>
1.86969

$$$$
C18177-P364


 12 12  0  0  0  0  0  0  0  0999 V2000
    9.6012   13.4833   24.9784 C   0  0  0  0  0  0  0  0  0  0  0  0
   10.2891   13.7627   26.0465 N   0  0  0  0  0  0  0  0  0  0  0  0
    9.2135   12.1005   24.8418 C   0  0  0  0  0  0  0  0  0  0  0  0
    8.0405   11.4916   25.3120 C   0  0  0  0  0  0  0  0  0  0  0  0
    7.9806   10.1955   25.0081 N   0  0  0  0  0  0  0  0  0  0  0  0
    9.1253    9.9595   24.3434 N   0  0  0  0  0  0  0  0  0  0  0  0
    9.9049   11.0774   24.2271 C   0  0  0  0  0  0  0  0  0  0  0  0
    9.3748    9.0791   23.9803 H   0  0  0  0  0  0  0  0  0  0  0  0
   10.1533   14.4303   22.7172 C   0  0  0  0  0  0  0  0  0  0  0  0
    9.2107   14.4780   23.8994 C   0  0  0  0  0  0  0  0  0  0  0  0
   10.6822   15.1054   26.0336 O   0  0  0  0  0  0  0  0  0  0  0  0
   11.8718   15.2508   26.7901 C   0  0  0  0  0  0  0  0  0  0  0  0
  9 10  1  0  0  0
 10  1  1  0  0  0
  1  2  2  0  0  0
  2 11  1  0  0  0
 11 12  1  0  0  0
  1  3  1  0  0  0
  3  4  1  0  0  0
  4  5  2  0  0  0
  5  6  1  0  0  0
  6  7  1  0  0  0
  7  3  2  0  0  0
  6  8  1  0  0  0
M  END
> <minimizedAffinity>
-3.45767

> <minimizedRMSD>
2.15384

$$$$
C8146-P93


 20 20  0  0  0  0  0  0  0  0999 V2000
    7.5094   15.0600   24.0607 N   0  0  0  0  0  0  0  0  0  0  0  0
    6.7067   14.6869   24.5675 H   0  0  0  0  0  0  0  0  0  0  0  0
    7.1352   14.9050   22.4343 S   0  0  0  0  0  0  0  0  0  0  0  0
    6.8302   13.5246   22.1584 O   0  0  0  0  0  0  0  0  0  0  0  0
    6.1324   15.9212   22.2372 O   0  0  0  0  0  0  0  0  0  0  0  0
    8.5759   15.3467   21.6968 N   0  0  0  0  0  0  0  0  0  0  0  0
    8.8059   16.7550   21.4250 C   0  0  0  0  0  0  0  0  0  0  0  0
    9.2924   17.1645   20.0555 C   0  0  0  0  0  0  0  0  0  0  0  0
    9.6527   14.3879   21.3411 C   0  0  0  0  0  0  0  0  0  0  0  0
   11.6679   14.5537   22.9231 C   0  0  0  0  0  0  0  0  0  0  0  0
   11.1101   14.8307   21.5481 C   0  0  0  0  0  0  0  0  0  0  0  0
    8.6924   14.4554   24.6841 C   0  0  0  0  0  0  0  0  0  0  0  0
    8.7844   14.9789   26.1210 C   0  0  0  0  0  0  0  0  0  0  0  0
    8.6727   12.9285   24.5791 C   0  0  0  0  0  0  0  0  0  0  0  0
    7.4066   12.2691   25.1506 C   0  0  0  0  0  0  0  0  0  0  0  0
    7.6466   10.8023   25.4814 C   0  0  0  0  0  0  0  0  0  0  0  0
    8.5552   10.1573   24.5602 N   0  0  0  0  0  0  0  0  0  0  0  0
    9.8778   10.7734   24.5576 C   0  0  0  0  0  0  0  0  0  0  0  0
    9.9076   12.2086   25.1076 C   0  0  0  0  0  0  0  0  0  0  0  0
    8.1647   10.2167   23.6198 H   0  0  0  0  0  0  0  0  0  0  0  0
 10 11  1  0  0  0
 11  9  1  0  0  0
  9  6  1  0  0  0
  6  7  1  0  0  0
  7  8  1  0  0  0
  6  3  1  0  0  0
  3  4  2  0  0  0
  3  5  2  0  0  0
  3  1  1  0  0  0
  1 12  1  0  0  0
 12 13  1  0  0  0
 12 14  1  0  0  0
 14 15  1  0  0  0
 15 16  1  0  0  0
 16 17  1  0  0  0
 17 18  1  0  0  0
 18 19  1  0  0  0
 19 14  1  0  0  0
  1  2  1  0  0  0
 17 20  1  0  0  0
M  END
> <minimizedAffinity>
-4.74932

> <minimizedRMSD>
0.41740

$$$$
C8169-P93


 15 15  0  0  0  0  0  0  0  0999 V2000
    7.3514   13.4357   22.4041 O   0  0  0  0  0  0  0  0  0  0  0  0
    8.6564   13.5718   23.0003 S   0  0  0  0  0  0  0  0  0  0  0  0
    9.7353   12.6920   22.6487 O   0  0  0  0  0  0  0  0  0  0  0  0
    9.2482   15.1238   22.8670 N   0  0  0  0  0  0  0  0  0  0  0  0
   10.7090   15.2397   23.1398 C   0  0  0  0  0  0  0  0  0  0  0  0
   11.5916   14.7742   21.9838 C   0  0  0  0  0  0  0  0  0  0  0  0
   11.1888   15.4236   20.6737 C   0  0  0  0  0  0  0  0  0  0  0  0
    9.7007   15.2740   20.4049 C   0  0  0  0  0  0  0  0  0  0  0  0
    8.8748   15.7893   21.5776 C   0  0  0  0  0  0  0  0  0  0  0  0
    8.3882   13.4734   24.6636 N   0  0  0  0  0  0  0  0  0  0  0  0
    7.6831   14.1663   24.9148 H   0  0  0  0  0  0  0  0  0  0  0  0
    7.9191   12.1400   25.1323 C   0  0  0  0  0  0  0  0  0  0  0  0
    9.0609   11.1488   25.0693 C   0  0  0  0  0  0  0  0  0  0  0  0
    8.8194    9.8302   24.4600 C   0  0  0  0  0  0  0  0  0  0  0  0
   10.3444    9.1332   23.9388 Cl  0  0  0  0  0  0  0  0  0  0  0  0
  1  2  2  0  0  0
  2  3  2  0  0  0
  2 10  1  0  0  0
 10 12  1  0  0  0
 12 13  1  0  0  0
 13 14  1  0  0  0
 14 15  1  0  0  0
  2  4  1  0  0  0
  4  5  1  0  0  0
  5  6  1  0  0  0
  6  7  1  0  0  0
  7  8  1  0  0  0
  8  9  1  0  0  0
  9  4  1  0  0  0
 10 11  1  0  0  0
M  END
> <minimizedAffinity>
-4.71995

> <minimizedRMSD>
0.51801

$$$$
C901-P354


 24 27  0  0  0  0  0  0  0  0999 V2000
   26.2115   18.2865   24.4703 O   0  0  0  0  0  0  0  0  0  0  0  0
   25.4387   18.4832   23.6143 C   0  0  0  0  0  0  0  0  0  0  0  0
   23.9123   18.2001   23.5513 N   0  0  0  0  0  0  0  0  0  0  0  0
   23.4649   18.5307   22.7390 H   0  0  0  0  0  0  0  0  0  0  0  0
   23.0964   17.5719   24.4331 C   0  0  0  0  0  0  0  0  0  0  0  0
   23.3318   16.3606   25.1112 C   0  0  0  0  0  0  0  0  0  0  0  0
   22.1864   16.1355   25.8386 C   0  0  0  0  0  0  0  0  0  0  0  0
   21.3798   17.2133   25.6029 N   0  0  0  0  0  0  0  0  0  0  0  0
   21.9055   18.0914   24.7304 N   0  0  0  0  0  0  0  0  0  0  0  0
   20.0225   17.3791   26.1575 C   0  0  0  0  0  0  0  0  0  0  0  0
   19.9262   18.5102   27.2159 C   0  0  0  0  0  0  0  0  0  0  0  0
   18.9732   17.5868   28.0028 C   0  0  0  0  0  0  0  0  0  0  0  0
   19.6780   16.4018   27.3121 C   0  0  0  0  0  0  0  0  0  0  0  0
   25.8272   19.1293   22.2904 C   0  0  0  0  0  0  0  0  0  0  0  0
   25.2292   20.5263   22.1284 C   0  0  0  0  0  0  0  0  0  0  0  0
   25.7156   21.1944   20.8672 C   0  0  0  0  0  0  0  0  0  0  0  0
   24.8144   21.8196   19.9795 C   0  0  0  0  0  0  0  0  0  0  0  0
   25.2741   22.4368   18.8106 C   0  0  0  0  0  0  0  0  0  0  0  0
   26.6287   22.4108   18.5574 C   0  0  0  0  0  0  0  0  0  0  0  0
   27.5119   21.8120   19.4203 C   0  0  0  0  0  0  0  0  0  0  0  0
   27.0897   21.2020   20.5801 C   0  0  0  0  0  0  0  0  0  0  0  0
   28.7983   21.8994   18.9929 O   0  0  0  0  0  0  0  0  0  0  0  0
   28.6175   22.5590   17.7278 C   0  0  0  0  0  0  0  0  0  0  0  0
   27.2490   22.9481   17.4727 O   0  0  0  0  0  0  0  0  0  0  0  0
  1  2  2  0  0  0
  2 14  1  0  0  0
 14 15  1  0  0  0
 15 16  1  0  0  0
 16 17  2  0  0  0
 17 18  1  0  0  0
 18 19  2  0  0  0
 19 20  1  0  0  0
 20 21  2  0  0  0
 20 22  1  0  0  0
 22 23  1  0  0  0
 23 24  1  0  0  0
  2  3  1  0  0  0
  3  5  1  0  0  0
  5  6  1  0  0  0
  6  7  2  0  0  0
  7  8  1  0  0  0
  8 10  1  0  0  0
 10 11  1  0  0  0
 11 12  1  0  0  0
 12 13  1  0  0  0
  8  9  1  0  0  0
 21 16  1  0  0  0
  9  5  2  0  0  0
 24 19  1  0  0  0
 13 10  1  0  0  0
  3  4  1  0  0  0
M  END
> <minimizedAffinity>
-4.63171

> <minimizedRMSD>
2.32656

$$$$
C6260-P558


 13 15  0  0  0  0  0  0  0  0999 V2000
    9.8342   14.2154   22.9962 C   0  0  0  0  0  0  0  0  0  0  0  0
    9.1895   14.6036   21.6818 C   0  0  0  0  0  0  0  0  0  0  0  0
   10.2876   14.5060   20.6977 N   0  0  0  0  0  0  0  0  0  0  0  0
   11.5237   14.9060   21.3938 C   0  0  0  0  0  0  0  0  0  0  0  0
   11.3075   14.4198   22.7933 C   0  0  0  0  0  0  0  0  0  0  0  0
   10.5854   15.2544   23.8073 C   0  0  0  0  0  0  0  0  0  0  0  0
   10.1102   15.1307   19.9111 H   0  0  0  0  0  0  0  0  0  0  0  0
    9.3052   10.5792   24.0629 C   0  0  0  0  0  0  0  0  0  0  0  0
    8.2416   10.7350   24.9265 C   0  0  0  0  0  0  0  0  0  0  0  0
    7.6971   11.9317   25.2232 N   0  0  0  0  0  0  0  0  0  0  0  0
    8.2246   13.0163   24.5946 C   0  0  0  0  0  0  0  0  0  0  0  0
    9.2957   12.9889   23.7009 C   0  0  0  0  0  0  0  0  0  0  0  0
    9.8259   11.7202   23.4571 C   0  0  0  0  0  0  0  0  0  0  0  0
  8  9  2  0  0  0
  9 10  1  0  0  0
 10 11  2  0  0  0
 11 12  1  0  0  0
  1 12  1  0  0  0
  1  2  1  0  0  0
  2  3  1  0  0  0
  3  4  1  0  0  0
  5  4  1  0  0  0
  5  6  1  0  0  0
 12 13  2  0  0  0
 13  8  1  0  0  0
  5  1  1  0  0  0
  6  1  1  0  0  0
  3  7  1  0  0  0
M  END
> <minimizedAffinity>
-4.81769

> <minimizedRMSD>
0.44206

$$$$
C6285-P558


 13 14  0  0  0  0  0  0  0  0999 V2000
    9.7371   14.3452   23.7715 N   0  0  0  0  0  0  0  0  0  0  0  0
   10.7295   14.9190   24.6990 C   0  0  0  0  0  0  0  0  0  0  0  0
   12.1744   14.6529   24.2300 C   0  0  0  0  0  0  0  0  0  0  0  0
   12.4302   15.2051   22.8963 N   0  0  0  0  0  0  0  0  0  0  0  0
   11.4951   14.5890   21.9364 C   0  0  0  0  0  0  0  0  0  0  0  0
   10.0028   14.6793   22.3455 C   0  0  0  0  0  0  0  0  0  0  0  0
   13.3901   14.9997   22.6191 H   0  0  0  0  0  0  0  0  0  0  0  0
    9.3314   10.6491   23.9475 C   0  0  0  0  0  0  0  0  0  0  0  0
    8.3208   10.5943   24.8873 C   0  0  0  0  0  0  0  0  0  0  0  0
    7.8059   11.6852   25.4845 N   0  0  0  0  0  0  0  0  0  0  0  0
    8.2988   12.8843   25.0698 C   0  0  0  0  0  0  0  0  0  0  0  0
    9.3041   13.0671   24.1135 C   0  0  0  0  0  0  0  0  0  0  0  0
    9.8288   11.8993   23.5729 C   0  0  0  0  0  0  0  0  0  0  0  0
  8  9  2  0  0  0
  9 10  1  0  0  0
 10 11  2  0  0  0
 11 12  1  0  0  0
 12  1  1  0  0  0
  1  2  1  0  0  0
  2  3  1  0  0  0
  3  4  1  0  0  0
  4  5  1  0  0  0
  5  6  1  0  0  0
 12 13  2  0  0  0
 13  8  1  0  0  0
  6  1  1  0  0  0
  4  7  1  0  0  0
M  END
> <minimizedAffinity>
-4.65849

> <minimizedRMSD>
0.54813

$$$$
C709-P558


 12 13  0  0  0  0  0  0  0  0999 V2000
    9.4916   11.1427   23.8103 C   0  0  0  0  0  0  0  0  0  0  0  0
    8.4822   11.0654   24.7500 C   0  0  0  0  0  0  0  0  0  0  0  0
    7.8760   12.1463   25.2758 N   0  0  0  0  0  0  0  0  0  0  0  0
    8.2726   13.3527   24.7877 C   0  0  0  0  0  0  0  0  0  0  0  0
    9.2675   13.5550   23.8250 C   0  0  0  0  0  0  0  0  0  0  0  0
    9.8905   12.4029   23.3594 C   0  0  0  0  0  0  0  0  0  0  0  0
    9.6042   14.8361   23.4044 N   0  0  0  0  0  0  0  0  0  0  0  0
   10.7393   15.4510   24.1076 C   0  0  0  0  0  0  0  0  0  0  0  0
   12.0817   15.1774   23.4293 C   0  0  0  0  0  0  0  0  0  0  0  0
   12.1384   15.9159   21.7745 S   0  0  0  0  0  0  0  0  0  0  0  0
   10.6726   15.0781   21.0982 C   0  0  0  0  0  0  0  0  0  0  0  0
    9.4271   15.2179   21.9825 C   0  0  0  0  0  0  0  0  0  0  0  0
  1  2  2  0  0  0
  2  3  1  0  0  0
  3  4  2  0  0  0
  4  5  1  0  0  0
  5  7  1  0  0  0
  7  8  1  0  0  0
  8  9  1  0  0  0
  9 10  1  0  0  0
 10 11  1  0  0  0
 11 12  1  0  0  0
  5  6  2  0  0  0
  6  1  1  0  0  0
 12  7  1  0  0  0
M  END
> <minimizedAffinity>
-4.63162

> <minimizedRMSD>
0.41226

$$$$
C725-P558


 12 13  0  0  0  0  0  0  0  0999 V2000
    8.4640   10.9840   24.8129 C   0  0  0  0  0  0  0  0  0  0  0  0
    9.4382   11.0544   23.8351 C   0  0  0  0  0  0  0  0  0  0  0  0
    9.9167   12.3049   23.4431 C   0  0  0  0  0  0  0  0  0  0  0  0
    9.4397   13.4643   24.0383 C   0  0  0  0  0  0  0  0  0  0  0  0
    8.5635   13.3818   25.0639 N   0  0  0  0  0  0  0  0  0  0  0  0
    8.0639   12.1685   25.3953 C   0  0  0  0  0  0  0  0  0  0  0  0
    9.7896   14.7185   23.5898 N   0  0  0  0  0  0  0  0  0  0  0  0
   10.9326   15.3496   24.2364 C   0  0  0  0  0  0  0  0  0  0  0  0
   12.1974   15.1617   23.3943 C   0  0  0  0  0  0  0  0  0  0  0  0
   12.0558   15.9339   21.7490 S   0  0  0  0  0  0  0  0  0  0  0  0
   10.5115   15.1292   21.2224 C   0  0  0  0  0  0  0  0  0  0  0  0
    9.4080   15.2565   22.2752 C   0  0  0  0  0  0  0  0  0  0  0  0
  1  2  2  0  0  0
  2  3  1  0  0  0
  3  4  2  0  0  0
  4  7  1  0  0  0
  7  8  1  0  0  0
  8  9  1  0  0  0
  9 10  1  0  0  0
 10 11  1  0  0  0
 11 12  1  0  0  0
  4  5  1  0  0  0
  5  6  2  0  0  0
  6  1  1  0  0  0
 12  7  1  0  0  0
M  END
> <minimizedAffinity>
-4.69187

> <minimizedRMSD>
0.60739

$$$$
C961-P289


 20 22  0  0  0  0  0  0  0  0999 V2000
   26.0343   12.2578   -1.0889 O   0  0  0  0  0  0  0  0  0  0  0  0
   25.3274   11.6633   -0.3709 C   0  0  0  0  0  0  0  0  0  0  0  0
   23.9454   10.9942   -0.6404 N   0  0  0  0  0  0  0  0  0  0  0  0
   23.5806   10.4816    0.1168 H   0  0  0  0  0  0  0  0  0  0  0  0
   25.7014   11.3075    1.0753 C   0  0  0  0  0  0  0  0  0  0  0  0
   27.2148   11.4077    1.3263 C   0  0  0  0  0  0  0  0  0  0  0  0
   27.5224   11.1046    2.7973 C   0  0  0  0  0  0  0  0  0  0  0  0
   26.8205   12.0920    3.7343 C   0  0  0  0  0  0  0  0  0  0  0  0
   25.4917   12.4392    3.2872 N   0  0  0  0  0  0  0  0  0  0  0  0
   24.5536   13.1592    3.9495 C   0  0  0  0  0  0  0  0  0  0  0  0
   23.4983   13.3026    3.1798 N   0  0  0  0  0  0  0  0  0  0  0  0
   23.7531   12.6560    1.9892 N   0  0  0  0  0  0  0  0  0  0  0  0
   24.9669   12.1522    2.0569 C   0  0  0  0  0  0  0  0  0  0  0  0
   23.1572   11.0040   -1.7588 N   0  0  0  0  0  0  0  0  0  0  0  0
   22.9827   11.8209   -2.2797 H   0  0  0  0  0  0  0  0  0  0  0  0
   22.6311    9.7857   -2.0946 C   0  0  0  0  0  0  0  0  0  0  0  0
   22.5398    8.7391   -1.3360 N   0  0  0  0  0  0  0  0  0  0  0  0
   21.9546    7.6213   -2.1045 C   0  0  0  0  0  0  0  0  0  0  0  0
   21.1075    8.1614   -3.2432 C   0  0  0  0  0  0  0  0  0  0  0  0
   22.0045    9.6471   -3.7210 S   0  0  0  0  0  0  0  0  0  0  0  0
  1  2  2  0  0  0
  2  3  1  0  0  0
  3 14  1  0  0  0
 14 16  1  0  0  0
 16 17  2  0  0  0
 17 18  1  0  0  0
 18 19  1  0  0  0
 19 20  1  0  0  0
  5  2  1  0  0  0
  5  6  1  0  0  0
  6  7  1  0  0  0
  7  8  1  0  0  0
  8  9  1  0  0  0
  9 10  1  0  0  0
 10 11  2  0  0  0
 11 12  1  0  0  0
 12 13  2  0  0  0
 20 16  1  0  0  0
 13  5  1  0  0  0
 13  9  1  0  0  0
  3  4  1  0  0  0
 14 15  1  0  0  0
M  END
> <minimizedAffinity>
-3.77376

> <minimizedRMSD>
1.85750

$$$$
C4728-P277


  9  9  0  0  0  0  0  0  0  0999 V2000
   10.4096   15.1068   22.6381 N   0  0  0  0  0  0  0  0  0  0  0  0
   11.8643   14.8698   22.6162 C   0  0  0  0  0  0  0  0  0  0  0  0
   12.3823   15.9667   21.7545 C   0  0  0  0  0  0  0  0  0  0  0  0
   11.3829   16.5202   21.0648 C   0  0  0  0  0  0  0  0  0  0  0  0
   10.0952   15.8591   21.4034 C   0  0  0  0  0  0  0  0  0  0  0  0
    9.5926   13.9122   22.7897 C   0  0  0  0  0  0  0  0  0  0  0  0
   10.3202   12.8112   23.5490 C   0  0  0  0  0  0  0  0  0  0  0  0
    8.9385   10.8727   23.8987 O   0  0  0  0  0  0  0  0  0  0  0  0
    9.3283   11.9648   24.3028 C   0  0  0  0  0  0  0  0  0  0  0  0
  8  9  2  0  0  0
  9  7  1  0  0  0
  7  6  1  0  0  0
  6  1  1  0  0  0
  1  2  1  0  0  0
  2  3  1  0  0  0
  3  4  2  0  0  0
  4  5  1  0  0  0
  5  1  1  0  0  0
M  END
> <minimizedAffinity>
-3.75599

> <minimizedRMSD>
1.34001

$$$$
C15044-P77


 16 16  0  0  0  0  0  0  0  0999 V2000
    8.6008   13.9208   23.5867 S   0  0  0  0  0  0  0  0  0  0  0  0
    7.8853   15.1697   23.6229 O   0  0  0  0  0  0  0  0  0  0  0  0
    8.6195   13.1404   22.3796 O   0  0  0  0  0  0  0  0  0  0  0  0
    8.0391   12.8226   24.8505 C   0  0  0  0  0  0  0  0  0  0  0  0
    8.3641   11.4806   24.7486 C   0  0  0  0  0  0  0  0  0  0  0  0
    7.6381   10.6018   25.5295 C   0  0  0  0  0  0  0  0  0  0  0  0
    6.6220   11.0895   26.3474 C   0  0  0  0  0  0  0  0  0  0  0  0
    6.3909   12.4537   26.3899 C   0  0  0  0  0  0  0  0  0  0  0  0
    7.0946   13.3437   25.6719 N   0  0  0  0  0  0  0  0  0  0  0  0
   10.1915   14.2744   23.9903 N   0  0  0  0  0  0  0  0  0  0  0  0
   10.2486   15.2713   24.1989 H   0  0  0  0  0  0  0  0  0  0  0  0
   11.1954   13.9687   22.9489 C   0  0  0  0  0  0  0  0  0  0  0  0
   11.6848   15.1964   22.1870 C   0  0  0  0  0  0  0  0  0  0  0  0
   10.7581   15.7900   21.1229 C   0  0  0  0  0  0  0  0  0  0  0  0
   11.3275   14.7288   18.8058 N   0  0  0  0  0  0  0  0  0  0  0  0
   11.0165   15.1873   19.8227 C   0  0  0  0  0  0  0  0  0  0  0  0
 15 16  3  0  0  0
 16 14  1  0  0  0
 14 13  1  0  0  0
 13 12  1  0  0  0
 12 10  1  0  0  0
 10  1  1  0  0  0
  1  2  2  0  0  0
  1  3  2  0  0  0
  1  4  1  0  0  0
  4  5  2  0  0  0
  5  6  1  0  0  0
  6  7  2  0  0  0
  7  8  1  0  0  0
  8  9  2  0  0  0
  9  4  1  0  0  0
 10 11  1  0  0  0
M  END
> <minimizedAffinity>
-5.02417

> <minimizedRMSD>
0.89133

$$$$
C8150-P344


 19 19  0  0  0  0  0  0  0  0999 V2000
    8.9264   14.0564   25.0301 S   0  0  0  0  0  0  0  0  0  0  0  0
    8.5643   14.4586   26.3822 O   0  0  0  0  0  0  0  0  0  0  0  0
   10.2248   14.4761   24.5300 O   0  0  0  0  0  0  0  0  0  0  0  0
    8.8911   12.2690   25.0124 C   0  0  0  0  0  0  0  0  0  0  0  0
    7.5290   11.7442   25.4355 C   0  0  0  0  0  0  0  0  0  0  0  0
    7.5081   10.2289   25.4965 C   0  0  0  0  0  0  0  0  0  0  0  0
    8.0376    9.6007   24.3051 N   0  0  0  0  0  0  0  0  0  0  0  0
    9.3370   10.0851   23.8771 C   0  0  0  0  0  0  0  0  0  0  0  0
    9.3778   11.5985   23.7424 C   0  0  0  0  0  0  0  0  0  0  0  0
    7.3761    9.7579   23.5448 H   0  0  0  0  0  0  0  0  0  0  0  0
    7.6776   14.7069   23.9511 C   0  0  0  0  0  0  0  0  0  0  0  0
    9.1824   15.4232   22.1146 N   0  0  0  0  0  0  0  0  0  0  0  0
    7.9843   14.5133   22.4909 C   0  0  0  0  0  0  0  0  0  0  0  0
    7.3677   13.7640   21.8383 O   0  0  0  0  0  0  0  0  0  0  0  0
    9.5816   15.9124   22.8699 H   0  0  0  0  0  0  0  0  0  0  0  0
    9.8048   15.6684   20.8424 C   0  0  0  0  0  0  0  0  0  0  0  0
   12.1834   16.0509   21.6089 C   0  0  0  0  0  0  0  0  0  0  0  0
   11.2507   15.1845   20.7657 C   0  0  0  0  0  0  0  0  0  0  0  0
   11.6781   15.1816   19.2996 C   0  0  0  0  0  0  0  0  0  0  0  0
 17 18  1  0  0  0
 18 19  1  0  0  0
 18 16  1  0  0  0
 16 12  1  0  0  0
 12 13  1  0  0  0
 13 14  2  0  0  0
 13 11  1  0  0  0
 11  1  1  0  0  0
  1  2  2  0  0  0
  1  3  2  0  0  0
  1  4  1  0  0  0
  4  5  1  0  0  0
  5  6  1  0  0  0
  6  7  1  0  0  0
  7  8  1  0  0  0
  8  9  1  0  0  0
  9  4  1  0  0  0
 12 15  1  0  0  0
  7 10  1  0  0  0
M  END
> <minimizedAffinity>
-5.74849

> <minimizedRMSD>
0.74725

$$$$
C14594-P616


 27 28  0  0  0  0  0  0  0  0999 V2000
    9.0990   -8.2405   12.2389 N   0  0  0  0  0  0  0  0  0  0  0  0
   10.5414   -8.7756   12.0522 C   0  0  0  0  0  0  0  0  0  0  0  0
   10.9959   -9.3894   11.2053 O   0  0  0  0  0  0  0  0  0  0  0  0
   11.2117   -8.1423   13.3089 N   0  0  0  0  0  0  0  0  0  0  0  0
    8.9316   -7.7962   13.1013 H   0  0  0  0  0  0  0  0  0  0  0  0
   10.5873   -7.7184   13.9411 H   0  0  0  0  0  0  0  0  0  0  0  0
   12.5481   -8.0805   13.6796 C   0  0  0  0  0  0  0  0  0  0  0  0
   13.5595   -8.4874   12.8230 C   0  0  0  0  0  0  0  0  0  0  0  0
   14.8620   -8.4040   13.2794 C   0  0  0  0  0  0  0  0  0  0  0  0
   15.2031   -7.9766   14.5147 N   0  0  0  0  0  0  0  0  0  0  0  0
   14.1931   -7.5971   15.3209 C   0  0  0  0  0  0  0  0  0  0  0  0
   12.8642   -7.5941   14.9428 C   0  0  0  0  0  0  0  0  0  0  0  0
   14.4707   -7.1703   16.6037 O   0  0  0  0  0  0  0  0  0  0  0  0
   15.5372   -7.9004   17.2347 C   0  0  0  0  0  0  0  0  0  0  0  0
   15.0193   -8.6140   18.4940 C   0  0  0  0  0  0  0  0  0  0  0  0
   16.1477   -9.2431   19.3041 C   0  0  0  0  0  0  0  0  0  0  0  0
   17.2141   -8.2164   19.6694 C   0  0  0  0  0  0  0  0  0  0  0  0
   17.7453   -7.5032   18.4313 C   0  0  0  0  0  0  0  0  0  0  0  0
   16.6181   -6.8791   17.6157 C   0  0  0  0  0  0  0  0  0  0  0  0
    6.7044   -7.8237   12.1111 C   0  0  0  0  0  0  0  0  0  0  0  0
    7.9420   -8.2897   11.3362 C   0  0  0  0  0  0  0  0  0  0  0  0
    7.6452   -9.6577   10.7031 C   0  0  0  0  0  0  0  0  0  0  0  0
    8.4215   -9.7905    9.5113 O   0  0  0  0  0  0  0  0  0  0  0  0
    8.1892   -9.0799    8.8932 H   0  0  0  0  0  0  0  0  0  0  0  0
    8.2819   -7.3070   10.2014 C   0  0  0  0  0  0  0  0  0  0  0  0
    7.2230   -7.1183    9.2786 O   0  0  0  0  0  0  0  0  0  0  0  0
    7.0181   -7.9613    8.8447 H   0  0  0  0  0  0  0  0  0  0  0  0
 20 21  1  0  0  0
 21 22  1  0  0  0
 22 23  1  0  0  0
 21 25  1  0  0  0
 25 26  1  0  0  0
 21  1  1  0  0  0
  1  2  1  0  0  0
  2  3  2  0  0  0
  2  4  1  0  0  0
  4  7  1  0  0  0
  7  8  2  0  0  0
  8  9  1  0  0  0
  9 10  2  0  0  0
 10 11  1  0  0  0
 11 13  1  0  0  0
 13 14  1  0  0  0
 14 15  1  0  0  0
 15 16  1  0  0  0
 16 17  1  0  0  0
 17 18  1  0  0  0
 18 19  1  0  0  0
 11 12  2  0  0  0
 12  7  1  0  0  0
 19 14  1  0  0  0
 23 24  1  0  0  0
 26 27  1  0  0  0
  1  5  1  0  0  0
  4  6  1  0  0  0
M  END
> <minimizedAffinity>
-4.36719

> <minimizedRMSD>
1.31462

$$$$
C26225-P277


 16 16  0  0  0  0  0  0  0  0999 V2000
   10.5172   13.3983   23.9027 C   0  0  0  0  0  0  0  0  0  0  0  0
   11.3508   12.8194   24.4942 O   0  0  0  0  0  0  0  0  0  0  0  0
    9.0367   12.9904   23.5698 N   0  0  0  0  0  0  0  0  0  0  0  0
    8.5556   13.6221   22.9878 H   0  0  0  0  0  0  0  0  0  0  0  0
    8.3024   11.8908   23.9610 N   0  0  0  0  0  0  0  0  0  0  0  0
    9.0617   10.6385   24.0398 C   0  0  0  0  0  0  0  0  0  0  0  0
    8.1288    9.7261   24.8113 C   0  0  0  0  0  0  0  0  0  0  0  0
    7.3889   10.6493   25.7657 C   0  0  0  0  0  0  0  0  0  0  0  0
    7.7155   12.0623   25.2963 C   0  0  0  0  0  0  0  0  0  0  0  0
   10.7548   14.8407   23.4036 C   0  0  0  0  0  0  0  0  0  0  0  0
   12.4664   16.0527   21.9275 C   0  0  0  0  0  0  0  0  0  0  0  0
   12.2343   14.9707   22.9720 C   0  0  0  0  0  0  0  0  0  0  0  0
    9.9384   15.1352   22.2132 C   0  0  0  0  0  0  0  0  0  0  0  0
    9.2246   15.2806   21.3143 N   0  0  0  0  0  0  0  0  0  0  0  0
   10.3783   15.8296   24.5378 C   0  0  0  0  0  0  0  0  0  0  0  0
   11.4925   16.1604   25.5255 C   0  0  0  0  0  0  0  0  0  0  0  0
 11 12  1  0  0  0
 12 10  1  0  0  0
 10 13  1  0  0  0
 13 14  3  0  0  0
 10 15  1  0  0  0
 15 16  1  0  0  0
 10  1  1  0  0  0
  1  2  2  0  0  0
  1  3  1  0  0  0
  3  5  1  0  0  0
  5  6  1  0  0  0
  6  7  1  0  0  0
  7  8  1  0  0  0
  8  9  1  0  0  0
  9  5  1  0  0  0
  3  4  1  0  0  0
M  END
> <minimizedAffinity>
-5.14503

> <minimizedRMSD>
0.75404

$$$$
C7479-P325


 24 25  0  0  0  0  0  0  0  0999 V2000
    7.0151   15.0013   22.5790 S   0  0  0  0  0  0  0  0  0  0  0  0
    6.9132   13.6414   22.0667 O   0  0  0  0  0  0  0  0  0  0  0  0
    8.0130   15.8165   21.9181 O   0  0  0  0  0  0  0  0  0  0  0  0
    6.8115   15.1594   24.0901 N   0  0  0  0  0  0  0  0  0  0  0  0
    8.1116   14.9421   24.8818 S   0  0  0  0  0  0  0  0  0  0  0  0
    7.7369   15.4386   26.5518 C   0  0  0  0  0  0  0  0  0  0  0  0
    9.3742   15.5840   24.5757 O   0  0  0  0  0  0  0  0  0  0  0  0
    8.4785   13.1982   25.1174 C   0  0  0  0  0  0  0  0  0  0  0  0
    9.5014   12.6846   24.1060 C   0  0  0  0  0  0  0  0  0  0  0  0
    9.8845   11.2383   24.3767 C   0  0  0  0  0  0  0  0  0  0  0  0
    8.7034   10.3088   24.5569 C   0  0  0  0  0  0  0  0  0  0  0  0
    7.5995   10.8686   25.4409 C   0  0  0  0  0  0  0  0  0  0  0  0
    7.2376   12.3146   25.1409 C   0  0  0  0  0  0  0  0  0  0  0  0
    5.5918   15.7122   22.0583 N   0  0  0  0  0  0  0  0  0  0  0  0
    5.5468   16.6415   22.4763 H   0  0  0  0  0  0  0  0  0  0  0  0
    4.3390   15.0402   22.3637 C   0  0  0  0  0  0  0  0  0  0  0  0
    3.2598   14.4603   20.0559 C   0  0  0  0  0  0  0  0  0  0  0  0
    2.1610   14.9151   19.3843 O   0  0  0  0  0  0  0  0  0  0  0  0
    1.7286   15.9578   20.1253 C   0  0  0  0  0  0  0  0  0  0  0  0
    2.4263   16.1977   21.2147 N   0  0  0  0  0  0  0  0  0  0  0  0
    3.3921   15.2063   21.2151 C   0  0  0  0  0  0  0  0  0  0  0  0
    3.9409   13.4184   17.9067 C   0  0  0  0  0  0  0  0  0  0  0  0
    3.9766   13.3273   19.4288 C   0  0  0  0  0  0  0  0  0  0  0  0
    3.3869   11.9972   19.8873 C   0  0  0  0  0  0  0  0  0  0  0  0
 22 23  1  0  0  0
 23 24  1  0  0  0
 23 17  1  0  0  0
 17 18  1  0  0  0
 18 19  1  0  0  0
 19 20  2  0  0  0
 20 21  1  0  0  0
 21 16  1  0  0  0
 16 14  1  0  0  0
 14  1  1  0  0  0
  1  2  2  0  0  0
  1  3  2  0  0  0
  1  4  1  0  0  0
  4  5  2  0  0  0
  5  6  1  0  0  0
  5  7  2  0  0  0
  5  8  1  0  0  0
  8  9  1  0  0  0
  9 10  1  0  0  0
 10 11  1  0  0  0
 11 12  1  0  0  0
 12 13  1  0  0  0
 21 17  2  0  0  0
 13  8  1  0  0  0
 14 15  1  0  0  0
M  END
> <minimizedAffinity>
-5.88043

> <minimizedRMSD>
0.52780

$$$$
C10705-P198


 17 18  0  0  0  0  0  0  0  0999 V2000
    5.6804   11.1808   26.1104 C   0  0  0  0  0  0  0  0  0  0  0  0
    5.9744   10.1069   26.4503 O   0  0  0  0  0  0  0  0  0  0  0  0
    4.3896   11.9836   26.3487 N   0  0  0  0  0  0  0  0  0  0  0  0
    4.3539   12.8528   25.8877 H   0  0  0  0  0  0  0  0  0  0  0  0
    8.5170   12.5990   24.0292 C   0  0  0  0  0  0  0  0  0  0  0  0
    7.8493   13.7960   24.2129 C   0  0  0  0  0  0  0  0  0  0  0  0
    6.3800   13.6499   25.0650 S   0  0  0  0  0  0  0  0  0  0  0  0
    6.6151   11.9764   25.3030 C   0  0  0  0  0  0  0  0  0  0  0  0
    7.7817   11.5508   24.6911 C   0  0  0  0  0  0  0  0  0  0  0  0
    9.8195   12.4107   23.2711 C   0  0  0  0  0  0  0  0  0  0  0  0
   11.5332   14.0681   23.1813 C   0  0  0  0  0  0  0  0  0  0  0  0
   10.9334   13.0186   23.8970 O   0  0  0  0  0  0  0  0  0  0  0  0
    3.2269   11.6712   27.1351 C   0  0  0  0  0  0  0  0  0  0  0  0
    2.1028   12.6661   26.8754 C   0  0  0  0  0  0  0  0  0  0  0  0
    3.6260   11.6743   28.5843 C   0  0  0  0  0  0  0  0  0  0  0  0
    2.5978   11.4429   29.6638 C   0  0  0  0  0  0  0  0  0  0  0  0
    3.6293   10.3882   29.3737 C   0  0  0  0  0  0  0  0  0  0  0  0
 11 12  1  0  0  0
 12 10  1  0  0  0
 10  5  1  0  0  0
  5  6  2  0  0  0
  6  7  1  0  0  0
  7  8  1  0  0  0
  8  1  1  0  0  0
  1  2  2  0  0  0
  1  3  1  0  0  0
  3 13  1  0  0  0
 13 14  1  0  0  0
 13 15  1  0  0  0
 15 16  1  0  0  0
 16 17  1  0  0  0
  8  9  2  0  0  0
  9  5  1  0  0  0
 17 15  1  0  0  0
  3  4  1  0  0  0
M  END
> <minimizedAffinity>
-4.00084

> <minimizedRMSD>
2.40879

$$$$
C7529-P324


 14 14  0  0  0  0  0  0  0  0999 V2000
   10.9493   13.3845   24.9311 O   0  0  0  0  0  0  0  0  0  0  0  0
    9.9260   13.4855   24.3574 C   0  0  0  0  0  0  0  0  0  0  0  0
    9.3576   14.6708   23.4814 N   0  0  0  0  0  0  0  0  0  0  0  0
    8.4986   14.4820   23.0390 H   0  0  0  0  0  0  0  0  0  0  0  0
    9.8759   15.9411   23.2336 N   0  0  0  0  0  0  0  0  0  0  0  0
   11.3376   16.0521   23.3342 C   0  0  0  0  0  0  0  0  0  0  0  0
   12.0969   15.5036   22.1261 C   0  0  0  0  0  0  0  0  0  0  0  0
   11.6026   16.1385   20.8336 C   0  0  0  0  0  0  0  0  0  0  0  0
   10.0919   15.9811   20.7229 C   0  0  0  0  0  0  0  0  0  0  0  0
    9.3854   16.5202   21.9669 C   0  0  0  0  0  0  0  0  0  0  0  0
    8.8387   12.3794   24.3543 C   0  0  0  0  0  0  0  0  0  0  0  0
    8.3428   12.1373   25.5926 F   0  0  0  0  0  0  0  0  0  0  0  0
    7.7593   12.7129   23.5922 F   0  0  0  0  0  0  0  0  0  0  0  0
    9.5310   10.8725   23.7688 Cl  0  0  0  0  0  0  0  0  0  0  0  0
  1  2  2  0  0  0
  2  3  1  0  0  0
  3  5  1  0  0  0
  5  6  1  0  0  0
  6  7  1  0  0  0
  7  8  1  0  0  0
  8  9  1  0  0  0
  9 10  1  0  0  0
  2 11  1  0  0  0
 11 12  1  0  0  0
 11 13  1  0  0  0
 11 14  1  0  0  0
 10  5  1  0  0  0
  3  4  1  0  0  0
M  END
> <minimizedAffinity>
-4.87791

> <minimizedRMSD>
0.67352

$$$$
C15278-P321


 18 18  0  0  0  0  0  0  0  0999 V2000
    9.0499   13.0964   23.4137 C   0  0  0  0  0  0  0  0  0  0  0  0
    9.1704   12.6635   24.8704 C   0  0  0  0  0  0  0  0  0  0  0  0
   11.4953   14.2770   23.2816 C   0  0  0  0  0  0  0  0  0  0  0  0
   12.2616   13.5105   23.7191 O   0  0  0  0  0  0  0  0  0  0  0  0
    9.9526   14.1857   23.1375 N   0  0  0  0  0  0  0  0  0  0  0  0
    9.5205   15.0047   22.8031 H   0  0  0  0  0  0  0  0  0  0  0  0
   11.9127   15.6695   22.8252 C   0  0  0  0  0  0  0  0  0  0  0  0
   10.9878   16.3281   21.4130 S   0  0  0  0  0  0  0  0  0  0  0  0
   10.8873   15.4902   18.8127 C   0  0  0  0  0  0  0  0  0  0  0  0
   11.7218   15.3587   20.0710 C   0  0  0  0  0  0  0  0  0  0  0  0
    7.5952   13.4493   23.0963 C   0  0  0  0  0  0  0  0  0  0  0  0
    7.4073   14.4536   21.9575 C   0  0  0  0  0  0  0  0  0  0  0  0
    5.9537   14.6131   21.5906 C   0  0  0  0  0  0  0  0  0  0  0  0
    5.3144   13.7453   20.7021 C   0  0  0  0  0  0  0  0  0  0  0  0
    3.9652   13.9123   20.4040 C   0  0  0  0  0  0  0  0  0  0  0  0
    3.2854   14.9476   21.0138 C   0  0  0  0  0  0  0  0  0  0  0  0
    3.8610   15.8113   21.8755 N   0  0  0  0  0  0  0  0  0  0  0  0
    5.1765   15.6204   22.1490 C   0  0  0  0  0  0  0  0  0  0  0  0
  9 10  1  0  0  0
 10  8  1  0  0  0
  8  7  1  0  0  0
  7  3  1  0  0  0
  3  4  2  0  0  0
  3  5  1  0  0  0
  5  1  1  0  0  0
  1  2  1  0  0  0
  1 11  1  0  0  0
 11 12  1  0  0  0
 12 13  1  0  0  0
 13 14  2  0  0  0
 14 15  1  0  0  0
 15 16  2  0  0  0
 16 17  1  0  0  0
 17 18  2  0  0  0
 18 13  1  0  0  0
  5  6  1  0  0  0
M  END
> <minimizedAffinity>
-4.73941

> <minimizedRMSD>
0.78266

$$$$
C7646-P558


 15 16  0  0  0  0  0  0  0  0999 V2000
    9.4834   13.9303   24.9055 C   0  0  0  0  0  0  0  0  0  0  0  0
    8.7795   15.0859   24.1973 C   0  0  0  0  0  0  0  0  0  0  0  0
    8.5596   16.8363   22.2168 N   0  0  0  0  0  0  0  0  0  0  0  0
    9.4602   15.4742   22.5869 S   0  0  0  0  0  0  0  0  0  0  0  0
   10.8258   15.8972   22.7634 O   0  0  0  0  0  0  0  0  0  0  0  0
    9.0903   14.4765   21.6072 O   0  0  0  0  0  0  0  0  0  0  0  0
    8.8372   17.1890   21.3009 H   0  0  0  0  0  0  0  0  0  0  0  0
    8.7242   17.5547   22.9220 H   0  0  0  0  0  0  0  0  0  0  0  0
    8.9955   12.5077   24.6043 C   0  0  0  0  0  0  0  0  0  0  0  0
    8.1949   11.8399   25.6128 N   0  0  0  0  0  0  0  0  0  0  0  0
    7.8315   10.4697   25.1978 C   0  0  0  0  0  0  0  0  0  0  0  0
    6.6790   10.1348   26.0845 C   0  0  0  0  0  0  0  0  0  0  0  0
    6.6354   10.4512   27.5460 C   0  0  0  0  0  0  0  0  0  0  0  0
    6.1302   11.4259   26.5787 C   0  0  0  0  0  0  0  0  0  0  0  0
    6.9823   12.5205   26.0641 C   0  0  0  0  0  0  0  0  0  0  0  0
  3  4  1  0  0  0
  4  5  2  0  0  0
  4  6  2  0  0  0
  4  2  1  0  0  0
  2  1  1  0  0  0
  1  9  1  0  0  0
  9 10  1  0  0  0
 10 11  1  0  0  0
 12 11  1  0  0  0
 12 13  1  0  0  0
 14 13  1  0  0  0
 14 15  1  0  0  0
 15 10  1  0  0  0
 14 12  1  0  0  0
  3  7  1  0  0  0
  3  8  1  0  0  0
M  END
> <minimizedAffinity>
-3.96676

> <minimizedRMSD>
2.02305

$$$$
C9546-P405


  9  9  0  0  0  0  0  0  0  0999 V2000
    9.1203   12.1481   25.2858 C   0  0  0  0  0  0  0  0  0  0  0  0
    7.8468   11.4992   25.3723 C   0  0  0  0  0  0  0  0  0  0  0  0
    7.7306   10.2933   24.8242 N   0  0  0  0  0  0  0  0  0  0  0  0
    9.1907    9.9025   24.1239 S   0  0  0  0  0  0  0  0  0  0  0  0
    9.9951   11.3321   24.5927 C   0  0  0  0  0  0  0  0  0  0  0  0
    9.4543   13.5103   25.8112 C   0  0  0  0  0  0  0  0  0  0  0  0
   10.9453   13.8106   25.8776 C   0  0  0  0  0  0  0  0  0  0  0  0
   10.6489   15.6829   24.3525 O   0  0  0  0  0  0  0  0  0  0  0  0
   11.3879   14.8707   24.8974 C   0  0  0  0  0  0  0  0  0  0  0  0
  8  9  2  0  0  0
  9  7  1  0  0  0
  7  6  1  0  0  0
  6  1  1  0  0  0
  1  2  1  0  0  0
  2  3  2  0  0  0
  3  4  1  0  0  0
  4  5  1  0  0  0
  5  1  2  0  0  0
M  END
> <minimizedAffinity>
-3.07139

> <minimizedRMSD>
1.83797

$$$$
C9547-P405


  9  9  0  0  0  0  0  0  0  0999 V2000
    8.9022   11.7761   25.1581 C   0  0  0  0  0  0  0  0  0  0  0  0
    7.7111   10.9890   25.2232 C   0  0  0  0  0  0  0  0  0  0  0  0
    7.7404    9.7801   24.6673 N   0  0  0  0  0  0  0  0  0  0  0  0
    9.2532    9.5503   24.0077 S   0  0  0  0  0  0  0  0  0  0  0  0
    9.8684   11.0742   24.4599 C   0  0  0  0  0  0  0  0  0  0  0  0
    9.1391   13.1063   25.7114 C   0  0  0  0  0  0  0  0  0  0  0  0
   10.2826   13.4781   25.9660 O   0  0  0  0  0  0  0  0  0  0  0  0
    7.5163   14.7989   24.7650 C   0  0  0  0  0  0  0  0  0  0  0  0
    7.9324   13.9905   25.9830 C   0  0  0  0  0  0  0  0  0  0  0  0
  8  9  1  0  0  0
  9  6  1  0  0  0
  6  7  2  0  0  0
  6  1  1  0  0  0
  1  2  1  0  0  0
  2  3  2  0  0  0
  3  4  1  0  0  0
  4  5  1  0  0  0
  5  1  2  0  0  0
M  END
> <minimizedAffinity>
-3.08719

> <minimizedRMSD>
1.23158

$$$$
C9548-P405


  9  9  0  0  0  0  0  0  0  0999 V2000
    8.8840   10.9133   24.7126 C   0  0  0  0  0  0  0  0  0  0  0  0
    7.5795   10.6665   25.1928 C   0  0  0  0  0  0  0  0  0  0  0  0
    7.1644    9.4272   24.9294 N   0  0  0  0  0  0  0  0  0  0  0  0
    8.2202    8.8249   24.2610 O   0  0  0  0  0  0  0  0  0  0  0  0
    9.2335    9.7157   24.1330 C   0  0  0  0  0  0  0  0  0  0  0  0
    9.6945   12.1603   24.7860 C   0  0  0  0  0  0  0  0  0  0  0  0
    8.9208   13.4348   24.4629 C   0  0  0  0  0  0  0  0  0  0  0  0
    7.2417   13.3145   22.7038 O   0  0  0  0  0  0  0  0  0  0  0  0
    8.4134   13.4770   23.0354 C   0  0  0  0  0  0  0  0  0  0  0  0
  8  9  2  0  0  0
  9  7  1  0  0  0
  7  6  1  0  0  0
  6  1  1  0  0  0
  1  2  1  0  0  0
  2  3  2  0  0  0
  3  4  1  0  0  0
  4  5  1  0  0  0
  5  1  2  0  0  0
M  END
> <minimizedAffinity>
-3.83837

> <minimizedRMSD>
1.43514

$$$$
C8161-P191


 18 18  0  0  0  0  0  0  0  0999 V2000
    9.9884   14.4905   23.6113 C   0  0  0  0  0  0  0  0  0  0  0  0
   11.3315   13.8076   23.8584 C   0  0  0  0  0  0  0  0  0  0  0  0
   10.1486   15.7173   22.7992 N   0  0  0  0  0  0  0  0  0  0  0  0
   11.1013   16.7361   23.1959 C   0  0  0  0  0  0  0  0  0  0  0  0
   12.5162   16.4895   22.6944 C   0  0  0  0  0  0  0  0  0  0  0  0
   12.5082   16.3690   21.1832 C   0  0  0  0  0  0  0  0  0  0  0  0
   11.4956   15.3583   20.6872 C   0  0  0  0  0  0  0  0  0  0  0  0
   10.1253   15.5795   21.3314 C   0  0  0  0  0  0  0  0  0  0  0  0
    9.0317   13.5434   22.7759 C   0  0  0  0  0  0  0  0  0  0  0  0
    7.6515   13.9422   22.9534 O   0  0  0  0  0  0  0  0  0  0  0  0
    7.3994   13.8295   23.8832 H   0  0  0  0  0  0  0  0  0  0  0  0
    9.1009   12.0759   23.1684 C   0  0  0  0  0  0  0  0  0  0  0  0
    7.7935   11.7057   23.6171 O   0  0  0  0  0  0  0  0  0  0  0  0
    7.8559   10.8398   24.7382 C   0  0  0  0  0  0  0  0  0  0  0  0
    6.7835   11.2246   25.7392 C   0  0  0  0  0  0  0  0  0  0  0  0
    7.8313    9.4088   24.2552 C   0  0  0  0  0  0  0  0  0  0  0  0
   10.1611   15.2055   26.1805 C   0  0  0  0  0  0  0  0  0  0  0  0
    9.3020   14.7256   25.0080 C   0  0  0  0  0  0  0  0  0  0  0  0
 17 18  1  0  0  0
 18  1  1  0  0  0
  1  2  1  0  0  0
  1  9  1  0  0  0
  9 10  1  0  0  0
  9 12  1  0  0  0
 12 13  1  0  0  0
 13 14  1  0  0  0
 14 15  1  0  0  0
 14 16  1  0  0  0
  1  3  1  0  0  0
  3  4  1  0  0  0
  4  5  1  0  0  0
  5  6  1  0  0  0
  6  7  1  0  0  0
  7  8  1  0  0  0
  8  3  1  0  0  0
 10 11  1  0  0  0
M  END
> <minimizedAffinity>
-5.15421

> <minimizedRMSD>
0.76291

$$$$
C15027-P151


 14 14  0  0  0  0  0  0  0  0999 V2000
    9.2949   13.1044   24.3102 C   0  0  0  0  0  0  0  0  0  0  0  0
   10.6407   13.2798   24.7081 O   0  0  0  0  0  0  0  0  0  0  0  0
   11.2201   12.7655   24.1244 H   0  0  0  0  0  0  0  0  0  0  0  0
    8.9554   11.6317   24.4403 C   0  0  0  0  0  0  0  0  0  0  0  0
    7.9217   11.2604   25.3122 C   0  0  0  0  0  0  0  0  0  0  0  0
    7.5392    9.9340   25.3800 C   0  0  0  0  0  0  0  0  0  0  0  0
    8.1187    8.9576   24.6590 N   0  0  0  0  0  0  0  0  0  0  0  0
    9.1354    9.3168   23.8420 C   0  0  0  0  0  0  0  0  0  0  0  0
    9.5972   10.6204   23.7157 C   0  0  0  0  0  0  0  0  0  0  0  0
    8.8636   13.7374   22.9735 C   0  0  0  0  0  0  0  0  0  0  0  0
    7.7406   13.5087   22.5061 O   0  0  0  0  0  0  0  0  0  0  0  0
    9.7928   14.7510   22.3155 C   0  0  0  0  0  0  0  0  0  0  0  0
   10.2341   15.8008   20.0800 C   0  0  0  0  0  0  0  0  0  0  0  0
    9.5060   14.9950   20.8630 C   0  0  0  0  0  0  0  0  0  0  0  0
 13 14  2  0  0  0
 14 12  1  0  0  0
 12 10  1  0  0  0
 10 11  2  0  0  0
 10  1  1  0  0  0
  1  2  1  0  0  0
  1  4  1  0  0  0
  4  5  2  0  0  0
  5  6  1  0  0  0
  6  7  2  0  0  0
  7  8  1  0  0  0
  8  9  2  0  0  0
  9  4  1  0  0  0
  2  3  1  0  0  0
M  END
> <minimizedAffinity>
-5.18482

> <minimizedRMSD>
1.61385

$$$$
C15044-P151


 16 16  0  0  0  0  0  0  0  0999 V2000
    8.3761   13.7595   23.4578 S   0  0  0  0  0  0  0  0  0  0  0  0
    8.2664   14.6319   24.6042 O   0  0  0  0  0  0  0  0  0  0  0  0
    7.3481   13.5985   22.4491 O   0  0  0  0  0  0  0  0  0  0  0  0
    8.7292   12.1173   24.0437 C   0  0  0  0  0  0  0  0  0  0  0  0
    9.7130   11.3513   23.4449 C   0  0  0  0  0  0  0  0  0  0  0  0
    9.6558    9.9835   23.6630 C   0  0  0  0  0  0  0  0  0  0  0  0
    8.6507    9.4629   24.4736 C   0  0  0  0  0  0  0  0  0  0  0  0
    7.7559   10.3244   25.0836 C   0  0  0  0  0  0  0  0  0  0  0  0
    7.7767   11.6498   24.8949 N   0  0  0  0  0  0  0  0  0  0  0  0
    9.7495   14.2223   22.6080 N   0  0  0  0  0  0  0  0  0  0  0  0
   10.4567   13.5034   22.7608 H   0  0  0  0  0  0  0  0  0  0  0  0
   10.3608   15.5084   22.9349 C   0  0  0  0  0  0  0  0  0  0  0  0
   11.8619   15.4420   22.6655 C   0  0  0  0  0  0  0  0  0  0  0  0
   12.2993   16.2191   21.4224 C   0  0  0  0  0  0  0  0  0  0  0  0
   11.5473   15.1231   19.1670 N   0  0  0  0  0  0  0  0  0  0  0  0
   11.8680   15.5681   20.1867 C   0  0  0  0  0  0  0  0  0  0  0  0
 15 16  3  0  0  0
 16 14  1  0  0  0
 14 13  1  0  0  0
 13 12  1  0  0  0
 12 10  1  0  0  0
 10  1  1  0  0  0
  1  2  2  0  0  0
  1  3  2  0  0  0
  1  4  1  0  0  0
  4  5  2  0  0  0
  5  6  1  0  0  0
  6  7  2  0  0  0
  7  8  1  0  0  0
  8  9  2  0  0  0
  9  4  1  0  0  0
 10 11  1  0  0  0
M  END
> <minimizedAffinity>
-5.23426

> <minimizedRMSD>
0.44025

$$$$
C15045-P151


 16 16  0  0  0  0  0  0  0  0999 V2000
    9.1781   13.1471   24.3300 C   0  0  0  0  0  0  0  0  0  0  0  0
    8.6681   13.9058   25.4235 O   0  0  0  0  0  0  0  0  0  0  0  0
    7.6992   13.8610   25.4240 H   0  0  0  0  0  0  0  0  0  0  0  0
    8.8316   11.6783   24.4526 C   0  0  0  0  0  0  0  0  0  0  0  0
    7.8209   11.2422   25.3160 C   0  0  0  0  0  0  0  0  0  0  0  0
    7.5314    9.8938   25.3762 C   0  0  0  0  0  0  0  0  0  0  0  0
    8.1858    8.9621   24.6582 N   0  0  0  0  0  0  0  0  0  0  0  0
    9.1723    9.3852   23.8395 C   0  0  0  0  0  0  0  0  0  0  0  0
    9.5322   10.7147   23.7119 C   0  0  0  0  0  0  0  0  0  0  0  0
    8.5986   13.7639   23.0618 C   0  0  0  0  0  0  0  0  0  0  0  0
    7.4515   13.4851   22.6883 O   0  0  0  0  0  0  0  0  0  0  0  0
    9.4924   14.5955   22.1868 C   0  0  0  0  0  0  0  0  0  0  0  0
   10.4534   15.5340   22.9092 C   0  0  0  0  0  0  0  0  0  0  0  0
   11.8742   15.3091   22.4008 C   0  0  0  0  0  0  0  0  0  0  0  0
   11.9072   15.3527   19.9028 C   0  0  0  0  0  0  0  0  0  0  0  0
   12.0799   15.9706   21.0775 C   0  0  0  0  0  0  0  0  0  0  0  0
 15 16  2  0  0  0
 16 14  1  0  0  0
 14 13  1  0  0  0
 13 12  1  0  0  0
 12 10  1  0  0  0
 10 11  2  0  0  0
 10  1  1  0  0  0
  1  2  1  0  0  0
  1  4  1  0  0  0
  4  5  2  0  0  0
  5  6  1  0  0  0
  6  7  2  0  0  0
  7  8  1  0  0  0
  8  9  2  0  0  0
  9  4  1  0  0  0
  2  3  1  0  0  0
M  END
> <minimizedAffinity>
-5.66624

> <minimizedRMSD>
0.76027

$$$$
C15048-P151


 17 17  0  0  0  0  0  0  0  0999 V2000
    9.2338   13.1491   24.2924 C   0  0  0  0  0  0  0  0  0  0  0  0
    8.9179   11.6574   24.3796 C   0  0  0  0  0  0  0  0  0  0  0  0
    9.6058   10.6705   23.6603 C   0  0  0  0  0  0  0  0  0  0  0  0
    9.2124    9.3414   23.7934 C   0  0  0  0  0  0  0  0  0  0  0  0
    8.2231    8.9282   24.6188 N   0  0  0  0  0  0  0  0  0  0  0  0
    7.5751    9.8828   25.3078 C   0  0  0  0  0  0  0  0  0  0  0  0
    7.8813   11.2324   25.2248 C   0  0  0  0  0  0  0  0  0  0  0  0
   11.1310   14.8591   24.6394 C   0  0  0  0  0  0  0  0  0  0  0  0
   10.6302   13.4371   24.8818 C   0  0  0  0  0  0  0  0  0  0  0  0
    9.1471   13.7393   22.9640 N   0  0  0  0  0  0  0  0  0  0  0  0
    9.2163   12.9584   22.3116 H   0  0  0  0  0  0  0  0  0  0  0  0
    7.8803   14.6543   22.4295 S   0  0  0  0  0  0  0  0  0  0  0  0
    8.5146   15.7077   21.6734 O   0  0  0  0  0  0  0  0  0  0  0  0
    6.8683   13.8360   21.8176 O   0  0  0  0  0  0  0  0  0  0  0  0
    7.2847   15.3280   23.8464 N   0  0  0  0  0  0  0  0  0  0  0  0
    5.9496   14.9868   24.3567 C   0  0  0  0  0  0  0  0  0  0  0  0
    7.4714   16.7753   23.9040 C   0  0  0  0  0  0  0  0  0  0  0  0
  8  9  1  0  0  0
  1  9  1  0  0  0
  1 10  1  0  0  0
 10 12  1  0  0  0
 12 13  2  0  0  0
 12 14  2  0  0  0
 12 15  1  0  0  0
 15 16  1  0  0  0
 15 17  1  0  0  0
  1  2  1  0  0  0
  2  3  2  0  0  0
  3  4  1  0  0  0
  4  5  2  0  0  0
  5  6  1  0  0  0
  6  7  2  0  0  0
  7  2  1  0  0  0
 10 11  1  0  0  0
M  END
> <minimizedAffinity>
-4.99039

> <minimizedRMSD>
1.92871

$$$$
C15066-P151


 16 16  0  0  0  0  0  0  0  0999 V2000
    9.1270   13.5541   24.8280 C   0  0  0  0  0  0  0  0  0  0  0  0
    8.4878   14.0636   25.9951 O   0  0  0  0  0  0  0  0  0  0  0  0
    7.5268   13.9661   25.9061 H   0  0  0  0  0  0  0  0  0  0  0  0
    8.8873   12.0763   24.6575 C   0  0  0  0  0  0  0  0  0  0  0  0
    7.9411   11.3687   25.4057 C   0  0  0  0  0  0  0  0  0  0  0  0
    7.7775   10.0061   25.1941 C   0  0  0  0  0  0  0  0  0  0  0  0
    8.5831    9.3904   24.2500 C   0  0  0  0  0  0  0  0  0  0  0  0
    9.5206   10.0334   23.5321 N   0  0  0  0  0  0  0  0  0  0  0  0
    9.6525   11.3528   23.7453 C   0  0  0  0  0  0  0  0  0  0  0  0
    8.5995   14.3790   23.6488 C   0  0  0  0  0  0  0  0  0  0  0  0
    7.5868   14.0184   23.0359 O   0  0  0  0  0  0  0  0  0  0  0  0
    9.2967   15.7126   23.3674 C   0  0  0  0  0  0  0  0  0  0  0  0
    8.7968   16.2901   22.0496 C   0  0  0  0  0  0  0  0  0  0  0  0
   10.8318   15.6597   23.4679 C   0  0  0  0  0  0  0  0  0  0  0  0
   12.3670   16.2604   21.5294 C   0  0  0  0  0  0  0  0  0  0  0  0
   11.5612   15.1683   22.2189 C   0  0  0  0  0  0  0  0  0  0  0  0
 15 16  1  0  0  0
 16 14  1  0  0  0
 14 12  1  0  0  0
 12 13  1  0  0  0
 12 10  1  0  0  0
 10 11  2  0  0  0
 10  1  1  0  0  0
  1  2  1  0  0  0
  1  4  1  0  0  0
  4  5  2  0  0  0
  5  6  1  0  0  0
  6  7  2  0  0  0
  7  8  1  0  0  0
  8  9  2  0  0  0
  9  4  1  0  0  0
  2  3  1  0  0  0
M  END
> <minimizedAffinity>
-5.23558

> <minimizedRMSD>
0.63705

$$$$
C15067-P151


 16 16  0  0  0  0  0  0  0  0999 V2000
    9.6491   13.2935   24.2650 C   0  0  0  0  0  0  0  0  0  0  0  0
    9.6226   14.0498   25.4684 O   0  0  0  0  0  0  0  0  0  0  0  0
    8.7024   14.2011   25.7351 H   0  0  0  0  0  0  0  0  0  0  0  0
    9.0410   11.9268   24.4572 C   0  0  0  0  0  0  0  0  0  0  0  0
    7.9974   11.6589   25.3469 C   0  0  0  0  0  0  0  0  0  0  0  0
    7.5311   10.3570   25.4856 C   0  0  0  0  0  0  0  0  0  0  0  0
    8.1261    9.3670   24.7195 C   0  0  0  0  0  0  0  0  0  0  0  0
    9.1242    9.5886   23.8456 N   0  0  0  0  0  0  0  0  0  0  0  0
    9.5518   10.8560   23.7264 C   0  0  0  0  0  0  0  0  0  0  0  0
    8.9949   14.0548   23.0995 C   0  0  0  0  0  0  0  0  0  0  0  0
    8.0539   13.6023   22.4402 O   0  0  0  0  0  0  0  0  0  0  0  0
    9.5510   15.4498   22.8492 C   0  0  0  0  0  0  0  0  0  0  0  0
   10.8394   15.6568   23.4183 O   0  0  0  0  0  0  0  0  0  0  0  0
   11.9354   15.3044   22.5649 C   0  0  0  0  0  0  0  0  0  0  0  0
   11.8237   15.3657   20.0437 C   0  0  0  0  0  0  0  0  0  0  0  0
   12.0075   16.1790   21.3163 C   0  0  0  0  0  0  0  0  0  0  0  0
 15 16  1  0  0  0
 16 14  1  0  0  0
 14 13  1  0  0  0
 13 12  1  0  0  0
 12 10  1  0  0  0
 10 11  2  0  0  0
 10  1  1  0  0  0
  1  2  1  0  0  0
  1  4  1  0  0  0
  4  5  2  0  0  0
  5  6  1  0  0  0
  6  7  2  0  0  0
  7  8  1  0  0  0
  8  9  2  0  0  0
  9  4  1  0  0  0
  2  3  1  0  0  0
M  END
> <minimizedAffinity>
-5.22205

> <minimizedRMSD>
0.71257

$$$$
C8138-P151


 17 17  0  0  0  0  0  0  0  0999 V2000
    8.5937   13.5473   24.6568 C   0  0  0  0  0  0  0  0  0  0  0  0
    7.5218   14.0541   25.4455 O   0  0  0  0  0  0  0  0  0  0  0  0
    6.6857   13.6676   25.1413 H   0  0  0  0  0  0  0  0  0  0  0  0
    8.8113   12.0284   24.8434 C   0  0  0  0  0  0  0  0  0  0  0  0
    7.5375   11.3054   25.2566 C   0  0  0  0  0  0  0  0  0  0  0  0
    7.7205    9.8085   25.3590 C   0  0  0  0  0  0  0  0  0  0  0  0
    8.3220    9.2452   24.1754 N   0  0  0  0  0  0  0  0  0  0  0  0
    9.5815    9.8165   23.7600 C   0  0  0  0  0  0  0  0  0  0  0  0
    9.5369   11.3363   23.6833 C   0  0  0  0  0  0  0  0  0  0  0  0
    7.6610    9.3598   23.4070 H   0  0  0  0  0  0  0  0  0  0  0  0
    8.3675   13.9714   23.2033 C   0  0  0  0  0  0  0  0  0  0  0  0
    7.4114   13.5129   22.5642 O   0  0  0  0  0  0  0  0  0  0  0  0
    9.2898   15.0038   22.5777 C   0  0  0  0  0  0  0  0  0  0  0  0
   10.7840   14.7869   22.8612 C   0  0  0  0  0  0  0  0  0  0  0  0
   11.2879   15.6726   23.9997 C   0  0  0  0  0  0  0  0  0  0  0  0
   12.3465   16.3149   21.4765 C   0  0  0  0  0  0  0  0  0  0  0  0
   11.6587   14.9697   21.6186 C   0  0  0  0  0  0  0  0  0  0  0  0
 16 17  1  0  0  0
 17 14  1  0  0  0
 14 15  1  0  0  0
 14 13  1  0  0  0
 13 11  1  0  0  0
 11 12  2  0  0  0
 11  1  1  0  0  0
  1  2  1  0  0  0
  1  4  1  0  0  0
  4  5  1  0  0  0
  5  6  1  0  0  0
  6  7  1  0  0  0
  7  8  1  0  0  0
  8  9  1  0  0  0
  9  4  1  0  0  0
  2  3  1  0  0  0
  7 10  1  0  0  0
M  END
> <minimizedAffinity>
-5.53937

> <minimizedRMSD>
0.37129

$$$$
C8155-P151


 17 17  0  0  0  0  0  0  0  0999 V2000
    8.1777   13.8094   23.7258 S   0  0  0  0  0  0  0  0  0  0  0  0
    7.6784   14.7394   24.7052 O   0  0  0  0  0  0  0  0  0  0  0  0
    7.3980   13.3871   22.5869 O   0  0  0  0  0  0  0  0  0  0  0  0
    8.6242   12.4270   24.5743 N   0  0  0  0  0  0  0  0  0  0  0  0
    9.7303   11.6209   24.0317 C   0  0  0  0  0  0  0  0  0  0  0  0
    9.4643   10.1456   23.7950 C   0  0  0  0  0  0  0  0  0  0  0  0
    8.3275    9.4898   24.5345 C   0  0  0  0  0  0  0  0  0  0  0  0
    7.7125   10.3507   25.6050 C   0  0  0  0  0  0  0  0  0  0  0  0
    7.4486   11.7560   25.1537 C   0  0  0  0  0  0  0  0  0  0  0  0
    9.6195   14.3586   23.1589 N   0  0  0  0  0  0  0  0  0  0  0  0
   10.3422   13.7062   23.4629 H   0  0  0  0  0  0  0  0  0  0  0  0
   10.0113   15.6807   23.5869 C   0  0  0  0  0  0  0  0  0  0  0  0
   12.2090   15.7610   22.2010 C   0  0  0  0  0  0  0  0  0  0  0  0
   11.4479   15.9269   23.2900 C   0  0  0  0  0  0  0  0  0  0  0  0
   10.9545   15.4620   18.6260 C   0  0  0  0  0  0  0  0  0  0  0  0
   11.0282   15.8458   20.0610 C   0  0  0  0  0  0  0  0  0  0  0  0
   11.8781   15.2482   20.9024 C   0  0  0  0  0  0  0  0  0  0  0  0
 15 16  1  0  0  0
 16 17  2  0  0  0
 17 13  1  0  0  0
 13 14  2  0  0  0
 14 12  1  0  0  0
 12 10  1  0  0  0
 10  1  1  0  0  0
  1  2  2  0  0  0
  1  3  2  0  0  0
  1  4  1  0  0  0
  4  5  1  0  0  0
  5  6  1  0  0  0
  6  7  1  0  0  0
  7  8  1  0  0  0
  8  9  1  0  0  0
  9  4  1  0  0  0
 10 11  1  0  0  0
M  END
> <minimizedAffinity>
-5.33053

> <minimizedRMSD>
0.37186

$$$$
C8169-P151


 15 15  0  0  0  0  0  0  0  0999 V2000
    8.0110   14.9912   24.3779 O   0  0  0  0  0  0  0  0  0  0  0  0
    8.3670   13.9689   23.4299 S   0  0  0  0  0  0  0  0  0  0  0  0
    7.4763   13.5211   22.3829 O   0  0  0  0  0  0  0  0  0  0  0  0
    8.8102   12.6027   24.3275 N   0  0  0  0  0  0  0  0  0  0  0  0
    9.7795   11.7003   23.6761 C   0  0  0  0  0  0  0  0  0  0  0  0
    9.5587   10.2005   23.7623 C   0  0  0  0  0  0  0  0  0  0  0  0
    8.3760    9.6804   24.5294 C   0  0  0  0  0  0  0  0  0  0  0  0
    7.8180   10.6524   25.5338 C   0  0  0  0  0  0  0  0  0  0  0  0
    7.6120   12.0288   24.9747 C   0  0  0  0  0  0  0  0  0  0  0  0
    9.7686   14.3935   22.6822 N   0  0  0  0  0  0  0  0  0  0  0  0
    9.5347   14.5687   21.7050 H   0  0  0  0  0  0  0  0  0  0  0  0
   10.5404   15.5404   23.1351 C   0  0  0  0  0  0  0  0  0  0  0  0
   11.9666   15.3904   22.6059 C   0  0  0  0  0  0  0  0  0  0  0  0
   12.2493   16.1700   21.3226 C   0  0  0  0  0  0  0  0  0  0  0  0
   11.8918   15.2448   19.8443 Cl  0  0  0  0  0  0  0  0  0  0  0  0
  1  2  2  0  0  0
  2  3  2  0  0  0
  2 10  1  0  0  0
 10 12  1  0  0  0
 12 13  1  0  0  0
 13 14  1  0  0  0
 14 15  1  0  0  0
  2  4  1  0  0  0
  4  5  1  0  0  0
  5  6  1  0  0  0
  6  7  1  0  0  0
  7  8  1  0  0  0
  8  9  1  0  0  0
  9  4  1  0  0  0
 10 11  1  0  0  0
M  END
> <minimizedAffinity>
-4.92583

> <minimizedRMSD>
0.48461

$$$$
C8173-P151


 19 19  0  0  0  0  0  0  0  0999 V2000
    8.7299   13.7176   22.4418 O   0  0  0  0  0  0  0  0  0  0  0  0
    9.5393   13.9171   23.2621 C   0  0  0  0  0  0  0  0  0  0  0  0
   10.6609   14.9886   23.3287 N   0  0  0  0  0  0  0  0  0  0  0  0
   11.1719   14.9989   24.1702 H   0  0  0  0  0  0  0  0  0  0  0  0
    9.7167   12.9964   24.4953 C   0  0  0  0  0  0  0  0  0  0  0  0
    9.2491   13.5997   25.6204 F   0  0  0  0  0  0  0  0  0  0  0  0
    8.9646   11.6812   24.2476 C   0  0  0  0  0  0  0  0  0  0  0  0
    8.1179   11.1925   25.4149 C   0  0  0  0  0  0  0  0  0  0  0  0
    7.4906    9.8369   25.1078 C   0  0  0  0  0  0  0  0  0  0  0  0
    8.4504    8.8531   24.6406 N   0  0  0  0  0  0  0  0  0  0  0  0
    9.2816    9.2677   23.5199 C   0  0  0  0  0  0  0  0  0  0  0  0
    9.9462   10.6134   23.7568 C   0  0  0  0  0  0  0  0  0  0  0  0
    7.9336    8.0207   24.3569 H   0  0  0  0  0  0  0  0  0  0  0  0
   11.0764   15.9726   22.3569 C   0  0  0  0  0  0  0  0  0  0  0  0
   11.4928   15.2800   21.0680 C   0  0  0  0  0  0  0  0  0  0  0  0
   10.6755   15.7654   19.9034 C   0  0  0  0  0  0  0  0  0  0  0  0
   11.3526   15.6280   18.7448 F   0  0  0  0  0  0  0  0  0  0  0  0
   10.3686   17.0589   20.0552 F   0  0  0  0  0  0  0  0  0  0  0  0
    9.5091   15.1050   19.7939 F   0  0  0  0  0  0  0  0  0  0  0  0
  1  2  2  0  0  0
  2  3  1  0  0  0
  3 14  1  0  0  0
 14 15  1  0  0  0
 15 16  1  0  0  0
 16 17  1  0  0  0
 16 18  1  0  0  0
 16 19  1  0  0  0
  2  5  1  0  0  0
  5  6  1  0  0  0
  5  7  1  0  0  0
  7  8  1  0  0  0
  8  9  1  0  0  0
  9 10  1  0  0  0
 10 11  1  0  0  0
 11 12  1  0  0  0
 12  7  1  0  0  0
  3  4  1  0  0  0
 10 13  1  0  0  0
M  END
> <minimizedAffinity>
-5.96138

> <minimizedRMSD>
1.39050

$$$$
C8174-P151


 20 20  0  0  0  0  0  0  0  0999 V2000
    9.1333   14.6258   23.0771 N   0  0  0  0  0  0  0  0  0  0  0  0
    8.8940   15.6098   22.9552 H   0  0  0  0  0  0  0  0  0  0  0  0
    7.7290   13.8266   23.3962 S   0  0  0  0  0  0  0  0  0  0  0  0
    7.1720   14.5168   24.5335 O   0  0  0  0  0  0  0  0  0  0  0  0
    7.0307   13.6561   22.1458 O   0  0  0  0  0  0  0  0  0  0  0  0
    8.1456   12.2877   23.9025 N   0  0  0  0  0  0  0  0  0  0  0  0
    7.4743   11.9220   25.1778 C   0  0  0  0  0  0  0  0  0  0  0  0
    7.6600   10.4603   25.5489 C   0  0  0  0  0  0  0  0  0  0  0  0
    8.4190    9.6017   24.5557 C   0  0  0  0  0  0  0  0  0  0  0  0
    9.5230   10.3077   23.7949 C   0  0  0  0  0  0  0  0  0  0  0  0
    9.5300   11.8299   23.8807 C   0  0  0  0  0  0  0  0  0  0  0  0
    9.9325   14.2361   21.9200 C   0  0  0  0  0  0  0  0  0  0  0  0
   11.3822   14.7200   22.0355 C   0  0  0  0  0  0  0  0  0  0  0  0
   11.7736   15.4211   23.3514 C   0  0  0  0  0  0  0  0  0  0  0  0
   12.2115   14.4440   24.4511 C   0  0  0  0  0  0  0  0  0  0  0  0
   12.1776   15.1182   26.8909 C   0  0  0  0  0  0  0  0  0  0  0  0
   11.3660   14.6047   25.7173 C   0  0  0  0  0  0  0  0  0  0  0  0
   11.7671   15.5581   20.8157 C   0  0  0  0  0  0  0  0  0  0  0  0
   10.6425   16.1239   19.9596 C   0  0  0  0  0  0  0  0  0  0  0  0
    9.9255   17.3751   20.4511 C   0  0  0  0  0  0  0  0  0  0  0  0
 16 17  1  0  0  0
 17 15  1  0  0  0
 15 14  1  0  0  0
 13 14  1  0  0  0
 13 18  1  0  0  0
 18 19  1  0  0  0
 19 20  1  0  0  0
 13 12  1  0  0  0
 12  1  1  0  0  0
  1  3  1  0  0  0
  3  4  2  0  0  0
  3  5  2  0  0  0
  3  6  1  0  0  0
  6  7  1  0  0  0
  7  8  1  0  0  0
  8  9  1  0  0  0
  9 10  1  0  0  0
 10 11  1  0  0  0
 11  6  1  0  0  0
  1  2  1  0  0  0
M  END
> <minimizedAffinity>
-5.70285

> <minimizedRMSD>
0.66892

$$$$
C8176-P151


 17 17  0  0  0  0  0  0  0  0999 V2000
    7.9819   14.2836   25.5475 C   0  0  0  0  0  0  0  0  0  0  0  0
    9.0162   13.5625   24.6782 C   0  0  0  0  0  0  0  0  0  0  0  0
   10.2906   13.9757   25.1939 O   0  0  0  0  0  0  0  0  0  0  0  0
   10.3700   14.9400   25.1253 H   0  0  0  0  0  0  0  0  0  0  0  0
    8.9763   12.0167   24.8266 C   0  0  0  0  0  0  0  0  0  0  0  0
    7.6263   11.3983   25.1716 C   0  0  0  0  0  0  0  0  0  0  0  0
    7.7332    9.8840   25.3322 C   0  0  0  0  0  0  0  0  0  0  0  0
    8.5387    9.1923   24.2304 C   0  0  0  0  0  0  0  0  0  0  0  0
    9.7833    9.8675   23.9180 N   0  0  0  0  0  0  0  0  0  0  0  0
    9.6040   11.2783   23.6361 C   0  0  0  0  0  0  0  0  0  0  0  0
   10.1987    9.4222   23.0998 H   0  0  0  0  0  0  0  0  0  0  0  0
    8.7781   14.0362   23.2269 C   0  0  0  0  0  0  0  0  0  0  0  0
    7.8738   13.5375   22.5426 O   0  0  0  0  0  0  0  0  0  0  0  0
    9.6888   15.1427   22.7168 C   0  0  0  0  0  0  0  0  0  0  0  0
    9.8826   16.1308   23.6299 F   0  0  0  0  0  0  0  0  0  0  0  0
    9.2076   15.7361   21.5938 F   0  0  0  0  0  0  0  0  0  0  0  0
   11.4135   14.3381   22.2985 Br  0  0  0  0  0  0  0  0  0  0  0  0
  2  1  1  0  0  0
  2  3  1  0  0  0
  2 12  1  0  0  0
 12 13  2  0  0  0
 12 14  1  0  0  0
 14 15  1  0  0  0
 14 16  1  0  0  0
 14 17  1  0  0  0
  2  5  1  0  0  0
  5  6  1  0  0  0
  6  7  1  0  0  0
  7  8  1  0  0  0
  8  9  1  0  0  0
  9 10  1  0  0  0
 10  5  1  0  0  0
  3  4  1  0  0  0
  9 11  1  0  0  0
M  END
> <minimizedAffinity>
-4.95727

> <minimizedRMSD>
0.17494

$$$$
C8154-P180


 17 17  0  0  0  0  0  0  0  0999 V2000
    9.7858   14.9234   23.6506 N   0  0  0  0  0  0  0  0  0  0  0  0
   10.1824   15.8259   23.9122 H   0  0  0  0  0  0  0  0  0  0  0  0
    9.0505   15.0886   22.1333 S   0  0  0  0  0  0  0  0  0  0  0  0
    7.9648   16.0111   22.3584 O   0  0  0  0  0  0  0  0  0  0  0  0
    8.7904   13.7572   21.6357 O   0  0  0  0  0  0  0  0  0  0  0  0
   10.3419   15.9094   21.1659 C   0  0  0  0  0  0  0  0  0  0  0  0
   11.7351   15.7335   21.7498 C   0  0  0  0  0  0  0  0  0  0  0  0
   11.2934   14.8375   18.9752 C   0  0  0  0  0  0  0  0  0  0  0  0
   10.1643   15.5566   19.6834 C   0  0  0  0  0  0  0  0  0  0  0  0
    8.8771   14.4907   24.7271 C   0  0  0  0  0  0  0  0  0  0  0  0
    9.1945   13.0503   25.1505 C   0  0  0  0  0  0  0  0  0  0  0  0
    7.9434   12.1883   24.9596 C   0  0  0  0  0  0  0  0  0  0  0  0
    8.2444   10.7260   25.2240 C   0  0  0  0  0  0  0  0  0  0  0  0
    9.4788   10.2135   24.4951 C   0  0  0  0  0  0  0  0  0  0  0  0
   10.6372   11.0301   24.8578 N   0  0  0  0  0  0  0  0  0  0  0  0
   10.4053   12.4173   24.4357 C   0  0  0  0  0  0  0  0  0  0  0  0
   11.4690   10.6670   24.3924 H   0  0  0  0  0  0  0  0  0  0  0  0
  8  9  1  0  0  0
  9  6  1  0  0  0
  6  7  1  0  0  0
  6  3  1  0  0  0
  3  4  2  0  0  0
  3  5  2  0  0  0
  3  1  1  0  0  0
  1 10  1  0  0  0
 11 10  1  0  0  0
 11 12  1  0  0  0
 12 13  1  0  0  0
 13 14  1  0  0  0
 14 15  1  0  0  0
 15 16  1  0  0  0
 16 11  1  0  0  0
  1  2  1  0  0  0
 15 17  1  0  0  0
M  END
> <minimizedAffinity>
-5.43062

> <minimizedRMSD>
0.48292

$$$$
C8160-P180


 15 15  0  0  0  0  0  0  0  0999 V2000
    7.9027   13.9240   23.1635 S   0  0  0  0  0  0  0  0  0  0  0  0
    7.0601   13.5437   22.0583 O   0  0  0  0  0  0  0  0  0  0  0  0
    7.4409   14.5057   24.3970 O   0  0  0  0  0  0  0  0  0  0  0  0
    9.2659   14.6927   22.6404 N   0  0  0  0  0  0  0  0  0  0  0  0
   10.3025   15.0573   23.6140 C   0  0  0  0  0  0  0  0  0  0  0  0
   11.6505   14.7800   22.9697 C   0  0  0  0  0  0  0  0  0  0  0  0
   11.7838   15.5868   21.6850 C   0  0  0  0  0  0  0  0  0  0  0  0
   10.6122   15.3408   20.7323 C   0  0  0  0  0  0  0  0  0  0  0  0
    9.2603   15.5140   21.4256 C   0  0  0  0  0  0  0  0  0  0  0  0
    8.7271   12.5412   23.5190 N   0  0  0  0  0  0  0  0  0  0  0  0
    8.5257   11.8773   22.7714 H   0  0  0  0  0  0  0  0  0  0  0  0
    8.4774   11.8542   24.7669 C   0  0  0  0  0  0  0  0  0  0  0  0
   10.9677   11.7380   24.9089 C   0  0  0  0  0  0  0  0  0  0  0  0
    9.6767   10.9289   24.9720 C   0  0  0  0  0  0  0  0  0  0  0  0
    9.7447    9.8022   23.9541 C   0  0  0  0  0  0  0  0  0  0  0  0
 13 14  1  0  0  0
 14 15  1  0  0  0
 14 12  1  0  0  0
 12 10  1  0  0  0
 10  1  1  0  0  0
  1  2  2  0  0  0
  1  3  2  0  0  0
  1  4  1  0  0  0
  4  5  1  0  0  0
  5  6  1  0  0  0
  6  7  1  0  0  0
  7  8  1  0  0  0
  8  9  1  0  0  0
  9  4  1  0  0  0
 10 11  1  0  0  0
M  END
> <minimizedAffinity>
-5.35673

> <minimizedRMSD>
0.41516

$$$$
C8178-P180


 22 22  0  0  0  0  0  0  0  0999 V2000
    7.9042   14.5021   23.5029 C   0  0  0  0  0  0  0  0  0  0  0  0
    9.1708   14.9252   22.8480 N   0  0  0  0  0  0  0  0  0  0  0  0
   10.3378   15.0808   23.7131 C   0  0  0  0  0  0  0  0  0  0  0  0
   11.5602   14.7593   22.8753 C   0  0  0  0  0  0  0  0  0  0  0  0
   11.6634   15.7452   21.7322 C   0  0  0  0  0  0  0  0  0  0  0  0
   10.3827   15.7951   20.9113 C   0  0  0  0  0  0  0  0  0  0  0  0
    9.1296   15.9250   21.7835 C   0  0  0  0  0  0  0  0  0  0  0  0
    7.9390   12.4027   25.1821 C   0  0  0  0  0  0  0  0  0  0  0  0
    6.9229   12.4079   25.7237 O   0  0  0  0  0  0  0  0  0  0  0  0
    8.4736   13.2992   24.1102 N   0  0  0  0  0  0  0  0  0  0  0  0
    9.3534   13.0363   23.7552 H   0  0  0  0  0  0  0  0  0  0  0  0
    8.9613   11.5369   25.3790 O   0  0  0  0  0  0  0  0  0  0  0  0
    9.9598    9.7454   24.1489 C   0  0  0  0  0  0  0  0  0  0  0  0
    8.7274   10.2321   24.8617 C   0  0  0  0  0  0  0  0  0  0  0  0
    6.7182   14.1712   22.5624 C   0  0  0  0  0  0  0  0  0  0  0  0
    5.8216   13.3384   23.1209 F   0  0  0  0  0  0  0  0  0  0  0  0
    6.0567   15.2644   22.1317 F   0  0  0  0  0  0  0  0  0  0  0  0
    7.1633   13.5628   21.4366 F   0  0  0  0  0  0  0  0  0  0  0  0
    7.2369   15.4839   24.5026 C   0  0  0  0  0  0  0  0  0  0  0  0
    6.0365   15.0700   24.9614 F   0  0  0  0  0  0  0  0  0  0  0  0
    8.0046   15.6670   25.6142 F   0  0  0  0  0  0  0  0  0  0  0  0
    7.0631   16.7065   23.9551 F   0  0  0  0  0  0  0  0  0  0  0  0
 13 14  1  0  0  0
 14 12  1  0  0  0
 12  8  1  0  0  0
  8  9  2  0  0  0
  8 10  1  0  0  0
 10  1  1  0  0  0
  1  2  1  0  0  0
  2  3  1  0  0  0
  3  4  1  0  0  0
  4  5  1  0  0  0
  5  6  1  0  0  0
  6  7  1  0  0  0
  1 15  1  0  0  0
 15 16  1  0  0  0
 15 17  1  0  0  0
 15 18  1  0  0  0
  1 19  1  0  0  0
 19 20  1  0  0  0
 19 21  1  0  0  0
 19 22  1  0  0  0
  7  2  1  0  0  0
 10 11  1  0  0  0
M  END
> <minimizedAffinity>
-5.21534

> <minimizedRMSD>
1.18734

$$$$
C901-P186


 24 27  0  0  0  0  0  0  0  0999 V2000
   26.6018   17.2396   24.3792 O   0  0  0  0  0  0  0  0  0  0  0  0
   25.8783   17.8842   23.7239 C   0  0  0  0  0  0  0  0  0  0  0  0
   24.3268   17.9273   23.6834 N   0  0  0  0  0  0  0  0  0  0  0  0
   23.9489   18.6179   23.0922 H   0  0  0  0  0  0  0  0  0  0  0  0
   23.4085   17.1692   24.3291 C   0  0  0  0  0  0  0  0  0  0  0  0
   23.4475   15.7805   24.5595 C   0  0  0  0  0  0  0  0  0  0  0  0
   22.2701   15.4989   25.2123 C   0  0  0  0  0  0  0  0  0  0  0  0
   21.6350   16.6992   25.3654 N   0  0  0  0  0  0  0  0  0  0  0  0
   22.3033   17.7298   24.8187 N   0  0  0  0  0  0  0  0  0  0  0  0
   20.2984   16.8665   25.9661 C   0  0  0  0  0  0  0  0  0  0  0  0
   20.0110   15.9268   27.1660 C   0  0  0  0  0  0  0  0  0  0  0  0
   19.3107   17.1267   27.8366 C   0  0  0  0  0  0  0  0  0  0  0  0
   20.2266   18.0328   26.9876 C   0  0  0  0  0  0  0  0  0  0  0  0
   26.3788   18.9226   22.7288 C   0  0  0  0  0  0  0  0  0  0  0  0
   25.2651   19.8462   22.2344 C   0  0  0  0  0  0  0  0  0  0  0  0
   25.7101   20.6404   21.0319 C   0  0  0  0  0  0  0  0  0  0  0  0
   24.7813   21.3580   20.2478 C   0  0  0  0  0  0  0  0  0  0  0  0
   25.2043   22.1070   19.1438 C   0  0  0  0  0  0  0  0  0  0  0  0
   26.5516   22.1211   18.8530 C   0  0  0  0  0  0  0  0  0  0  0  0
   27.4610   21.4289   19.6140 C   0  0  0  0  0  0  0  0  0  0  0  0
   27.0747   20.6816   20.7036 C   0  0  0  0  0  0  0  0  0  0  0  0
   28.7346   21.5753   19.1665 O   0  0  0  0  0  0  0  0  0  0  0  0
   28.5203   22.3989   18.0066 C   0  0  0  0  0  0  0  0  0  0  0  0
   27.1397   22.7894   17.8247 O   0  0  0  0  0  0  0  0  0  0  0  0
  1  2  2  0  0  0
  2 14  1  0  0  0
 14 15  1  0  0  0
 15 16  1  0  0  0
 16 17  2  0  0  0
 17 18  1  0  0  0
 18 19  2  0  0  0
 19 20  1  0  0  0
 20 21  2  0  0  0
 20 22  1  0  0  0
 22 23  1  0  0  0
 23 24  1  0  0  0
  2  3  1  0  0  0
  3  5  1  0  0  0
  5  6  1  0  0  0
  6  7  2  0  0  0
  7  8  1  0  0  0
  8 10  1  0  0  0
 10 11  1  0  0  0
 11 12  1  0  0  0
 12 13  1  0  0  0
  8  9  1  0  0  0
 21 16  1  0  0  0
  9  5  2  0  0  0
 24 19  1  0  0  0
 13 10  1  0  0  0
  3  4  1  0  0  0
M  END
> <minimizedAffinity>
-4.57011

> <minimizedRMSD>
2.10794

$$$$
C2414-P180


 16 16  0  0  0  0  0  0  0  0999 V2000
    7.6980   14.8207   23.0229 C   0  0  0  0  0  0  0  0  0  0  0  0
    6.9863   13.8128   22.0990 C   0  0  0  0  0  0  0  0  0  0  0  0
    9.0751   15.0385   22.5504 N   0  0  0  0  0  0  0  0  0  0  0  0
   10.1243   15.0966   23.5635 C   0  0  0  0  0  0  0  0  0  0  0  0
   11.3871   14.5079   22.9647 C   0  0  0  0  0  0  0  0  0  0  0  0
   11.8229   15.3325   21.7706 C   0  0  0  0  0  0  0  0  0  0  0  0
   10.6951   15.4886   20.7622 C   0  0  0  0  0  0  0  0  0  0  0  0
    9.3758   15.9128   21.4169 C   0  0  0  0  0  0  0  0  0  0  0  0
    7.8336   14.1902   24.4743 C   0  0  0  0  0  0  0  0  0  0  0  0
    7.9360   14.8596   25.5117 O   0  0  0  0  0  0  0  0  0  0  0  0
    7.6929   12.6852   24.5817 C   0  0  0  0  0  0  0  0  0  0  0  0
    8.8511   12.0964   25.3434 C   0  0  0  0  0  0  0  0  0  0  0  0
    9.7471    9.8753   24.2258 C   0  0  0  0  0  0  0  0  0  0  0  0
    9.3759   10.8881   24.7394 C   0  0  0  0  0  0  0  0  0  0  0  0
    6.8395   16.1161   23.1766 C   0  0  0  0  0  0  0  0  0  0  0  0
    5.3363   15.9546   22.9844 C   0  0  0  0  0  0  0  0  0  0  0  0
 13 14  3  0  0  0
 14 12  1  0  0  0
 12 11  1  0  0  0
 11  9  1  0  0  0
  9 10  2  0  0  0
  9  1  1  0  0  0
  1  2  1  0  0  0
  1 15  1  0  0  0
 15 16  1  0  0  0
  1  3  1  0  0  0
  3  4  1  0  0  0
  4  5  1  0  0  0
  5  6  1  0  0  0
  6  7  1  0  0  0
  7  8  1  0  0  0
  8  3  1  0  0  0
M  END
> <minimizedAffinity>
-5.15097

> <minimizedRMSD>
1.72632

$$$$
C10375-P494


 21 24  0  0  0  0  0  0  0  0999 V2000
   18.9561   -4.7439   26.4986 C   0  0  0  0  0  0  0  0  0  0  0  0
   19.4023   -3.8504   27.4754 C   0  0  0  0  0  0  0  0  0  0  0  0
   19.6107   -2.5098   27.1547 C   0  0  0  0  0  0  0  0  0  0  0  0
   19.3592   -2.0701   25.8503 C   0  0  0  0  0  0  0  0  0  0  0  0
   18.9042   -2.9545   24.8626 C   0  0  0  0  0  0  0  0  0  0  0  0
   18.7107   -4.2995   25.1992 C   0  0  0  0  0  0  0  0  0  0  0  0
   18.6351   -2.4935   23.4867 C   0  0  0  0  0  0  0  0  0  0  0  0
   18.0992   -3.3746   22.4388 C   0  0  0  0  0  0  0  0  0  0  0  0
   17.8041   -2.9265   21.2026 C   0  0  0  0  0  0  0  0  0  0  0  0
   18.0137   -1.5589   20.8896 C   0  0  0  0  0  0  0  0  0  0  0  0
   17.7853   -0.8364   19.8138 N   0  0  0  0  0  0  0  0  0  0  0  0
   18.1746    0.4561   20.0868 N   0  0  0  0  0  0  0  0  0  0  0  0
   18.6400    0.4857   21.3171 C   0  0  0  0  0  0  0  0  0  0  0  0
   18.5443   -0.7540   21.8832 N   0  0  0  0  0  0  0  0  0  0  0  0
   18.8510   -1.1989   23.1648 C   0  0  0  0  0  0  0  0  0  0  0  0
   20.0412   -1.5309   28.0057 O   0  0  0  0  0  0  0  0  0  0  0  0
   19.2127   -1.1711   29.1136 C   0  0  0  0  0  0  0  0  0  0  0  0
   19.9150   -0.0486   29.8769 C   0  0  0  0  0  0  0  0  0  0  0  0
   19.6429    1.2097   29.0557 C   0  0  0  0  0  0  0  0  0  0  0  0
   18.3763    0.9239   28.2512 C   0  0  0  0  0  0  0  0  0  0  0  0
   17.9324   -0.4821   28.6476 C   0  0  0  0  0  0  0  0  0  0  0  0
  1  2  2  0  0  0
  2  3  1  0  0  0
  3 16  1  0  0  0
 16 17  1  0  0  0
 17 18  1  0  0  0
 18 19  1  0  0  0
 19 20  1  0  0  0
 20 21  1  0  0  0
  3  4  2  0  0  0
  4  5  1  0  0  0
  5  7  1  0  0  0
  7  8  1  0  0  0
  8  9  2  0  0  0
  9 10  1  0  0  0
 10 11  2  0  0  0
 11 12  1  0  0  0
 12 13  2  0  0  0
 13 14  1  0  0  0
 14 15  1  0  0  0
  5  6  2  0  0  0
  6  1  1  0  0  0
 21 17  1  0  0  0
 15  7  2  0  0  0
 14 10  1  0  0  0
M  END
> <minimizedAffinity>
-4.87447

> <minimizedRMSD>
3.12314

$$$$
C7518-P37


 17 17  0  0  0  0  0  0  0  0999 V2000
   10.1014   12.2410   23.5704 N   0  0  0  0  0  0  0  0  0  0  0  0
   10.4560   11.3459   23.2335 H   0  0  0  0  0  0  0  0  0  0  0  0
    9.1534   12.0120   24.6542 C   0  0  0  0  0  0  0  0  0  0  0  0
    8.1772   13.1724   24.8464 C   0  0  0  0  0  0  0  0  0  0  0  0
    7.3058   12.9195   26.0710 C   0  0  0  0  0  0  0  0  0  0  0  0
    6.6797   11.5402   26.0644 C   0  0  0  0  0  0  0  0  0  0  0  0
    7.5660   10.4535   25.6945 N   0  0  0  0  0  0  0  0  0  0  0  0
    8.4296   10.6726   24.5442 C   0  0  0  0  0  0  0  0  0  0  0  0
    6.9871    9.6378   25.4946 H   0  0  0  0  0  0  0  0  0  0  0  0
   11.2177   13.0554   24.0640 C   0  0  0  0  0  0  0  0  0  0  0  0
   12.4188   13.0419   23.1328 C   0  0  0  0  0  0  0  0  0  0  0  0
   12.8951   14.3690   22.9682 O   0  0  0  0  0  0  0  0  0  0  0  0
   12.7006   14.8070   21.6298 C   0  0  0  0  0  0  0  0  0  0  0  0
   11.2250   14.9463   21.2897 C   0  0  0  0  0  0  0  0  0  0  0  0
   11.6679   14.4254   18.7915 C   0  0  0  0  0  0  0  0  0  0  0  0
   10.6613   14.7192   19.8835 C   0  0  0  0  0  0  0  0  0  0  0  0
    9.8070   15.9334   19.4844 C   0  0  0  0  0  0  0  0  0  0  0  0
 15 16  1  0  0  0
 16 17  1  0  0  0
 16 14  1  0  0  0
 14 13  1  0  0  0
 13 12  1  0  0  0
 12 11  1  0  0  0
 11 10  1  0  0  0
 10  1  1  0  0  0
  3  1  1  0  0  0
  3  4  1  0  0  0
  4  5  1  0  0  0
  5  6  1  0  0  0
  6  7  1  0  0  0
  7  8  1  0  0  0
  8  3  1  0  0  0
  1  2  1  0  0  0
  7  9  1  0  0  0
M  END
> <minimizedAffinity>
-4.64000

> <minimizedRMSD>
0.56692

$$$$
C18171-P252


 16 16  0  0  0  0  0  0  0  0999 V2000
    9.2858   13.6118   22.5324 C   0  0  0  0  0  0  0  0  0  0  0  0
   10.5991   15.3837   23.7094 C   0  0  0  0  0  0  0  0  0  0  0  0
    9.6693   15.1062   22.5182 C   0  0  0  0  0  0  0  0  0  0  0  0
    8.3835   15.9645   22.5804 C   0  0  0  0  0  0  0  0  0  0  0  0
   10.3703   15.4777   21.1740 C   0  0  0  0  0  0  0  0  0  0  0  0
   11.8553   15.1832   21.0461 C   0  0  0  0  0  0  0  0  0  0  0  0
   12.1281   14.9003   19.7493 F   0  0  0  0  0  0  0  0  0  0  0  0
   12.5821   16.2792   21.3733 F   0  0  0  0  0  0  0  0  0  0  0  0
    8.7479   13.0346   23.8486 C   0  0  0  0  0  0  0  0  0  0  0  0
    8.1848   13.7126   24.7035 O   0  0  0  0  0  0  0  0  0  0  0  0
    8.8352   11.5914   24.0081 C   0  0  0  0  0  0  0  0  0  0  0  0
    9.7332   10.6569   23.4505 C   0  0  0  0  0  0  0  0  0  0  0  0
    9.4230    9.4009   23.7734 N   0  0  0  0  0  0  0  0  0  0  0  0
    8.3446    9.5265   24.5546 N   0  0  0  0  0  0  0  0  0  0  0  0
    7.9749   10.8168   24.7598 C   0  0  0  0  0  0  0  0  0  0  0  0
    7.8659    8.7588   24.9427 H   0  0  0  0  0  0  0  0  0  0  0  0
  2  3  1  0  0  0
  3  4  1  0  0  0
  3  1  1  0  0  0
  1  9  1  0  0  0
  9 10  2  0  0  0
  9 11  1  0  0  0
 11 12  1  0  0  0
 12 13  2  0  0  0
 13 14  1  0  0  0
 14 15  1  0  0  0
  3  5  1  0  0  0
  5  6  1  0  0  0
  6  7  1  0  0  0
  6  8  1  0  0  0
 15 11  2  0  0  0
 14 16  1  0  0  0
M  END
> <minimizedAffinity>
-5.36820

> <minimizedRMSD>
1.04520

$$$$
C18177-P252


 12 12  0  0  0  0  0  0  0  0999 V2000
    9.4533   12.5916   24.5122 C   0  0  0  0  0  0  0  0  0  0  0  0
    8.6690   13.4012   25.1628 N   0  0  0  0  0  0  0  0  0  0  0  0
    8.9987   11.2146   24.4163 C   0  0  0  0  0  0  0  0  0  0  0  0
    7.7879   10.6580   24.8863 C   0  0  0  0  0  0  0  0  0  0  0  0
    7.6746    9.3538   24.6201 N   0  0  0  0  0  0  0  0  0  0  0  0
    8.8300    9.0577   23.9969 N   0  0  0  0  0  0  0  0  0  0  0  0
    9.6494   10.1418   23.8409 C   0  0  0  0  0  0  0  0  0  0  0  0
    9.0618    8.1531   23.6851 H   0  0  0  0  0  0  0  0  0  0  0  0
   11.9329   12.8192   24.8417 C   0  0  0  0  0  0  0  0  0  0  0  0
   10.7741   12.9935   23.8786 C   0  0  0  0  0  0  0  0  0  0  0  0
    9.2069   14.6954   25.2263 O   0  0  0  0  0  0  0  0  0  0  0  0
    8.1376   15.6306   25.2733 C   0  0  0  0  0  0  0  0  0  0  0  0
  9 10  1  0  0  0
 10  1  1  0  0  0
  1  2  2  0  0  0
  2 11  1  0  0  0
 11 12  1  0  0  0
  1  3  1  0  0  0
  3  4  1  0  0  0
  4  5  2  0  0  0
  5  6  1  0  0  0
  6  7  1  0  0  0
  7  3  2  0  0  0
  6  8  1  0  0  0
M  END
> <minimizedAffinity>
-4.27571

> <minimizedRMSD>
1.74222

$$$$
C2382-P373


 15 15  0  0  0  0  0  0  0  0999 V2000
    8.6556   14.7335   23.1629 C   0  0  0  0  0  0  0  0  0  0  0  0
    7.4544   14.4258   22.2420 C   0  0  0  0  0  0  0  0  0  0  0  0
    8.2534   15.9313   24.0481 C   0  0  0  0  0  0  0  0  0  0  0  0
    9.8950   14.9613   22.3680 N   0  0  0  0  0  0  0  0  0  0  0  0
   10.8528   15.8811   23.0046 C   0  0  0  0  0  0  0  0  0  0  0  0
   12.2107   15.7356   22.3387 C   0  0  0  0  0  0  0  0  0  0  0  0
   12.1276   16.1240   20.8737 C   0  0  0  0  0  0  0  0  0  0  0  0
   11.0443   15.3126   20.1840 C   0  0  0  0  0  0  0  0  0  0  0  0
    9.7192   15.3437   20.9534 C   0  0  0  0  0  0  0  0  0  0  0  0
    8.9347   13.5206   24.1310 C   0  0  0  0  0  0  0  0  0  0  0  0
    9.7560   13.5591   25.0563 O   0  0  0  0  0  0  0  0  0  0  0  0
    8.0691   12.2827   23.9828 C   0  0  0  0  0  0  0  0  0  0  0  0
    7.5337   10.3460   25.4781 C   0  0  0  0  0  0  0  0  0  0  0  0
    8.6302   11.0856   24.7339 C   0  0  0  0  0  0  0  0  0  0  0  0
    9.4534   10.1525   23.8408 C   0  0  0  0  0  0  0  0  0  0  0  0
 13 14  1  0  0  0
 14 15  1  0  0  0
 14 12  1  0  0  0
 12 10  1  0  0  0
 10 11  2  0  0  0
 10  1  1  0  0  0
  1  2  1  0  0  0
  1  3  1  0  0  0
  1  4  1  0  0  0
  4  5  1  0  0  0
  5  6  1  0  0  0
  6  7  1  0  0  0
  7  8  1  0  0  0
  8  9  1  0  0  0
  9  4  1  0  0  0
M  END
> <minimizedAffinity>
-5.21152

> <minimizedRMSD>
0.64764

$$$$
C542-P445


 19 22  0  0  0  0  0  0  0  0999 V2000
   23.4386   22.7546   18.3757 N   0  0  0  0  0  0  0  0  0  0  0  0
   23.0323   23.4550   17.1481 C   0  0  0  0  0  0  0  0  0  0  0  0
   21.6490   24.1286   17.3264 C   0  0  0  0  0  0  0  0  0  0  0  0
   20.5913   23.1889   17.7956 N   0  0  0  0  0  0  0  0  0  0  0  0
   21.0607   22.5979   19.0725 C   0  0  0  0  0  0  0  0  0  0  0  0
   22.4050   21.8599   18.9172 C   0  0  0  0  0  0  0  0  0  0  0  0
   28.6685   20.7778   20.4481 C   0  0  0  0  0  0  0  0  0  0  0  0
   29.2874   21.2117   19.2799 C   0  0  0  0  0  0  0  0  0  0  0  0
   28.5437   21.8006   18.2516 C   0  0  0  0  0  0  0  0  0  0  0  0
   27.1567   21.9405   18.4269 C   0  0  0  0  0  0  0  0  0  0  0  0
   25.9845   22.6099   17.3664 S   0  0  0  0  0  0  0  0  0  0  0  0
   24.7317   22.3227   18.5273 C   0  0  0  0  0  0  0  0  0  0  0  0
   25.1525   21.7263   19.6246 N   0  0  0  0  0  0  0  0  0  0  0  0
   26.5175   21.5133   19.5871 C   0  0  0  0  0  0  0  0  0  0  0  0
   27.2872   20.9241   20.6119 C   0  0  0  0  0  0  0  0  0  0  0  0
   19.3502   23.9446   18.0427 C   0  0  0  0  0  0  0  0  0  0  0  0
   18.3800   23.8002   16.8394 C   0  0  0  0  0  0  0  0  0  0  0  0
   17.2561   23.5905   17.8761 C   0  0  0  0  0  0  0  0  0  0  0  0
   18.3466   23.0582   18.8293 C   0  0  0  0  0  0  0  0  0  0  0  0
  7  8  2  0  0  0
  8  9  1  0  0  0
  9 10  2  0  0  0
 10 11  1  0  0  0
 11 12  1  0  0  0
 12  1  1  0  0  0
  1  2  1  0  0  0
  2  3  1  0  0  0
  3  4  1  0  0  0
  4 16  1  0  0  0
 16 17  1  0  0  0
 17 18  1  0  0  0
 18 19  1  0  0  0
  4  5  1  0  0  0
  5  6  1  0  0  0
 12 13  2  0  0  0
 13 14  1  0  0  0
 14 15  2  0  0  0
 15  7  1  0  0  0
 14 10  1  0  0  0
  6  1  1  0  0  0
 19 16  1  0  0  0
M  END
> <minimizedAffinity>
-4.11641

> <minimizedRMSD>
1.81791

$$$$
C14594-P615


 27 28  0  0  0  0  0  0  0  0999 V2000
    9.2745   -8.5995   11.8690 N   0  0  0  0  0  0  0  0  0  0  0  0
   10.6081   -9.3257   12.1867 C   0  0  0  0  0  0  0  0  0  0  0  0
   11.0251  -10.3086   11.7868 O   0  0  0  0  0  0  0  0  0  0  0  0
   11.2231   -8.3065   13.1917 N   0  0  0  0  0  0  0  0  0  0  0  0
    9.1753   -7.7148   12.2894 H   0  0  0  0  0  0  0  0  0  0  0  0
   10.6293   -7.5617   13.4407 H   0  0  0  0  0  0  0  0  0  0  0  0
   12.4746   -8.2803   13.7927 C   0  0  0  0  0  0  0  0  0  0  0  0
   13.4945   -9.1293   13.3971 C   0  0  0  0  0  0  0  0  0  0  0  0
   14.6665   -9.0934   14.1297 C   0  0  0  0  0  0  0  0  0  0  0  0
   14.8687   -8.3062   15.2122 N   0  0  0  0  0  0  0  0  0  0  0  0
   13.8774   -7.4640   15.5349 C   0  0  0  0  0  0  0  0  0  0  0  0
   12.6735   -7.4123   14.8594 C   0  0  0  0  0  0  0  0  0  0  0  0
   13.9295   -6.8011   16.7490 O   0  0  0  0  0  0  0  0  0  0  0  0
   15.0294   -5.8938   16.9039 C   0  0  0  0  0  0  0  0  0  0  0  0
   16.0895   -6.3684   17.8881 C   0  0  0  0  0  0  0  0  0  0  0  0
   17.1801   -5.3095   18.0377 C   0  0  0  0  0  0  0  0  0  0  0  0
   16.6118   -4.0159   18.5979 C   0  0  0  0  0  0  0  0  0  0  0  0
   15.4632   -3.4979   17.7436 C   0  0  0  0  0  0  0  0  0  0  0  0
   14.4265   -4.5730   17.4127 C   0  0  0  0  0  0  0  0  0  0  0  0
    7.4742  -10.2352   11.6962 C   0  0  0  0  0  0  0  0  0  0  0  0
    8.1394   -9.0189   11.0439 C   0  0  0  0  0  0  0  0  0  0  0  0
    8.5267   -9.3801    9.6004 C   0  0  0  0  0  0  0  0  0  0  0  0
    8.8831   -8.1801    8.9015 O   0  0  0  0  0  0  0  0  0  0  0  0
    8.1284   -7.5707    8.8996 H   0  0  0  0  0  0  0  0  0  0  0  0
    7.1642   -7.8333   10.9757 C   0  0  0  0  0  0  0  0  0  0  0  0
    6.3648   -7.8800    9.8013 O   0  0  0  0  0  0  0  0  0  0  0  0
    6.9365   -7.8344    9.0190 H   0  0  0  0  0  0  0  0  0  0  0  0
 20 21  1  0  0  0
 21 22  1  0  0  0
 22 23  1  0  0  0
 21 25  1  0  0  0
 25 26  1  0  0  0
 21  1  1  0  0  0
  1  2  1  0  0  0
  2  3  2  0  0  0
  2  4  1  0  0  0
  4  7  1  0  0  0
  7  8  2  0  0  0
  8  9  1  0  0  0
  9 10  2  0  0  0
 10 11  1  0  0  0
 11 13  1  0  0  0
 13 14  1  0  0  0
 14 15  1  0  0  0
 15 16  1  0  0  0
 16 17  1  0  0  0
 17 18  1  0  0  0
 18 19  1  0  0  0
 11 12  2  0  0  0
 12  7  1  0  0  0
 19 14  1  0  0  0
 23 24  1  0  0  0
 26 27  1  0  0  0
  1  5  1  0  0  0
  4  6  1  0  0  0
M  END
> <minimizedAffinity>
-7.50803

> <minimizedRMSD>
1.24366

$$$$
C8152-P146


 15 15  0  0  0  0  0  0  0  0999 V2000
    9.1050   13.4473   24.6258 C   0  0  0  0  0  0  0  0  0  0  0  0
    8.2065   14.4482   25.1315 O   0  0  0  0  0  0  0  0  0  0  0  0
    7.4013   14.4628   24.5909 H   0  0  0  0  0  0  0  0  0  0  0  0
    8.4729   12.0489   24.7188 C   0  0  0  0  0  0  0  0  0  0  0  0
    7.8186   11.6546   25.6798 O   0  0  0  0  0  0  0  0  0  0  0  0
    8.6373   11.2408   23.6424 O   0  0  0  0  0  0  0  0  0  0  0  0
    8.9770    8.8867   23.7017 C   0  0  0  0  0  0  0  0  0  0  0  0
    9.6559   10.2319   23.6382 C   0  0  0  0  0  0  0  0  0  0  0  0
    9.4846   13.8006   23.1697 C   0  0  0  0  0  0  0  0  0  0  0  0
    9.5972   15.2538   22.9584 N   0  0  0  0  0  0  0  0  0  0  0  0
   10.8764   15.8332   23.4041 C   0  0  0  0  0  0  0  0  0  0  0  0
   12.0593   15.5574   22.4779 C   0  0  0  0  0  0  0  0  0  0  0  0
   11.7572   16.0066   21.0554 C   0  0  0  0  0  0  0  0  0  0  0  0
   10.4621   15.3717   20.5776 C   0  0  0  0  0  0  0  0  0  0  0  0
    9.3168   15.6194   21.5584 C   0  0  0  0  0  0  0  0  0  0  0  0
  7  8  1  0  0  0
  8  6  1  0  0  0
  6  4  1  0  0  0
  4  5  2  0  0  0
  4  1  1  0  0  0
  1  2  1  0  0  0
  1  9  1  0  0  0
  9 10  1  0  0  0
 10 11  1  0  0  0
 11 12  1  0  0  0
 12 13  1  0  0  0
 13 14  1  0  0  0
 14 15  1  0  0  0
 15 10  1  0  0  0
  2  3  1  0  0  0
M  END
> <minimizedAffinity>
-4.81867

> <minimizedRMSD>
0.59069

$$$$
C8163-P146


 17 17  0  0  0  0  0  0  0  0999 V2000
    8.7936   13.1843   23.1805 S   0  0  0  0  0  0  0  0  0  0  0  0
    7.4909   13.1710   22.5515 O   0  0  0  0  0  0  0  0  0  0  0  0
    9.8268   12.2261   22.8586 O   0  0  0  0  0  0  0  0  0  0  0  0
    9.3721   14.7340   23.0005 N   0  0  0  0  0  0  0  0  0  0  0  0
    9.7795   14.7852   22.0668 H   0  0  0  0  0  0  0  0  0  0  0  0
   10.3752   15.2766   23.9243 C   0  0  0  0  0  0  0  0  0  0  0  0
   11.7923   15.0946   23.3898 C   0  0  0  0  0  0  0  0  0  0  0  0
   12.0749   16.2163   20.9872 C   0  0  0  0  0  0  0  0  0  0  0  0
   11.9733   15.7524   22.0893 C   0  0  0  0  0  0  0  0  0  0  0  0
    8.5240   13.1391   24.9324 C   0  0  0  0  0  0  0  0  0  0  0  0
    7.3344   12.2645   25.3087 C   0  0  0  0  0  0  0  0  0  0  0  0
    7.6453   10.7689   25.2328 C   0  0  0  0  0  0  0  0  0  0  0  0
    6.4335    9.9840   25.6862 C   0  0  0  0  0  0  0  0  0  0  0  0
    5.9042   10.4239   27.0435 C   0  0  0  0  0  0  0  0  0  0  0  0
    5.6667   11.8633   27.0876 N   0  0  0  0  0  0  0  0  0  0  0  0
    6.8475   12.6356   26.7128 C   0  0  0  0  0  0  0  0  0  0  0  0
    5.3945   12.1212   28.0361 H   0  0  0  0  0  0  0  0  0  0  0  0
  8  9  3  0  0  0
  9  7  1  0  0  0
  7  6  1  0  0  0
  6  4  1  0  0  0
  4  1  1  0  0  0
  1  2  2  0  0  0
  1  3  2  0  0  0
  1 10  1  0  0  0
 11 10  1  0  0  0
 11 12  1  0  0  0
 12 13  1  0  0  0
 13 14  1  0  0  0
 14 15  1  0  0  0
 15 16  1  0  0  0
 16 11  1  0  0  0
  4  5  1  0  0  0
 15 17  1  0  0  0
M  END
> <minimizedAffinity>
-4.68801

> <minimizedRMSD>
0.59228

$$$$
C8176-P146


 17 17  0  0  0  0  0  0  0  0999 V2000
    9.3327   14.5523   25.1107 C   0  0  0  0  0  0  0  0  0  0  0  0
    9.4712   13.5631   23.9438 C   0  0  0  0  0  0  0  0  0  0  0  0
   10.8612   13.5104   23.5820 O   0  0  0  0  0  0  0  0  0  0  0  0
   11.1521   14.3876   23.2872 H   0  0  0  0  0  0  0  0  0  0  0  0
    9.1044   12.1267   24.3970 C   0  0  0  0  0  0  0  0  0  0  0  0
    9.5448   11.0280   23.4206 C   0  0  0  0  0  0  0  0  0  0  0  0
    9.1862    9.6499   23.9430 C   0  0  0  0  0  0  0  0  0  0  0  0
    7.7813    9.5781   24.5253 C   0  0  0  0  0  0  0  0  0  0  0  0
    7.4917   10.6309   25.4926 N   0  0  0  0  0  0  0  0  0  0  0  0
    7.6479   11.9384   24.8461 C   0  0  0  0  0  0  0  0  0  0  0  0
    8.1385   10.5595   26.2780 H   0  0  0  0  0  0  0  0  0  0  0  0
    8.6213   14.0670   22.7507 C   0  0  0  0  0  0  0  0  0  0  0  0
    7.6605   13.4301   22.3024 O   0  0  0  0  0  0  0  0  0  0  0  0
    8.9871   15.4425   22.2263 C   0  0  0  0  0  0  0  0  0  0  0  0
   10.1209   15.9452   22.8027 F   0  0  0  0  0  0  0  0  0  0  0  0
    9.1873   15.4776   20.8884 F   0  0  0  0  0  0  0  0  0  0  0  0
    7.4627   16.5751   22.6827 Br  0  0  0  0  0  0  0  0  0  0  0  0
  2  1  1  0  0  0
  2  3  1  0  0  0
  2 12  1  0  0  0
 12 13  2  0  0  0
 12 14  1  0  0  0
 14 15  1  0  0  0
 14 16  1  0  0  0
 14 17  1  0  0  0
  2  5  1  0  0  0
  5  6  1  0  0  0
  6  7  1  0  0  0
  7  8  1  0  0  0
  8  9  1  0  0  0
  9 10  1  0  0  0
 10  5  1  0  0  0
  3  4  1  0  0  0
  9 11  1  0  0  0
M  END
> <minimizedAffinity>
-4.97755

> <minimizedRMSD>
1.02624

$$$$
C13035-P2


 19 20  0  0  0  0  0  0  0  0999 V2000
    5.0911   10.2884   28.2473 C   0  0  0  0  0  0  0  0  0  0  0  0
    5.3742   11.1083   29.0282 O   0  0  0  0  0  0  0  0  0  0  0  0
    5.6584   10.0120   26.8264 N   0  0  0  0  0  0  0  0  0  0  0  0
    5.3027    9.2043   26.3901 H   0  0  0  0  0  0  0  0  0  0  0  0
    6.5653   10.7043   26.0892 C   0  0  0  0  0  0  0  0  0  0  0  0
    7.3924   10.1512   25.0703 C   0  0  0  0  0  0  0  0  0  0  0  0
    8.1335   11.2156   24.6446 C   0  0  0  0  0  0  0  0  0  0  0  0
    7.6321   12.2918   25.2849 N   0  0  0  0  0  0  0  0  0  0  0  0
    6.7721   12.0182   26.2498 N   0  0  0  0  0  0  0  0  0  0  0  0
    8.2561   13.5526   24.9559 C   0  0  0  0  0  0  0  0  0  0  0  0
    9.4980   13.0813   24.1782 C   0  0  0  0  0  0  0  0  0  0  0  0
    9.2641   11.5892   23.7894 C   0  0  0  0  0  0  0  0  0  0  0  0
    3.9442    9.3004   28.4324 C   0  0  0  0  0  0  0  0  0  0  0  0
    1.9589    9.8277   30.0030 C   0  0  0  0  0  0  0  0  0  0  0  0
    3.3210    9.1562   29.8267 C   0  0  0  0  0  0  0  0  0  0  0  0
    3.1607    7.6677   30.1168 C   0  0  0  0  0  0  0  0  0  0  0  0
    2.4202    7.4585   31.2228 F   0  0  0  0  0  0  0  0  0  0  0  0
    4.3621    7.0769   30.3055 F   0  0  0  0  0  0  0  0  0  0  0  0
    2.5676    7.0375   29.0795 F   0  0  0  0  0  0  0  0  0  0  0  0
 15 14  1  0  0  0
 15 13  1  0  0  0
 13  1  1  0  0  0
  1  2  2  0  0  0
  1  3  1  0  0  0
  3  5  1  0  0  0
  5  6  1  0  0  0
  6  7  2  0  0  0
  7  8  1  0  0  0
  8  9  1  0  0  0
  8 10  1  0  0  0
 10 11  1  0  0  0
 11 12  1  0  0  0
 15 16  1  0  0  0
 16 17  1  0  0  0
 16 18  1  0  0  0
 16 19  1  0  0  0
  9  5  2  0  0  0
 12  7  1  0  0  0
  3  4  1  0  0  0
M  END
> <minimizedAffinity>
-4.65439

> <minimizedRMSD>
2.02966

$$$$
C25758-P122


 13 13  0  0  0  0  0  0  0  0999 V2000
    7.8664   13.0144   23.6039 C   0  0  0  0  0  0  0  0  0  0  0  0
    8.5788   12.2417   24.6902 C   0  0  0  0  0  0  0  0  0  0  0  0
    8.6568   12.6412   25.8491 O   0  0  0  0  0  0  0  0  0  0  0  0
   10.5177    9.2483   23.3899 C   0  0  0  0  0  0  0  0  0  0  0  0
   10.2784   10.5142   24.1106 C   0  0  0  0  0  0  0  0  0  0  0  0
   11.5610   11.1814   24.4716 C   0  0  0  0  0  0  0  0  0  0  0  0
    9.0151   10.8810   24.3682 C   0  0  0  0  0  0  0  0  0  0  0  0
    8.8149   13.9397   22.8225 C   0  0  0  0  0  0  0  0  0  0  0  0
   10.1970   13.5688   22.9865 N   0  0  0  0  0  0  0  0  0  0  0  0
   11.0498   14.5961   23.5714 C   0  0  0  0  0  0  0  0  0  0  0  0
   11.8517   15.1160   22.4062 C   0  0  0  0  0  0  0  0  0  0  0  0
   12.1129   13.8610   21.6173 C   0  0  0  0  0  0  0  0  0  0  0  0
   10.7988   13.1460   21.7319 C   0  0  0  0  0  0  0  0  0  0  0  0
  4  5  1  0  0  0
  5  6  1  0  0  0
  5  7  2  0  0  0
  7  2  1  0  0  0
  2  3  2  0  0  0
  2  1  1  0  0  0
  1  8  1  0  0  0
  8  9  1  0  0  0
  9 10  1  0  0  0
 10 11  1  0  0  0
 11 12  1  0  0  0
 12 13  1  0  0  0
 13  9  1  0  0  0
M  END
> <minimizedAffinity>
-2.59894

> <minimizedRMSD>
0.82048

$$$$
C1780-P441


 12 13  0  0  0  0  0  0  0  0999 V2000
    9.9791   13.3440   22.8299 C   0  0  0  0  0  0  0  0  0  0  0  0
   10.9460   14.3403   23.4747 C   0  0  0  0  0  0  0  0  0  0  0  0
   11.6821   15.1537   22.4027 C   0  0  0  0  0  0  0  0  0  0  0  0
   10.9808   15.1112   21.0487 C   0  0  0  0  0  0  0  0  0  0  0  0
    9.4686   15.0995   21.2010 C   0  0  0  0  0  0  0  0  0  0  0  0
    8.9480   14.0073   22.0243 N   0  0  0  0  0  0  0  0  0  0  0  0
    8.5216   13.3138   21.4098 H   0  0  0  0  0  0  0  0  0  0  0  0
    8.6108   10.4939   24.8604 C   0  0  0  0  0  0  0  0  0  0  0  0
    9.5721   11.0545   23.9818 C   0  0  0  0  0  0  0  0  0  0  0  0
    9.3189   12.3989   23.7873 C   0  0  0  0  0  0  0  0  0  0  0  0
    7.9786   12.8353   24.7601 S   0  0  0  0  0  0  0  0  0  0  0  0
    7.6892   11.3128   25.3570 N   0  0  0  0  0  0  0  0  0  0  0  0
  8  9  1  0  0  0
  9 10  2  0  0  0
  1 10  1  0  0  0
  1  2  1  0  0  0
  2  3  1  0  0  0
  3  4  1  0  0  0
  4  5  1  0  0  0
  5  6  1  0  0  0
 10 11  1  0  0  0
 11 12  1  0  0  0
 12  8  2  0  0  0
  6  1  1  0  0  0
  6  7  1  0  0  0
M  END
> <minimizedAffinity>
-5.06798

> <minimizedRMSD>
0.43782

$$$$
C26247-P205


 15 15  0  0  0  0  0  0  0  0999 V2000
   10.4313   13.5241   23.8777 C   0  0  0  0  0  0  0  0  0  0  0  0
   11.2599   12.8951   24.4173 O   0  0  0  0  0  0  0  0  0  0  0  0
    8.9813   13.1269   23.4396 N   0  0  0  0  0  0  0  0  0  0  0  0
    8.5010   13.8176   22.9283 H   0  0  0  0  0  0  0  0  0  0  0  0
    8.2729   11.9739   23.6525 N   0  0  0  0  0  0  0  0  0  0  0  0
    9.0800   10.7597   23.7459 C   0  0  0  0  0  0  0  0  0  0  0  0
    8.1038    9.7778   24.3525 C   0  0  0  0  0  0  0  0  0  0  0  0
    7.2497   10.6108   25.2880 C   0  0  0  0  0  0  0  0  0  0  0  0
    7.5374   12.0531   24.9193 C   0  0  0  0  0  0  0  0  0  0  0  0
   10.6011   15.0335   23.5632 C   0  0  0  0  0  0  0  0  0  0  0  0
    9.4276   15.6108   22.7392 C   0  0  0  0  0  0  0  0  0  0  0  0
   10.6903   15.7516   24.9312 C   0  0  0  0  0  0  0  0  0  0  0  0
   11.9607   15.2309   22.8373 C   0  0  0  0  0  0  0  0  0  0  0  0
   11.8193   15.3963   20.1858 C   0  0  0  0  0  0  0  0  0  0  0  0
   11.8282   15.3360   21.3831 C   0  0  0  0  0  0  0  0  0  0  0  0
 14 15  3  0  0  0
 15 13  1  0  0  0
 13 10  1  0  0  0
 10 11  1  0  0  0
 10 12  1  0  0  0
 10  1  1  0  0  0
  1  2  2  0  0  0
  1  3  1  0  0  0
  3  5  1  0  0  0
  5  6  1  0  0  0
  6  7  1  0  0  0
  7  8  1  0  0  0
  8  9  1  0  0  0
  9  5  1  0  0  0
  3  4  1  0  0  0
M  END
> <minimizedAffinity>
-5.35031

> <minimizedRMSD>
1.29674

$$$$
C11212-P135


 15 15  0  0  0  0  0  0  0  0999 V2000
    9.8123   14.7256   22.9261 O   0  0  0  0  0  0  0  0  0  0  0  0
   10.7357   13.9587   23.1989 C   0  0  0  0  0  0  0  0  0  0  0  0
   10.7173   13.2248   24.5364 C   0  0  0  0  0  0  0  0  0  0  0  0
    9.2879   12.8461   24.9027 C   0  0  0  0  0  0  0  0  0  0  0  0
    9.0362   11.3616   25.1164 C   0  0  0  0  0  0  0  0  0  0  0  0
    9.3316   10.4527   23.9424 C   0  0  0  0  0  0  0  0  0  0  0  0
   10.6434   10.1563   23.8647 F   0  0  0  0  0  0  0  0  0  0  0  0
    8.6598    9.2927   24.1494 F   0  0  0  0  0  0  0  0  0  0  0  0
   11.8834   13.6374   22.2646 C   0  0  0  0  0  0  0  0  0  0  0  0
   12.3307   14.6355   21.2320 C   0  0  0  0  0  0  0  0  0  0  0  0
   12.1689   14.3342   19.8742 C   0  0  0  0  0  0  0  0  0  0  0  0
   12.6229   15.2178   18.9006 C   0  0  0  0  0  0  0  0  0  0  0  0
   13.2383   16.3843   19.3155 C   0  0  0  0  0  0  0  0  0  0  0  0
   13.4231   16.7188   20.6076 N   0  0  0  0  0  0  0  0  0  0  0  0
   12.9687   15.8306   21.5293 C   0  0  0  0  0  0  0  0  0  0  0  0
  1  2  2  0  0  0
  2  3  1  0  0  0
  3  4  1  0  0  0
  4  5  1  0  0  0
  5  6  1  0  0  0
  6  7  1  0  0  0
  6  8  1  0  0  0
  2  9  1  0  0  0
  9 10  1  0  0  0
 10 11  2  0  0  0
 11 12  1  0  0  0
 12 13  2  0  0  0
 13 14  1  0  0  0
 14 15  2  0  0  0
 15 10  1  0  0  0
M  END
> <minimizedAffinity>
-5.43254

> <minimizedRMSD>
1.07624

$$$$
C20066-P550


 18 18  0  0  0  0  0  0  0  0999 V2000
    8.8636   14.7273   23.9328 C   0  0  0  0  0  0  0  0  0  0  0  0
    7.8937   15.8797   23.5384 C   0  0  0  0  0  0  0  0  0  0  0  0
    9.4835   15.1453   25.2895 C   0  0  0  0  0  0  0  0  0  0  0  0
    7.9951   13.4216   24.0364 C   0  0  0  0  0  0  0  0  0  0  0  0
    6.7110   13.6256   24.8720 C   0  0  0  0  0  0  0  0  0  0  0  0
    6.3683   12.4622   25.7777 C   0  0  0  0  0  0  0  0  0  0  0  0
    6.6924   11.1920   25.2038 N   0  0  0  0  0  0  0  0  0  0  0  0
    7.8832   10.9651   24.5746 C   0  0  0  0  0  0  0  0  0  0  0  0
    8.1945    9.8446   24.1948 O   0  0  0  0  0  0  0  0  0  0  0  0
    8.7794   12.1735   24.4510 C   0  0  0  0  0  0  0  0  0  0  0  0
    6.0373   10.4596   25.2643 H   0  0  0  0  0  0  0  0  0  0  0  0
    9.9427   14.6266   22.7737 C   0  0  0  0  0  0  0  0  0  0  0  0
    9.4176   13.7490   21.7801 O   0  0  0  0  0  0  0  0  0  0  0  0
    9.2869   12.8677   22.1636 H   0  0  0  0  0  0  0  0  0  0  0  0
   11.4078   14.3315   23.2250 C   0  0  0  0  0  0  0  0  0  0  0  0
   11.7365   13.2886   23.7894 O   0  0  0  0  0  0  0  0  0  0  0  0
   12.3746   16.1672   21.9052 C   0  0  0  0  0  0  0  0  0  0  0  0
   12.3519   15.2824   23.0308 O   0  0  0  0  0  0  0  0  0  0  0  0
 17 18  1  0  0  0
 18 15  1  0  0  0
 15 16  2  0  0  0
 15 12  1  0  0  0
 12 13  1  0  0  0
 12  1  1  0  0  0
  1  2  1  0  0  0
  1  3  1  0  0  0
  4  1  1  0  0  0
  4  5  1  0  0  0
  5  6  1  0  0  0
  6  7  1  0  0  0
  7  8  1  0  0  0
  8  9  2  0  0  0
  8 10  1  0  0  0
 10  4  1  0  0  0
 13 14  1  0  0  0
  7 11  1  0  0  0
M  END
> <minimizedAffinity>
-5.51256

> <minimizedRMSD>
1.03556

$$$$
C20082-P550


 17 17  0  0  0  0  0  0  0  0999 V2000
    8.7962   14.6099   24.7027 C   0  0  0  0  0  0  0  0  0  0  0  0
    8.4796   11.8375   23.7195 O   0  0  0  0  0  0  0  0  0  0  0  0
    7.6740   12.2821   24.5316 C   0  0  0  0  0  0  0  0  0  0  0  0
    6.7261   11.4399   25.0283 N   0  0  0  0  0  0  0  0  0  0  0  0
    6.0942   11.6526   26.2943 C   0  0  0  0  0  0  0  0  0  0  0  0
    5.8235   13.1023   26.6336 C   0  0  0  0  0  0  0  0  0  0  0  0
    6.9715   14.0160   26.2681 C   0  0  0  0  0  0  0  0  0  0  0  0
    7.5236   13.7663   24.8611 C   0  0  0  0  0  0  0  0  0  0  0  0
    6.4654   10.6542   24.4955 H   0  0  0  0  0  0  0  0  0  0  0  0
    9.3946   14.5644   23.3602 N   0  0  0  0  0  0  0  0  0  0  0  0
    9.0483   15.3645   22.8308 H   0  0  0  0  0  0  0  0  0  0  0  0
   11.0721   14.6094   23.3378 S   0  0  0  0  0  0  0  0  0  0  0  0
   11.5500   13.2793   23.6334 O   0  0  0  0  0  0  0  0  0  0  0  0
   11.5196   15.6997   24.1732 O   0  0  0  0  0  0  0  0  0  0  0  0
   11.4374   14.9971   21.6593 C   0  0  0  0  0  0  0  0  0  0  0  0
   10.5243   16.0259   21.0488 C   0  0  0  0  0  0  0  0  0  0  0  0
   10.2543   15.7327   19.3139 Cl  0  0  0  0  0  0  0  0  0  0  0  0
  2  3  2  0  0  0
  3  4  1  0  0  0
  4  5  1  0  0  0
  5  6  1  0  0  0
  6  7  1  0  0  0
  7  8  1  0  0  0
  8  1  1  0  0  0
  1 10  1  0  0  0
 10 12  1  0  0  0
 12 13  2  0  0  0
 12 14  2  0  0  0
 12 15  1  0  0  0
 15 16  1  0  0  0
 16 17  1  0  0  0
  8  3  1  0  0  0
  4  9  1  0  0  0
 10 11  1  0  0  0
M  END
> <minimizedAffinity>
-4.42832

> <minimizedRMSD>
1.20688

$$$$
C1791-P197


 16 18  0  0  0  0  0  0  0  0999 V2000
    7.8299   10.8577   25.2411 C   0  0  0  0  0  0  0  0  0  0  0  0
    8.7809   10.2338   24.2015 C   0  0  0  0  0  0  0  0  0  0  0  0
    9.8657   11.1451   23.6126 C   0  0  0  0  0  0  0  0  0  0  0  0
    9.4164   12.5402   23.6339 C   0  0  0  0  0  0  0  0  0  0  0  0
   10.1171   13.5343   23.0404 O   0  0  0  0  0  0  0  0  0  0  0  0
    9.3796   14.6607   23.3082 C   0  0  0  0  0  0  0  0  0  0  0  0
    8.2813   14.4287   24.0072 N   0  0  0  0  0  0  0  0  0  0  0  0
    8.3276   13.0859   24.2476 C   0  0  0  0  0  0  0  0  0  0  0  0
    7.3710   12.3166   25.0535 C   0  0  0  0  0  0  0  0  0  0  0  0
    9.9352   15.9806   22.8737 C   0  0  0  0  0  0  0  0  0  0  0  0
   11.4445   16.0729   23.1288 C   0  0  0  0  0  0  0  0  0  0  0  0
   12.2750   15.4162   22.0299 C   0  0  0  0  0  0  0  0  0  0  0  0
   11.9147   15.9147   20.7120 N   0  0  0  0  0  0  0  0  0  0  0  0
   10.5076   15.6634   20.4110 C   0  0  0  0  0  0  0  0  0  0  0  0
    9.5833   16.3295   21.4257 C   0  0  0  0  0  0  0  0  0  0  0  0
   12.4918   15.4484   20.0121 H   0  0  0  0  0  0  0  0  0  0  0  0
  1  2  1  0  0  0
  2  3  1  0  0  0
  3  4  1  0  0  0
  4  5  1  0  0  0
  5  6  1  0  0  0
  6 10  1  0  0  0
 10 11  1  0  0  0
 11 12  1  0  0  0
 12 13  1  0  0  0
 13 14  1  0  0  0
 14 15  1  0  0  0
  6  7  2  0  0  0
  7  8  1  0  0  0
  8  9  1  0  0  0
  9  1  1  0  0  0
  8  4  2  0  0  0
 15 10  1  0  0  0
 13 16  1  0  0  0
M  END
> <minimizedAffinity>
-5.78065

> <minimizedRMSD>
0.54438

$$$$
C1795-P197


 15 17  0  0  0  0  0  0  0  0999 V2000
    9.4709   14.6246   23.2313 C   0  0  0  0  0  0  0  0  0  0  0  0
   10.0971   13.4710   23.1498 N   0  0  0  0  0  0  0  0  0  0  0  0
    9.3420   12.4596   23.6901 C   0  0  0  0  0  0  0  0  0  0  0  0
    8.1960   12.8802   24.3140 C   0  0  0  0  0  0  0  0  0  0  0  0
    7.9166   14.5254   23.9769 S   0  0  0  0  0  0  0  0  0  0  0  0
    7.2951   12.0452   25.1333 C   0  0  0  0  0  0  0  0  0  0  0  0
    7.8001   10.6031   25.2538 C   0  0  0  0  0  0  0  0  0  0  0  0
    8.7656   10.0679   24.1923 C   0  0  0  0  0  0  0  0  0  0  0  0
    9.7929   11.0490   23.6339 C   0  0  0  0  0  0  0  0  0  0  0  0
   11.9644   15.9213   20.6978 C   0  0  0  0  0  0  0  0  0  0  0  0
   12.3309   15.4493   22.0986 C   0  0  0  0  0  0  0  0  0  0  0  0
   11.3986   16.0476   23.1458 C   0  0  0  0  0  0  0  0  0  0  0  0
    9.9840   15.8222   22.8392 N   0  0  0  0  0  0  0  0  0  0  0  0
    9.5946   16.2800   21.4928 C   0  0  0  0  0  0  0  0  0  0  0  0
   10.4869   15.6684   20.4112 C   0  0  0  0  0  0  0  0  0  0  0  0
 10 11  1  0  0  0
 11 12  1  0  0  0
 12 13  1  0  0  0
 13  1  1  0  0  0
  1  2  2  0  0  0
  2  3  1  0  0  0
  3  4  2  0  0  0
  4  5  1  0  0  0
  4  6  1  0  0  0
  6  7  1  0  0  0
  7  8  1  0  0  0
  8  9  1  0  0  0
 13 14  1  0  0  0
 14 15  1  0  0  0
 15 10  1  0  0  0
  5  1  1  0  0  0
  9  3  1  0  0  0
M  END
> <minimizedAffinity>
-6.06814

> <minimizedRMSD>
0.48493

$$$$
C7479-P296


 24 25  0  0  0  0  0  0  0  0999 V2000
    7.1307   14.6388   22.1773 S   0  0  0  0  0  0  0  0  0  0  0  0
    6.5380   13.3062   22.1882 O   0  0  0  0  0  0  0  0  0  0  0  0
    7.9981   14.8953   21.0458 O   0  0  0  0  0  0  0  0  0  0  0  0
    7.5003   15.2141   23.5521 N   0  0  0  0  0  0  0  0  0  0  0  0
    8.8649   14.7171   24.0505 S   0  0  0  0  0  0  0  0  0  0  0  0
    9.2264   15.6390   25.5293 C   0  0  0  0  0  0  0  0  0  0  0  0
   10.0820   14.7684   23.2686 O   0  0  0  0  0  0  0  0  0  0  0  0
    8.7555   13.0500   24.6998 C   0  0  0  0  0  0  0  0  0  0  0  0
    9.2077   12.0382   23.6592 C   0  0  0  0  0  0  0  0  0  0  0  0
    9.1805   10.6268   24.1829 C   0  0  0  0  0  0  0  0  0  0  0  0
    7.9781   10.2331   25.0117 C   0  0  0  0  0  0  0  0  0  0  0  0
    7.4049   11.3190   25.9049 C   0  0  0  0  0  0  0  0  0  0  0  0
    7.3782   12.6925   25.2512 C   0  0  0  0  0  0  0  0  0  0  0  0
    5.8367   15.6263   21.8446 N   0  0  0  0  0  0  0  0  0  0  0  0
    6.0105   16.5170   22.3103 H   0  0  0  0  0  0  0  0  0  0  0  0
    4.5082   15.1880   22.2397 C   0  0  0  0  0  0  0  0  0  0  0  0
    3.4381   14.6810   19.9174 C   0  0  0  0  0  0  0  0  0  0  0  0
    2.4283   15.2484   19.1937 O   0  0  0  0  0  0  0  0  0  0  0  0
    2.0642   16.3283   19.9204 C   0  0  0  0  0  0  0  0  0  0  0  0
    2.7244   16.4995   21.0459 N   0  0  0  0  0  0  0  0  0  0  0  0
    3.5941   15.4182   21.0784 C   0  0  0  0  0  0  0  0  0  0  0  0
    3.9312   13.4415   17.8123 C   0  0  0  0  0  0  0  0  0  0  0  0
    4.0666   13.4719   19.3344 C   0  0  0  0  0  0  0  0  0  0  0  0
    3.4706   12.2055   19.9479 C   0  0  0  0  0  0  0  0  0  0  0  0
 22 23  1  0  0  0
 23 24  1  0  0  0
 23 17  1  0  0  0
 17 18  1  0  0  0
 18 19  1  0  0  0
 19 20  2  0  0  0
 20 21  1  0  0  0
 21 16  1  0  0  0
 16 14  1  0  0  0
 14  1  1  0  0  0
  1  2  2  0  0  0
  1  3  2  0  0  0
  1  4  1  0  0  0
  4  5  2  0  0  0
  5  6  1  0  0  0
  5  7  2  0  0  0
  5  8  1  0  0  0
  8  9  1  0  0  0
  9 10  1  0  0  0
 10 11  1  0  0  0
 11 12  1  0  0  0
 12 13  1  0  0  0
 21 17  2  0  0  0
 13  8  1  0  0  0
 14 15  1  0  0  0
M  END
> <minimizedAffinity>
-6.03433

> <minimizedRMSD>
0.84538

$$$$
C6285-P557


 13 14  0  0  0  0  0  0  0  0999 V2000
    9.5622   13.8391   24.2442 N   0  0  0  0  0  0  0  0  0  0  0  0
   10.5757   14.2350   25.2413 C   0  0  0  0  0  0  0  0  0  0  0  0
   12.0040   13.8981   24.7717 C   0  0  0  0  0  0  0  0  0  0  0  0
   12.3362   14.5646   23.5095 N   0  0  0  0  0  0  0  0  0  0  0  0
   11.3827   14.1321   22.4732 C   0  0  0  0  0  0  0  0  0  0  0  0
    9.8910   14.2899   22.8640 C   0  0  0  0  0  0  0  0  0  0  0  0
   13.2839   14.3127   23.2288 H   0  0  0  0  0  0  0  0  0  0  0  0
    8.9604   10.1691   24.0588 C   0  0  0  0  0  0  0  0  0  0  0  0
    7.9154   10.0844   24.9578 C   0  0  0  0  0  0  0  0  0  0  0  0
    7.4340   11.1437   25.6352 N   0  0  0  0  0  0  0  0  0  0  0  0
    8.0020   12.3469   25.3487 C   0  0  0  0  0  0  0  0  0  0  0  0
    9.0474   12.5602   24.4440 C   0  0  0  0  0  0  0  0  0  0  0  0
    9.5313   11.4199   23.8138 C   0  0  0  0  0  0  0  0  0  0  0  0
  8  9  2  0  0  0
  9 10  1  0  0  0
 10 11  2  0  0  0
 11 12  1  0  0  0
 12  1  1  0  0  0
  1  2  1  0  0  0
  2  3  1  0  0  0
  3  4  1  0  0  0
  4  5  1  0  0  0
  5  6  1  0  0  0
 12 13  2  0  0  0
 13  8  1  0  0  0
  6  1  1  0  0  0
  4  7  1  0  0  0
M  END
> <minimizedAffinity>
-4.84391

> <minimizedRMSD>
1.12505

$$$$
C709-P557


 12 13  0  0  0  0  0  0  0  0999 V2000
    9.3215   10.9821   23.7554 C   0  0  0  0  0  0  0  0  0  0  0  0
    8.3743   10.8375   24.7501 C   0  0  0  0  0  0  0  0  0  0  0  0
    7.8131   11.8780   25.3949 N   0  0  0  0  0  0  0  0  0  0  0  0
    8.1911   13.1167   24.9782 C   0  0  0  0  0  0  0  0  0  0  0  0
    9.1237   13.3872   23.9718 C   0  0  0  0  0  0  0  0  0  0  0  0
    9.7011   12.2714   23.3767 C   0  0  0  0  0  0  0  0  0  0  0  0
    9.4518   14.6970   23.6399 N   0  0  0  0  0  0  0  0  0  0  0  0
   10.6572   15.2230   24.2996 C   0  0  0  0  0  0  0  0  0  0  0  0
   11.9384   14.9568   23.5110 C   0  0  0  0  0  0  0  0  0  0  0  0
   11.9106   15.7992   21.9059 S   0  0  0  0  0  0  0  0  0  0  0  0
   10.3645   15.0720   21.2847 C   0  0  0  0  0  0  0  0  0  0  0  0
    9.1924   15.1897   22.2663 C   0  0  0  0  0  0  0  0  0  0  0  0
  1  2  2  0  0  0
  2  3  1  0  0  0
  3  4  2  0  0  0
  4  5  1  0  0  0
  5  7  1  0  0  0
  7  8  1  0  0  0
  8  9  1  0  0  0
  9 10  1  0  0  0
 10 11  1  0  0  0
 11 12  1  0  0  0
  5  6  2  0  0  0
  6  1  1  0  0  0
 12  7  1  0  0  0
M  END
> <minimizedAffinity>
-4.54622

> <minimizedRMSD>
0.24358

$$$$
C90474-P543


 11 11  0  0  0  0  0  0  0  0999 V2000
    9.9854   13.4369   22.1054 N   0  0  0  0  0  0  0  0  0  0  0  0
    9.8086   13.0412   21.1821 H   0  0  0  0  0  0  0  0  0  0  0  0
   10.3274   14.8313   21.9718 N   0  0  0  0  0  0  0  0  0  0  0  0
    9.4879   15.4903   20.9168 C   0  0  0  0  0  0  0  0  0  0  0  0
   10.5359   15.0886   19.8759 C   0  0  0  0  0  0  0  0  0  0  0  0
   11.4901   14.9987   21.0548 C   0  0  0  0  0  0  0  0  0  0  0  0
    8.7753   13.2988   22.9380 C   0  0  0  0  0  0  0  0  0  0  0  0
    9.5867   11.0120   23.6877 C   0  0  0  0  0  0  0  0  0  0  0  0
    8.9988   12.3330   24.1262 C   0  0  0  0  0  0  0  0  0  0  0  0
    7.7179   12.2031   24.9301 C   0  0  0  0  0  0  0  0  0  0  0  0
    9.9145   12.8429   24.9845 F   0  0  0  0  0  0  0  0  0  0  0  0
  8  9  1  0  0  0
  9 10  1  0  0  0
  9 11  1  0  0  0
  9  7  1  0  0  0
  7  1  1  0  0  0
  1  3  1  0  0  0
  3  4  1  0  0  0
  4  5  1  0  0  0
  5  6  1  0  0  0
  6  3  1  0  0  0
  1  2  1  0  0  0
M  END
> <minimizedAffinity>
-4.46343

> <minimizedRMSD>
1.40134

$$$$
C4728-P344


  9  9  0  0  0  0  0  0  0  0999 V2000
   10.3893   13.9208   24.5566 N   0  0  0  0  0  0  0  0  0  0  0  0
    8.9989   13.8322   25.0621 C   0  0  0  0  0  0  0  0  0  0  0  0
    8.5865   12.4220   24.8008 C   0  0  0  0  0  0  0  0  0  0  0  0
    9.4599   11.8308   23.9832 C   0  0  0  0  0  0  0  0  0  0  0  0
   10.5320   12.7921   23.6050 C   0  0  0  0  0  0  0  0  0  0  0  0
   10.6480   15.2168   23.8972 C   0  0  0  0  0  0  0  0  0  0  0  0
   12.0529   15.3076   23.2899 C   0  0  0  0  0  0  0  0  0  0  0  0
   11.1539   16.8057   21.6122 O   0  0  0  0  0  0  0  0  0  0  0  0
   12.0537   16.0564   21.9786 C   0  0  0  0  0  0  0  0  0  0  0  0
  8  9  2  0  0  0
  9  7  1  0  0  0
  7  6  1  0  0  0
  6  1  1  0  0  0
  1  2  1  0  0  0
  2  3  1  0  0  0
  3  4  2  0  0  0
  4  5  1  0  0  0
  5  1  1  0  0  0
M  END
> <minimizedAffinity>
-3.47075

> <minimizedRMSD>
0.76659

$$$$
C4745-P440


 13 14  0  0  0  0  0  0  0  0999 V2000
    8.5718   12.3522   23.6057 C   0  0  0  0  0  0  0  0  0  0  0  0
    7.8467   12.4539   24.9645 C   0  0  0  0  0  0  0  0  0  0  0  0
    6.9267   11.3330   25.2742 N   0  0  0  0  0  0  0  0  0  0  0  0
    7.6299   10.0440   25.3084 C   0  0  0  0  0  0  0  0  0  0  0  0
    8.3472    9.6477   24.0181 C   0  0  0  0  0  0  0  0  0  0  0  0
    9.6312   10.8498   23.5714 S   0  0  0  0  0  0  0  0  0  0  0  0
    6.2008   11.2943   24.5587 H   0  0  0  0  0  0  0  0  0  0  0  0
   10.8961   15.1479   22.8917 C   0  0  0  0  0  0  0  0  0  0  0  0
   10.6685   13.9864   23.5914 C   0  0  0  0  0  0  0  0  0  0  0  0
    9.3452   13.5981   23.2501 C   0  0  0  0  0  0  0  0  0  0  0  0
    8.7640   14.5220   22.4675 N   0  0  0  0  0  0  0  0  0  0  0  0
    9.7518   15.3928   22.1917 N   0  0  0  0  0  0  0  0  0  0  0  0
    9.6578   16.1327   21.5490 H   0  0  0  0  0  0  0  0  0  0  0  0
  8  9  2  0  0  0
  9 10  1  0  0  0
  1 10  1  0  0  0
  1  2  1  0  0  0
  2  3  1  0  0  0
  3  4  1  0  0  0
  4  5  1  0  0  0
  5  6  1  0  0  0
 10 11  2  0  0  0
 11 12  1  0  0  0
 12  8  1  0  0  0
  6  1  1  0  0  0
  3  7  1  0  0  0
 12 13  1  0  0  0
M  END
> <minimizedAffinity>
-4.01340

> <minimizedRMSD>
0.78555

$$$$
C82633-P168


 14 14  0  0  0  0  0  0  0  0999 V2000
    8.0694   15.9307   21.5088 N   0  0  0  0  0  0  0  0  0  0  0  0
    7.3129   16.6078   21.4100 H   0  0  0  0  0  0  0  0  0  0  0  0
    7.6907   14.9491   22.8109 S   0  0  0  0  0  0  0  0  0  0  0  0
    8.7408   15.0979   23.7900 O   0  0  0  0  0  0  0  0  0  0  0  0
    7.3614   13.6500   22.2578 O   0  0  0  0  0  0  0  0  0  0  0  0
    6.2166   15.6949   23.4675 C   0  0  0  0  0  0  0  0  0  0  0  0
    5.6926   14.5785   25.7768 N   0  0  0  0  0  0  0  0  0  0  0  0
    5.9542   15.0271   24.7371 C   0  0  0  0  0  0  0  0  0  0  0  0
    9.3408   16.6946   21.5546 C   0  0  0  0  0  0  0  0  0  0  0  0
   10.4502   15.9550   20.9191 C   0  0  0  0  0  0  0  0  0  0  0  0
   11.6439   15.4688   21.4147 C   0  0  0  0  0  0  0  0  0  0  0  0
   12.4471   14.8069   20.5046 N   0  0  0  0  0  0  0  0  0  0  0  0
   11.8566   14.8185   19.3315 C   0  0  0  0  0  0  0  0  0  0  0  0
   10.3704   15.6501   19.2469 S   0  0  0  0  0  0  0  0  0  0  0  0
  7  8  3  0  0  0
  8  6  1  0  0  0
  6  3  1  0  0  0
  3  4  2  0  0  0
  3  5  2  0  0  0
  3  1  1  0  0  0
  1  9  1  0  0  0
  9 10  1  0  0  0
 10 11  2  0  0  0
 11 12  1  0  0  0
 12 13  2  0  0  0
 13 14  1  0  0  0
 14 10  1  0  0  0
  1  2  1  0  0  0
M  END
> <minimizedAffinity>
-3.89916

> <minimizedRMSD>
0.91708

$$$$
C7527-P453


 16 16  0  0  0  0  0  0  0  0999 V2000
   10.1916   13.8135   24.6123 C   0  0  0  0  0  0  0  0  0  0  0  0
    9.8042   14.2709   23.2794 N   0  0  0  0  0  0  0  0  0  0  0  0
    8.8229   14.0454   23.1159 H   0  0  0  0  0  0  0  0  0  0  0  0
    9.9909   15.6988   23.1794 N   0  0  0  0  0  0  0  0  0  0  0  0
   11.4374   15.9920   23.2282 C   0  0  0  0  0  0  0  0  0  0  0  0
   12.2263   15.4406   22.0445 C   0  0  0  0  0  0  0  0  0  0  0  0
   11.6581   15.9538   20.7329 C   0  0  0  0  0  0  0  0  0  0  0  0
   10.1599   15.7052   20.6534 C   0  0  0  0  0  0  0  0  0  0  0  0
    9.4304   16.2033   21.9040 C   0  0  0  0  0  0  0  0  0  0  0  0
   10.7292   12.3890   24.4832 C   0  0  0  0  0  0  0  0  0  0  0  0
    9.7724   11.5145   23.8854 O   0  0  0  0  0  0  0  0  0  0  0  0
    9.0851   10.6909   24.8305 C   0  0  0  0  0  0  0  0  0  0  0  0
    6.9728   10.2848   25.8307 F   0  0  0  0  0  0  0  0  0  0  0  0
    7.8227   11.2755   25.4759 C   0  0  0  0  0  0  0  0  0  0  0  0
    8.1292   11.9570   26.6034 F   0  0  0  0  0  0  0  0  0  0  0  0
    7.1536   12.1264   24.6769 F   0  0  0  0  0  0  0  0  0  0  0  0
 13 14  1  0  0  0
 14 15  1  0  0  0
 14 16  1  0  0  0
 14 12  1  0  0  0
 12 11  1  0  0  0
 11 10  1  0  0  0
 10  1  1  0  0  0
  1  2  1  0  0  0
  2  4  1  0  0  0
  4  5  1  0  0  0
  5  6  1  0  0  0
  6  7  1  0  0  0
  7  8  1  0  0  0
  8  9  1  0  0  0
  9  4  1  0  0  0
  2  3  1  0  0  0
M  END
> <minimizedAffinity>
-4.45099

> <minimizedRMSD>
0.52276

$$$$
C7529-P453


 14 14  0  0  0  0  0  0  0  0999 V2000
   11.1668   12.0176   24.7823 O   0  0  0  0  0  0  0  0  0  0  0  0
   10.0906   12.3305   24.4254 C   0  0  0  0  0  0  0  0  0  0  0  0
    9.6400   13.3984   23.3562 N   0  0  0  0  0  0  0  0  0  0  0  0
    8.6667   13.5314   23.2905 H   0  0  0  0  0  0  0  0  0  0  0  0
   10.3880   14.1749   22.4996 N   0  0  0  0  0  0  0  0  0  0  0  0
   11.1994   15.1925   23.1722 C   0  0  0  0  0  0  0  0  0  0  0  0
   12.2056   15.7383   22.1701 C   0  0  0  0  0  0  0  0  0  0  0  0
   11.5145   16.3563   20.9674 C   0  0  0  0  0  0  0  0  0  0  0  0
   10.5315   15.3720   20.3484 C   0  0  0  0  0  0  0  0  0  0  0  0
    9.6043   14.7628   21.4011 C   0  0  0  0  0  0  0  0  0  0  0  0
    8.7968   11.6423   24.8857 C   0  0  0  0  0  0  0  0  0  0  0  0
    7.6897   12.1470   24.2737 F   0  0  0  0  0  0  0  0  0  0  0  0
    8.5592   11.7350   26.2153 F   0  0  0  0  0  0  0  0  0  0  0  0
    8.9872    9.9253   24.4737 Cl  0  0  0  0  0  0  0  0  0  0  0  0
  1  2  2  0  0  0
  2  3  1  0  0  0
  3  5  1  0  0  0
  5  6  1  0  0  0
  6  7  1  0  0  0
  7  8  1  0  0  0
  8  9  1  0  0  0
  9 10  1  0  0  0
  2 11  1  0  0  0
 11 12  1  0  0  0
 11 13  1  0  0  0
 11 14  1  0  0  0
 10  5  1  0  0  0
  3  4  1  0  0  0
M  END
> <minimizedAffinity>
-4.79166

> <minimizedRMSD>
0.94165

$$$$
C5649-P481


 20 22  0  0  0  0  0  0  0  0999 V2000
   19.2535   18.7727    2.9709 C   0  0  0  0  0  0  0  0  0  0  0  0
   18.7509   17.3636    2.7750 C   0  0  0  0  0  0  0  0  0  0  0  0
   17.5302   16.9684    3.3432 C   0  0  0  0  0  0  0  0  0  0  0  0
   17.0922   15.6390    3.2781 C   0  0  0  0  0  0  0  0  0  0  0  0
   17.9084   14.6917    2.6405 C   0  0  0  0  0  0  0  0  0  0  0  0
   17.8658   13.2997    2.4115 C   0  0  0  0  0  0  0  0  0  0  0  0
   18.9327   12.8519    1.7457 N   0  0  0  0  0  0  0  0  0  0  0  0
   19.6829   13.9614    1.5750 N   0  0  0  0  0  0  0  0  0  0  0  0
   19.1077   15.1020    2.0720 C   0  0  0  0  0  0  0  0  0  0  0  0
   19.5594   16.4244    2.1120 C   0  0  0  0  0  0  0  0  0  0  0  0
   20.5629   13.9521    1.1338 H   0  0  0  0  0  0  0  0  0  0  0  0
   19.7816   18.8169    4.2992 O   0  0  0  0  0  0  0  0  0  0  0  0
   20.6594   20.9103    4.0210 O   0  0  0  0  0  0  0  0  0  0  0  0
   20.7025   19.7933    4.5157 C   0  0  0  0  0  0  0  0  0  0  0  0
   21.7569   19.2952    5.4859 C   0  0  0  0  0  0  0  0  0  0  0  0
   23.0137   18.8564    4.7169 C   0  0  0  0  0  0  0  0  0  0  0  0
   24.2140   18.6723    5.5985 C   0  0  0  0  0  0  0  0  0  0  0  0
   24.2636   19.0982    6.8684 C   0  0  0  0  0  0  0  0  0  0  0  0
   23.1440   19.8474    7.5276 C   0  0  0  0  0  0  0  0  0  0  0  0
   22.1041   20.3629    6.5301 C   0  0  0  0  0  0  0  0  0  0  0  0
 13 14  2  0  0  0
 14 12  1  0  0  0
 12  1  1  0  0  0
  1  2  1  0  0  0
  2  3  2  0  0  0
  3  4  1  0  0  0
  4  5  2  0  0  0
  5  6  1  0  0  0
  6  7  2  0  0  0
  7  8  1  0  0  0
  8  9  1  0  0  0
  9 10  2  0  0  0
 15 14  1  0  0  0
 15 16  1  0  0  0
 16 17  1  0  0  0
 17 18  2  0  0  0
 18 19  1  0  0  0
 19 20  1  0  0  0
 10  2  1  0  0  0
 20 15  1  0  0  0
  9  5  1  0  0  0
  8 11  1  0  0  0
M  END
> <minimizedAffinity>
-3.80804

> <minimizedRMSD>
1.95897

$$$$
C4751-P558


 13 14  0  0  0  0  0  0  0  0999 V2000
   10.4235   15.4923   24.2454 N   0  0  0  0  0  0  0  0  0  0  0  0
   11.3332   15.7888   25.3705 C   0  0  0  0  0  0  0  0  0  0  0  0
   10.7179   15.5184   26.7530 C   0  0  0  0  0  0  0  0  0  0  0  0
    9.3818   16.1105   26.9252 N   0  0  0  0  0  0  0  0  0  0  0  0
    8.5125   15.4884   25.9025 C   0  0  0  0  0  0  0  0  0  0  0  0
    8.9833   15.7776   24.4618 C   0  0  0  0  0  0  0  0  0  0  0  0
    9.4231   17.1201   26.7860 H   0  0  0  0  0  0  0  0  0  0  0  0
   12.1469   15.8945   21.1237 C   0  0  0  0  0  0  0  0  0  0  0  0
   12.2215   15.5107   22.4768 C   0  0  0  0  0  0  0  0  0  0  0  0
   10.9481   15.6772   22.9851 C   0  0  0  0  0  0  0  0  0  0  0  0
   10.2091   16.1099   21.9069 N   0  0  0  0  0  0  0  0  0  0  0  0
   10.9149   16.2656   20.7745 N   0  0  0  0  0  0  0  0  0  0  0  0
    9.2428   16.2903   21.9614 H   0  0  0  0  0  0  0  0  0  0  0  0
  8  9  1  0  0  0
  9 10  2  0  0  0
 10  1  1  0  0  0
  1  2  1  0  0  0
  2  3  1  0  0  0
  3  4  1  0  0  0
  4  5  1  0  0  0
  5  6  1  0  0  0
 10 11  1  0  0  0
 11 12  1  0  0  0
 12  8  2  0  0  0
  6  1  1  0  0  0
  4  7  1  0  0  0
 11 13  1  0  0  0
M  END
> <minimizedAffinity>
-4.11093

> <minimizedRMSD>
0.85140

$$$$
C2493-P225


 20 22  0  0  0  0  0  0  0  0999 V2000
    9.2718    9.7958   23.6897 O   0  0  0  0  0  0  0  0  0  0  0  0
    8.9480   10.9065   24.0325 C   0  0  0  0  0  0  0  0  0  0  0  0
    9.6619   12.2517   23.7561 C   0  0  0  0  0  0  0  0  0  0  0  0
   10.8020   12.3505   23.3744 O   0  0  0  0  0  0  0  0  0  0  0  0
    8.7655   13.2381   24.1327 N   0  0  0  0  0  0  0  0  0  0  0  0
    7.7076   12.6492   24.8645 C   0  0  0  0  0  0  0  0  0  0  0  0
    6.7207   13.2606   25.6157 C   0  0  0  0  0  0  0  0  0  0  0  0
    5.8344   12.4365   26.3249 C   0  0  0  0  0  0  0  0  0  0  0  0
    4.5169   13.2352   27.4252 Br  0  0  0  0  0  0  0  0  0  0  0  0
    5.9158   11.0329   26.2580 C   0  0  0  0  0  0  0  0  0  0  0  0
    6.8993   10.4288   25.4793 C   0  0  0  0  0  0  0  0  0  0  0  0
    7.7785   11.2603   24.8199 C   0  0  0  0  0  0  0  0  0  0  0  0
    8.9763   14.6753   24.0853 C   0  0  0  0  0  0  0  0  0  0  0  0
    9.5454   15.3536   22.8164 C   0  0  0  0  0  0  0  0  0  0  0  0
   11.0703   15.5613   22.8813 C   0  0  0  0  0  0  0  0  0  0  0  0
   11.6533   16.0568   21.5614 C   0  0  0  0  0  0  0  0  0  0  0  0
   11.2012   15.2643   20.4357 N   0  0  0  0  0  0  0  0  0  0  0  0
    9.7557   15.3487   20.2785 C   0  0  0  0  0  0  0  0  0  0  0  0
    9.0619   14.7369   21.4945 C   0  0  0  0  0  0  0  0  0  0  0  0
   11.4629   14.2903   20.5881 H   0  0  0  0  0  0  0  0  0  0  0  0
  1  2  2  0  0  0
  2  3  1  0  0  0
  3  4  2  0  0  0
  3  5  1  0  0  0
  5 13  1  0  0  0
 13 14  1  0  0  0
 14 15  1  0  0  0
 15 16  1  0  0  0
 16 17  1  0  0  0
 17 18  1  0  0  0
 18 19  1  0  0  0
  5  6  1  0  0  0
  6  7  2  0  0  0
  7  8  1  0  0  0
  8  9  1  0  0  0
  8 10  2  0  0  0
 10 11  1  0  0  0
 11 12  2  0  0  0
 12  2  1  0  0  0
 19 14  1  0  0  0
 12  6  1  0  0  0
 17 20  1  0  0  0
M  END
> <minimizedAffinity>
-6.50318

> <minimizedRMSD>
0.58336

$$$$
C2494-P225


 18 20  0  0  0  0  0  0  0  0999 V2000
    8.0899    9.2102   24.0090 O   0  0  0  0  0  0  0  0  0  0  0  0
    8.0087   10.3473   24.4054 C   0  0  0  0  0  0  0  0  0  0  0  0
    8.8247   11.5577   23.9375 C   0  0  0  0  0  0  0  0  0  0  0  0
    9.6876   11.4964   23.0990 O   0  0  0  0  0  0  0  0  0  0  0  0
    8.3417   12.6509   24.6291 N   0  0  0  0  0  0  0  0  0  0  0  0
    7.3211   12.2453   25.5061 C   0  0  0  0  0  0  0  0  0  0  0  0
    6.5716   13.0044   26.3822 C   0  0  0  0  0  0  0  0  0  0  0  0
    5.6171   12.3445   27.1699 C   0  0  0  0  0  0  0  0  0  0  0  0
    5.4107   10.9575   27.0553 C   0  0  0  0  0  0  0  0  0  0  0  0
    6.1456   10.2100   26.1423 C   0  0  0  0  0  0  0  0  0  0  0  0
    7.0974   10.8751   25.4072 C   0  0  0  0  0  0  0  0  0  0  0  0
    8.6290   14.0385   24.3093 C   0  0  0  0  0  0  0  0  0  0  0  0
    9.7629   14.2964   23.2966 C   0  0  0  0  0  0  0  0  0  0  0  0
   11.0986   14.6500   23.9410 C   0  0  0  0  0  0  0  0  0  0  0  0
   11.8630   15.3158   22.8082 C   0  0  0  0  0  0  0  0  0  0  0  0
   10.7927   15.7919   21.8357 C   0  0  0  0  0  0  0  0  0  0  0  0
    9.5090   15.5023   22.4930 N   0  0  0  0  0  0  0  0  0  0  0  0
    8.7820   15.3258   21.7997 H   0  0  0  0  0  0  0  0  0  0  0  0
  1  2  2  0  0  0
  2  3  1  0  0  0
  3  4  2  0  0  0
  3  5  1  0  0  0
  5 12  1  0  0  0
 13 12  1  0  0  0
 13 14  1  0  0  0
 14 15  1  0  0  0
 15 16  1  0  0  0
 16 17  1  0  0  0
  5  6  1  0  0  0
  6  7  2  0  0  0
  7  8  1  0  0  0
  8  9  2  0  0  0
  9 10  1  0  0  0
 10 11  2  0  0  0
 11  2  1  0  0  0
 17 13  1  0  0  0
 11  6  1  0  0  0
 17 18  1  0  0  0
M  END
> <minimizedAffinity>
-6.34594

> <minimizedRMSD>
0.66295

$$$$
C2499-P225


 20 22  0  0  0  0  0  0  0  0999 V2000
    8.0113    9.1509   24.0117 O   0  0  0  0  0  0  0  0  0  0  0  0
    7.9624   10.2619   24.4817 C   0  0  0  0  0  0  0  0  0  0  0  0
    8.8919   11.4569   24.1794 C   0  0  0  0  0  0  0  0  0  0  0  0
    9.8467   11.3779   23.4493 O   0  0  0  0  0  0  0  0  0  0  0  0
    8.3945   12.5260   24.8984 N   0  0  0  0  0  0  0  0  0  0  0  0
    7.2857   12.1036   25.6636 C   0  0  0  0  0  0  0  0  0  0  0  0
    6.5281   12.8389   26.5558 C   0  0  0  0  0  0  0  0  0  0  0  0
    5.5300   12.1751   27.2771 C   0  0  0  0  0  0  0  0  0  0  0  0
    5.2846   10.8067   27.0758 C   0  0  0  0  0  0  0  0  0  0  0  0
    4.0364    9.9509   28.2156 Br  0  0  0  0  0  0  0  0  0  0  0  0
    5.9946   10.0844   26.1200 C   0  0  0  0  0  0  0  0  0  0  0  0
    7.0013   10.7571   25.4564 C   0  0  0  0  0  0  0  0  0  0  0  0
    8.7744   13.9285   24.8224 C   0  0  0  0  0  0  0  0  0  0  0  0
    9.1802   14.6089   23.5043 C   0  0  0  0  0  0  0  0  0  0  0  0
   10.6849   14.6022   23.2205 C   0  0  0  0  0  0  0  0  0  0  0  0
   10.9817   15.3101   21.9023 C   0  0  0  0  0  0  0  0  0  0  0  0
   10.2296   14.7255   20.8089 N   0  0  0  0  0  0  0  0  0  0  0  0
    8.7918   14.8733   21.0038 C   0  0  0  0  0  0  0  0  0  0  0  0
    8.3435   14.1796   22.2910 C   0  0  0  0  0  0  0  0  0  0  0  0
   10.4544   13.7325   20.7467 H   0  0  0  0  0  0  0  0  0  0  0  0
  1  2  2  0  0  0
  2  3  1  0  0  0
  3  4  2  0  0  0
  3  5  1  0  0  0
  5 13  1  0  0  0
 13 14  1  0  0  0
 14 15  1  0  0  0
 15 16  1  0  0  0
 16 17  1  0  0  0
 17 18  1  0  0  0
 18 19  1  0  0  0
  5  6  1  0  0  0
  6  7  2  0  0  0
  7  8  1  0  0  0
  8  9  2  0  0  0
  9 10  1  0  0  0
  9 11  1  0  0  0
 11 12  2  0  0  0
 12  2  1  0  0  0
 19 14  1  0  0  0
 12  6  1  0  0  0
 17 20  1  0  0  0
M  END
> <minimizedAffinity>
-6.71508

> <minimizedRMSD>
1.07860

$$$$
C9370-P276


 15 15  0  0  0  0  0  0  0  0999 V2000
    8.2365   14.1385   23.2057 S   0  0  0  0  0  0  0  0  0  0  0  0
    8.0113   15.1697   24.3028 N   0  0  0  0  0  0  0  0  0  0  0  0
    7.3166   13.7497   22.1620 O   0  0  0  0  0  0  0  0  0  0  0  0
    7.9240   16.0857   23.8688 H   0  0  0  0  0  0  0  0  0  0  0  0
    8.5041   12.7245   24.0981 N   0  0  0  0  0  0  0  0  0  0  0  0
    9.2138   11.6003   23.5079 C   0  0  0  0  0  0  0  0  0  0  0  0
    8.6587   10.3219   24.1017 C   0  0  0  0  0  0  0  0  0  0  0  0
    7.6204   10.7538   25.1081 C   0  0  0  0  0  0  0  0  0  0  0  0
    7.3292   12.1945   24.7857 C   0  0  0  0  0  0  0  0  0  0  0  0
    9.6538   14.6858   22.4633 N   0  0  0  0  0  0  0  0  0  0  0  0
   10.9261   14.0442   22.7546 C   0  0  0  0  0  0  0  0  0  0  0  0
   11.7487   14.8477   23.7380 C   0  0  0  0  0  0  0  0  0  0  0  0
    9.5815   14.7932   21.0068 O   0  0  0  0  0  0  0  0  0  0  0  0
   10.5553   16.0018   19.1808 C   0  0  0  0  0  0  0  0  0  0  0  0
   10.0185   16.0933   20.5977 C   0  0  0  0  0  0  0  0  0  0  0  0
 14 15  1  0  0  0
 15 13  1  0  0  0
 13 10  1  0  0  0
 10 11  1  0  0  0
 11 12  1  0  0  0
  1 10  1  0  0  0
  1  2  2  0  0  0
  1  3  2  0  0  0
  1  5  1  0  0  0
  5  6  1  0  0  0
  6  7  1  0  0  0
  7  8  1  0  0  0
  8  9  1  0  0  0
  9  5  1  0  0  0
  2  4  1  0  0  0
M  END
> <minimizedAffinity>
-4.72122

> <minimizedRMSD>
0.85866

$$$$
C9393-P77


 16 16  0  0  0  0  0  0  0  0999 V2000
    9.0045   14.5024   23.5879 N   0  0  0  0  0  0  0  0  0  0  0  0
    9.0444   15.5214   23.6088 H   0  0  0  0  0  0  0  0  0  0  0  0
    7.4736   14.0947   23.9259 S   0  0  0  0  0  0  0  0  0  0  0  0
    6.8503   15.2252   24.5568 O   0  0  0  0  0  0  0  0  0  0  0  0
    6.9094   13.3594   22.8217 O   0  0  0  0  0  0  0  0  0  0  0  0
    7.7801   13.0169   25.1547 N   0  0  0  0  0  0  0  0  0  0  0  0
    8.4822   11.7596   24.8349 C   0  0  0  0  0  0  0  0  0  0  0  0
    7.6418   10.6463   25.4078 C   0  0  0  0  0  0  0  0  0  0  0  0
    6.7017   11.3246   26.3684 C   0  0  0  0  0  0  0  0  0  0  0  0
    6.5755   12.7519   25.9454 C   0  0  0  0  0  0  0  0  0  0  0  0
    9.6293   14.0923   22.3509 C   0  0  0  0  0  0  0  0  0  0  0  0
   11.1377   13.9983   22.5170 C   0  0  0  0  0  0  0  0  0  0  0  0
   11.6882   13.7711   24.3638 Br  0  0  0  0  0  0  0  0  0  0  0  0
   11.8097   15.2126   21.9277 C   0  0  0  0  0  0  0  0  0  0  0  0
   11.4751   14.9951   19.4713 C   0  0  0  0  0  0  0  0  0  0  0  0
   11.0267   15.7166   20.7170 C   0  0  0  0  0  0  0  0  0  0  0  0
 15 16  1  0  0  0
 16 14  1  0  0  0
 14 12  1  0  0  0
 12 13  1  0  0  0
 12 11  1  0  0  0
 11  1  1  0  0  0
  1  3  1  0  0  0
  3  4  2  0  0  0
  3  5  2  0  0  0
  3  6  1  0  0  0
  6  7  1  0  0  0
  7  8  1  0  0  0
  8  9  1  0  0  0
  9 10  1  0  0  0
 10  6  1  0  0  0
  1  2  1  0  0  0
M  END
> <minimizedAffinity>
-5.14302

> <minimizedRMSD>
1.28988

$$$$
C9394-P276


 14 14  0  0  0  0  0  0  0  0999 V2000
    8.3638   14.6250   23.5557 C   0  0  0  0  0  0  0  0  0  0  0  0
    7.5992   15.3629   24.5253 O   0  0  0  0  0  0  0  0  0  0  0  0
    7.7084   14.9574   25.3997 H   0  0  0  0  0  0  0  0  0  0  0  0
    7.8066   13.2123   23.5278 C   0  0  0  0  0  0  0  0  0  0  0  0
    8.2095   12.4194   24.6380 O   0  0  0  0  0  0  0  0  0  0  0  0
    8.4533   11.0616   24.3024 C   0  0  0  0  0  0  0  0  0  0  0  0
    6.5563   10.3247   25.8643 C   0  0  0  0  0  0  0  0  0  0  0  0
    7.4595   10.1051   24.8989 C   0  0  0  0  0  0  0  0  0  0  0  0
    9.8503   14.7127   23.9333 C   0  0  0  0  0  0  0  0  0  0  0  0
   10.5196   15.6837   23.0405 N   0  0  0  0  0  0  0  0  0  0  0  0
   11.8847   15.2745   22.7081 C   0  0  0  0  0  0  0  0  0  0  0  0
   12.2248   16.2263   21.5765 C   0  0  0  0  0  0  0  0  0  0  0  0
   10.9138   16.4485   20.8410 C   0  0  0  0  0  0  0  0  0  0  0  0
    9.8565   15.8219   21.7371 C   0  0  0  0  0  0  0  0  0  0  0  0
  7  8  2  0  0  0
  8  6  1  0  0  0
  6  5  1  0  0  0
  5  4  1  0  0  0
  4  1  1  0  0  0
  1  2  1  0  0  0
  1  9  1  0  0  0
  9 10  1  0  0  0
 10 11  1  0  0  0
 11 12  1  0  0  0
 12 13  1  0  0  0
 13 14  1  0  0  0
 14 10  1  0  0  0
  2  3  1  0  0  0
M  END
> <minimizedAffinity>
-4.48796

> <minimizedRMSD>
1.56643

$$$$
C9396-P276


 15 15  0  0  0  0  0  0  0  0999 V2000
    9.0685   13.6838   23.7386 C   0  0  0  0  0  0  0  0  0  0  0  0
    9.0732   14.3676   24.9918 O   0  0  0  0  0  0  0  0  0  0  0  0
    9.5415   13.8316   25.6508 H   0  0  0  0  0  0  0  0  0  0  0  0
    8.3330   12.3488   23.8722 C   0  0  0  0  0  0  0  0  0  0  0  0
    8.2208   11.8693   25.2149 O   0  0  0  0  0  0  0  0  0  0  0  0
    7.2257   10.8404   25.2819 C   0  0  0  0  0  0  0  0  0  0  0  0
    6.1729   12.4943   26.9298 C   0  0  0  0  0  0  0  0  0  0  0  0
    6.0262   11.1697   26.1917 C   0  0  0  0  0  0  0  0  0  0  0  0
    5.6394   10.1439   27.2563 C   0  0  0  0  0  0  0  0  0  0  0  0
   10.4866   13.4851   23.1791 C   0  0  0  0  0  0  0  0  0  0  0  0
   10.9933   14.4705   22.2296 N   0  0  0  0  0  0  0  0  0  0  0  0
   12.0173   15.3722   22.7251 C   0  0  0  0  0  0  0  0  0  0  0  0
   12.1692   16.3514   21.5665 C   0  0  0  0  0  0  0  0  0  0  0  0
   10.9181   16.2015   20.7148 C   0  0  0  0  0  0  0  0  0  0  0  0
   10.0175   15.3206   21.5551 C   0  0  0  0  0  0  0  0  0  0  0  0
  7  8  1  0  0  0
  8  9  1  0  0  0
  8  6  1  0  0  0
  6  5  1  0  0  0
  5  4  1  0  0  0
  4  1  1  0  0  0
  1  2  1  0  0  0
  1 10  1  0  0  0
 10 11  1  0  0  0
 11 12  1  0  0  0
 12 13  1  0  0  0
 13 14  1  0  0  0
 14 15  1  0  0  0
 15 11  1  0  0  0
  2  3  1  0  0  0
M  END
> <minimizedAffinity>
-4.48313

> <minimizedRMSD>
1.25022

$$$$
C956-P51


 19 21  0  0  0  0  0  0  0  0999 V2000
   22.8617   14.4286    2.8502 C   0  0  0  0  0  0  0  0  0  0  0  0
   23.4476   13.5756    1.7963 C   0  0  0  0  0  0  0  0  0  0  0  0
   22.9989   13.4267    0.5656 N   0  0  0  0  0  0  0  0  0  0  0  0
   23.8458   12.5719   -0.1019 N   0  0  0  0  0  0  0  0  0  0  0  0
   24.7941   12.2099    0.7377 C   0  0  0  0  0  0  0  0  0  0  0  0
   24.5732   12.8144    1.9461 N   0  0  0  0  0  0  0  0  0  0  0  0
   25.4649   12.7369    3.0830 C   0  0  0  0  0  0  0  0  0  0  0  0
   26.5195   11.6371    2.9376 C   0  0  0  0  0  0  0  0  0  0  0  0
   27.0779   11.5850    1.5132 C   0  0  0  0  0  0  0  0  0  0  0  0
   25.9572   11.3112    0.5012 C   0  0  0  0  0  0  0  0  0  0  0  0
   26.4104   11.4934   -0.8530 N   0  0  0  0  0  0  0  0  0  0  0  0
   27.2243   10.5558   -1.7739 C   0  0  0  0  0  0  0  0  0  0  0  0
   27.7194    9.5240   -1.5536 O   0  0  0  0  0  0  0  0  0  0  0  0
   26.1616   12.3553   -1.2585 H   0  0  0  0  0  0  0  0  0  0  0  0
   27.3057   11.2607   -3.1236 C   0  0  0  0  0  0  0  0  0  0  0  0
   28.1659   10.5071   -4.1488 C   0  0  0  0  0  0  0  0  0  0  0  0
   27.9057   10.8780   -5.6356 C   0  0  0  0  0  0  0  0  0  0  0  0
   29.2787   12.0716   -5.5954 S   0  0  0  0  0  0  0  0  0  0  0  0
   29.6655   10.9180   -4.2376 C   0  0  0  0  0  0  0  0  0  0  0  0
  1  2  1  0  0  0
  2  3  2  0  0  0
  3  4  1  0  0  0
  4  5  2  0  0  0
  5  6  1  0  0  0
  6  7  1  0  0  0
  7  8  1  0  0  0
  8  9  1  0  0  0
  9 10  1  0  0  0
 10 11  1  0  0  0
 11 12  1  0  0  0
 12 13  2  0  0  0
 12 15  1  0  0  0
 15 16  1  0  0  0
 16 17  1  0  0  0
 17 18  1  0  0  0
 18 19  1  0  0  0
  6  2  1  0  0  0
 19 16  1  0  0  0
 10  5  1  0  0  0
 11 14  1  0  0  0
M  END
> <minimizedAffinity>
-3.39317

> <minimizedRMSD>
1.75854

$$$$
C8846-P212


 15 17  0  0  0  0  0  0  0  0999 V2000
    8.4223   13.8763   24.5558 C   0  0  0  0  0  0  0  0  0  0  0  0
    9.4270   14.1739   23.7156 C   0  0  0  0  0  0  0  0  0  0  0  0
   10.0920   12.9235   23.1757 C   0  0  0  0  0  0  0  0  0  0  0  0
    9.2459   11.8539   23.7812 C   0  0  0  0  0  0  0  0  0  0  0  0
    9.3169   10.4867   23.6086 C   0  0  0  0  0  0  0  0  0  0  0  0
    8.4427    9.6951   24.3499 C   0  0  0  0  0  0  0  0  0  0  0  0
    7.5280   10.2652   25.2502 C   0  0  0  0  0  0  0  0  0  0  0  0
    7.4595   11.6504   25.4000 C   0  0  0  0  0  0  0  0  0  0  0  0
    8.3112   12.4325   24.6434 C   0  0  0  0  0  0  0  0  0  0  0  0
    9.8693   15.4387   23.3642 N   0  0  0  0  0  0  0  0  0  0  0  0
   11.2850   15.7893   23.5308 C   0  0  0  0  0  0  0  0  0  0  0  0
   12.0799   15.5325   22.2586 C   0  0  0  0  0  0  0  0  0  0  0  0
   11.4667   16.2610   21.0711 C   0  0  0  0  0  0  0  0  0  0  0  0
    9.9901   15.9063   20.9313 C   0  0  0  0  0  0  0  0  0  0  0  0
    9.2277   16.1491   22.2347 C   0  0  0  0  0  0  0  0  0  0  0  0
  1  2  2  0  0  0
  2 10  1  0  0  0
 10 11  1  0  0  0
 11 12  1  0  0  0
 12 13  1  0  0  0
 13 14  1  0  0  0
 14 15  1  0  0  0
  2  3  1  0  0  0
  3  4  1  0  0  0
  4  5  2  0  0  0
  5  6  1  0  0  0
  6  7  2  0  0  0
  7  8  1  0  0  0
  8  9  2  0  0  0
  9  1  1  0  0  0
 15 10  1  0  0  0
  9  4  1  0  0  0
M  END
> <minimizedAffinity>
-6.52863

> <minimizedRMSD>
0.44157

$$$$
C4761-P619


 13 14  0  0  0  0  0  0  0  0999 V2000
    8.6136   12.8567   24.0293 C   0  0  0  0  0  0  0  0  0  0  0  0
    9.6960   13.2709   23.0121 C   0  0  0  0  0  0  0  0  0  0  0  0
    9.9327   15.0544   22.9734 S   0  0  0  0  0  0  0  0  0  0  0  0
    8.1991   15.5183   22.6749 C   0  0  0  0  0  0  0  0  0  0  0  0
    7.2715   14.8730   23.7114 C   0  0  0  0  0  0  0  0  0  0  0  0
    7.2750   13.4017   23.7241 N   0  0  0  0  0  0  0  0  0  0  0  0
    6.9823   13.0634   22.8075 H   0  0  0  0  0  0  0  0  0  0  0  0
    7.5967   10.5764   24.8342 C   0  0  0  0  0  0  0  0  0  0  0  0
    7.7673    9.2701   24.6400 N   0  0  0  0  0  0  0  0  0  0  0  0
    8.8116    9.2001   23.7955 N   0  0  0  0  0  0  0  0  0  0  0  0
    9.2895   10.4271   23.4464 C   0  0  0  0  0  0  0  0  0  0  0  0
    8.5061   11.3634   24.0946 C   0  0  0  0  0  0  0  0  0  0  0  0
    9.1899    8.3534   23.4652 H   0  0  0  0  0  0  0  0  0  0  0  0
  8  9  2  0  0  0
  9 10  1  0  0  0
 10 11  1  0  0  0
 11 12  2  0  0  0
  1 12  1  0  0  0
  1  2  1  0  0  0
  2  3  1  0  0  0
  3  4  1  0  0  0
  4  5  1  0  0  0
  5  6  1  0  0  0
 12  8  1  0  0  0
  6  1  1  0  0  0
 10 13  1  0  0  0
  6  7  1  0  0  0
M  END
> <minimizedAffinity>
-4.64057

> <minimizedRMSD>
1.24119

$$$$
C31977-P124


 15 16  0  0  0  0  0  0  0  0999 V2000
    8.4812   12.1416   25.4893 N   0  0  0  0  0  0  0  0  0  0  0  0
    8.9190   13.4880   25.0468 C   0  0  0  0  0  0  0  0  0  0  0  0
   10.3454   13.3645   24.5328 C   0  0  0  0  0  0  0  0  0  0  0  0
   10.3240   11.9667   24.0445 C   0  0  0  0  0  0  0  0  0  0  0  0
   11.2135   11.3370   23.1890 C   0  0  0  0  0  0  0  0  0  0  0  0
   11.0082    9.9936   22.8983 C   0  0  0  0  0  0  0  0  0  0  0  0
    9.9297    9.3133   23.4631 C   0  0  0  0  0  0  0  0  0  0  0  0
    9.0450    9.9695   24.3261 C   0  0  0  0  0  0  0  0  0  0  0  0
    9.2381   11.3047   24.6204 C   0  0  0  0  0  0  0  0  0  0  0  0
    7.0355   11.8786   25.5292 C   0  0  0  0  0  0  0  0  0  0  0  0
    6.9412   13.2229   27.7213 C   0  0  0  0  0  0  0  0  0  0  0  0
    6.1959   12.7503   26.4796 C   0  0  0  0  0  0  0  0  0  0  0  0
    5.1641   11.9649   26.9405 F   0  0  0  0  0  0  0  0  0  0  0  0
    5.6023   13.8809   25.7536 C   0  0  0  0  0  0  0  0  0  0  0  0
    5.1603   14.7974   25.1972 N   0  0  0  0  0  0  0  0  0  0  0  0
 12 11  1  0  0  0
 12 13  1  0  0  0
 12 14  1  0  0  0
 14 15  3  0  0  0
 12 10  1  0  0  0
 10  1  1  0  0  0
  1  2  1  0  0  0
  2  3  1  0  0  0
  3  4  1  0  0  0
  4  5  2  0  0  0
  5  6  1  0  0  0
  6  7  2  0  0  0
  7  8  1  0  0  0
  8  9  2  0  0  0
  9  1  1  0  0  0
  9  4  1  0  0  0
M  END
> <minimizedAffinity>
-5.04573

> <minimizedRMSD>
0.26197

$$$$
C10642-P391


 14 14  0  0  0  0  0  0  0  0999 V2000
    8.4878   12.5537   24.1009 O   0  0  0  0  0  0  0  0  0  0  0  0
    9.4471   11.9483   24.9250 N   0  0  0  0  0  0  0  0  0  0  0  0
   10.6529   12.4193   24.7732 C   0  0  0  0  0  0  0  0  0  0  0  0
   11.0874   13.4677   23.8756 C   0  0  0  0  0  0  0  0  0  0  0  0
   11.9589   14.4831   24.1975 C   0  0  0  0  0  0  0  0  0  0  0  0
   12.1682   15.2416   23.0882 O   0  0  0  0  0  0  0  0  0  0  0  0
   11.4112   14.6357   22.1340 C   0  0  0  0  0  0  0  0  0  0  0  0
   10.7165   13.6014   22.5576 N   0  0  0  0  0  0  0  0  0  0  0  0
    7.5472   13.2845   24.8911 C   0  0  0  0  0  0  0  0  0  0  0  0
    6.2060   13.3521   24.1871 C   0  0  0  0  0  0  0  0  0  0  0  0
    5.0582   14.9941   22.9702 F   0  0  0  0  0  0  0  0  0  0  0  0
    6.2065   14.2709   22.9883 C   0  0  0  0  0  0  0  0  0  0  0  0
    6.2459   13.5747   21.8306 F   0  0  0  0  0  0  0  0  0  0  0  0
    7.2194   15.1551   23.0162 F   0  0  0  0  0  0  0  0  0  0  0  0
 11 12  1  0  0  0
 12 13  1  0  0  0
 12 14  1  0  0  0
 12 10  1  0  0  0
 10  9  1  0  0  0
  9  1  1  0  0  0
  1  2  1  0  0  0
  2  3  2  0  0  0
  3  4  1  0  0  0
  4  5  2  0  0  0
  5  6  1  0  0  0
  6  7  1  0  0  0
  7  8  2  0  0  0
  8  4  1  0  0  0
M  END
> <minimizedAffinity>
-3.81057

> <minimizedRMSD>
1.13359

$$$$
C7479-P391


 24 25  0  0  0  0  0  0  0  0999 V2000
    6.6120   14.6142   22.7082 S   0  0  0  0  0  0  0  0  0  0  0  0
    6.6123   13.2354   22.2389 O   0  0  0  0  0  0  0  0  0  0  0  0
    7.6206   15.4594   22.1063 O   0  0  0  0  0  0  0  0  0  0  0  0
    6.2816   14.7838   24.1942 N   0  0  0  0  0  0  0  0  0  0  0  0
    7.5477   14.6890   25.0615 S   0  0  0  0  0  0  0  0  0  0  0  0
    7.0334   15.0767   26.7217 C   0  0  0  0  0  0  0  0  0  0  0  0
    8.7437   15.4740   24.8410 O   0  0  0  0  0  0  0  0  0  0  0  0
    8.0878   12.9836   25.2487 C   0  0  0  0  0  0  0  0  0  0  0  0
    9.2224   12.6280   24.2945 C   0  0  0  0  0  0  0  0  0  0  0  0
    9.7299   11.2130   24.5122 C   0  0  0  0  0  0  0  0  0  0  0  0
    8.6585   10.1521   24.5864 C   0  0  0  0  0  0  0  0  0  0  0  0
    7.4565   10.5555   25.4106 C   0  0  0  0  0  0  0  0  0  0  0  0
    6.9487   11.9677   25.1818 C   0  0  0  0  0  0  0  0  0  0  0  0
    5.2044   15.2397   22.0749 N   0  0  0  0  0  0  0  0  0  0  0  0
    5.0513   16.1459   22.5175 H   0  0  0  0  0  0  0  0  0  0  0  0
    3.9756   14.4739   22.2265 C   0  0  0  0  0  0  0  0  0  0  0  0
    2.8996   14.0381   19.8836 C   0  0  0  0  0  0  0  0  0  0  0  0
    1.9145   14.6567   19.1697 O   0  0  0  0  0  0  0  0  0  0  0  0
    1.6262   15.7579   19.8913 C   0  0  0  0  0  0  0  0  0  0  0  0
    2.3147   15.8948   21.0049 N   0  0  0  0  0  0  0  0  0  0  0  0
    3.1013   14.7584   21.0475 C   0  0  0  0  0  0  0  0  0  0  0  0
    3.7289   13.0303   17.7784 C   0  0  0  0  0  0  0  0  0  0  0  0
    3.4586   12.8158   19.2675 C   0  0  0  0  0  0  0  0  0  0  0  0
    2.5192   11.6278   19.4653 C   0  0  0  0  0  0  0  0  0  0  0  0
 22 23  1  0  0  0
 23 24  1  0  0  0
 23 17  1  0  0  0
 17 18  1  0  0  0
 18 19  1  0  0  0
 19 20  2  0  0  0
 20 21  1  0  0  0
 21 16  1  0  0  0
 16 14  1  0  0  0
 14  1  1  0  0  0
  1  2  2  0  0  0
  1  3  2  0  0  0
  1  4  1  0  0  0
  4  5  2  0  0  0
  5  6  1  0  0  0
  5  7  2  0  0  0
  5  8  1  0  0  0
  8  9  1  0  0  0
  9 10  1  0  0  0
 10 11  1  0  0  0
 11 12  1  0  0  0
 12 13  1  0  0  0
 21 17  2  0  0  0
 13  8  1  0  0  0
 14 15  1  0  0  0
M  END
> <minimizedAffinity>
-5.93990

> <minimizedRMSD>
0.58013

$$$$
C13610-P135


 11 11  0  0  0  0  0  0  0  0999 V2000
   10.1275   11.5006   24.0961 C   0  0  0  0  0  0  0  0  0  0  0  0
   10.2494   10.3306   23.3566 C   0  0  0  0  0  0  0  0  0  0  0  0
    9.3177    9.3296   23.5343 C   0  0  0  0  0  0  0  0  0  0  0  0
    8.2519    9.4448   24.3542 N   0  0  0  0  0  0  0  0  0  0  0  0
    8.1333   10.5949   25.0408 C   0  0  0  0  0  0  0  0  0  0  0  0
    9.0505   11.6246   24.9697 C   0  0  0  0  0  0  0  0  0  0  0  0
   11.4659   12.6691   24.1219 S   0  0  0  0  0  0  0  0  0  0  0  0
    9.7175   13.6609   22.2284 C   0  0  0  0  0  0  0  0  0  0  0  0
   11.0266   13.9608   22.9172 C   0  0  0  0  0  0  0  0  0  0  0  0
   12.1502   14.1981   21.9397 C   0  0  0  0  0  0  0  0  0  0  0  0
   12.7398   15.2682   21.8156 O   0  0  0  0  0  0  0  0  0  0  0  0
  9  8  1  0  0  0
  9 10  1  0  0  0
 10 11  2  0  0  0
  9  7  1  0  0  0
  7  1  1  0  0  0
  1  2  2  0  0  0
  2  3  1  0  0  0
  3  4  2  0  0  0
  4  5  1  0  0  0
  5  6  2  0  0  0
  6  1  1  0  0  0
M  END
> <minimizedAffinity>
-4.86988

> <minimizedRMSD>
1.05301

$$$$
C1316-P291


 18 19  0  0  0  0  0  0  0  0999 V2000
   11.0554   13.3131   24.2799 O   0  0  0  0  0  0  0  0  0  0  0  0
   10.2409   13.2732   23.4462 C   0  0  0  0  0  0  0  0  0  0  0  0
    9.0472   12.3130   23.2591 N   0  0  0  0  0  0  0  0  0  0  0  0
    8.5431   12.4401   22.4231 H   0  0  0  0  0  0  0  0  0  0  0  0
   10.1919   14.2848   22.3053 C   0  0  0  0  0  0  0  0  0  0  0  0
    9.7516   15.6644   22.8064 C   0  0  0  0  0  0  0  0  0  0  0  0
    8.2893   15.7133   23.2591 C   0  0  0  0  0  0  0  0  0  0  0  0
    7.2888   15.3117   22.1953 C   0  0  0  0  0  0  0  0  0  0  0  0
    5.9854   15.9451   22.6315 C   0  0  0  0  0  0  0  0  0  0  0  0
    6.3218   16.8700   23.7135 N   0  0  0  0  0  0  0  0  0  0  0  0
    7.7801   17.0844   23.6642 C   0  0  0  0  0  0  0  0  0  0  0  0
    6.0577   16.4672   24.6126 H   0  0  0  0  0  0  0  0  0  0  0  0
    8.5670   11.2962   24.0803 O   0  0  0  0  0  0  0  0  0  0  0  0
    7.8671   11.7706   25.2266 C   0  0  0  0  0  0  0  0  0  0  0  0
    6.8056   12.8305   24.9550 C   0  0  0  0  0  0  0  0  0  0  0  0
    5.6902   12.5763   25.9693 C   0  0  0  0  0  0  0  0  0  0  0  0
    6.0595   11.2959   26.7085 C   0  0  0  0  0  0  0  0  0  0  0  0
    7.0580   10.6086   25.7993 C   0  0  0  0  0  0  0  0  0  0  0  0
  1  2  2  0  0  0
  2  5  1  0  0  0
  5  6  1  0  0  0
  7  6  1  0  0  0
  7  8  1  0  0  0
  8  9  1  0  0  0
  9 10  1  0  0  0
 10 11  1  0  0  0
  2  3  1  0  0  0
  3 13  1  0  0  0
 13 14  1  0  0  0
 14 15  1  0  0  0
 15 16  1  0  0  0
 16 17  1  0  0  0
 17 18  1  0  0  0
 11  7  1  0  0  0
 18 14  1  0  0  0
 10 12  1  0  0  0
  3  4  1  0  0  0
M  END
> <minimizedAffinity>
-4.60991

> <minimizedRMSD>
2.26460

$$$$
C40870-P182


 19 19  0  0  0  0  0  0  0  0999 V2000
    7.3314   14.6757   22.6539 S   0  0  0  0  0  0  0  0  0  0  0  0
    6.8421   13.3569   22.3414 O   0  0  0  0  0  0  0  0  0  0  0  0
    6.5907   15.8172   22.2014 O   0  0  0  0  0  0  0  0  0  0  0  0
    7.3091   14.8281   24.3098 N   0  0  0  0  0  0  0  0  0  0  0  0
    6.3422   14.6576   24.5862 H   0  0  0  0  0  0  0  0  0  0  0  0
    8.1250   14.0384   25.2336 C   0  0  0  0  0  0  0  0  0  0  0  0
    8.2344   14.8367   26.5395 C   0  0  0  0  0  0  0  0  0  0  0  0
    7.6523   12.6423   25.4644 C   0  0  0  0  0  0  0  0  0  0  0  0
    6.6886   12.1487   26.3136 C   0  0  0  0  0  0  0  0  0  0  0  0
    6.6316   10.7954   26.1656 O   0  0  0  0  0  0  0  0  0  0  0  0
    7.5592   10.5334   25.2058 C   0  0  0  0  0  0  0  0  0  0  0  0
    8.2526   11.5803   24.8193 N   0  0  0  0  0  0  0  0  0  0  0  0
    8.9352   14.8806   22.2018 N   0  0  0  0  0  0  0  0  0  0  0  0
    9.8322   13.7262   22.3662 C   0  0  0  0  0  0  0  0  0  0  0  0
   12.1330   14.6173   22.6827 C   0  0  0  0  0  0  0  0  0  0  0  0
   10.9470   13.9854   23.3567 C   0  0  0  0  0  0  0  0  0  0  0  0
    9.2309   15.8039   21.0558 C   0  0  0  0  0  0  0  0  0  0  0  0
    9.4696   15.1467   19.7145 C   0  0  0  0  0  0  0  0  0  0  0  0
   10.9180   15.1597   19.2619 C   0  0  0  0  0  0  0  0  0  0  0  0
 15 16  1  0  0  0
 16 14  1  0  0  0
 14 13  1  0  0  0
 13 17  1  0  0  0
 17 18  1  0  0  0
 18 19  1  0  0  0
 13  1  1  0  0  0
  1  2  2  0  0  0
  1  3  2  0  0  0
  1  4  1  0  0  0
  4  6  1  0  0  0
  6  7  1  0  0  0
  6  8  1  0  0  0
  8  9  2  0  0  0
  9 10  1  0  0  0
 10 11  1  0  0  0
 11 12  2  0  0  0
 12  8  1  0  0  0
  4  5  1  0  0  0
M  END
> <minimizedAffinity>
-4.56287

> <minimizedRMSD>
0.78920

$$$$
C727-P440


 12 13  0  0  0  0  0  0  0  0999 V2000
    7.5821   10.3117   25.1984 C   0  0  0  0  0  0  0  0  0  0  0  0
    7.8981   11.4837   24.5196 C   0  0  0  0  0  0  0  0  0  0  0  0
    8.8254   11.4333   23.4854 C   0  0  0  0  0  0  0  0  0  0  0  0
    9.3636   10.1790   23.1725 C   0  0  0  0  0  0  0  0  0  0  0  0
    8.9922    9.0616   23.9056 C   0  0  0  0  0  0  0  0  0  0  0  0
    8.1167    9.0991   24.9291 N   0  0  0  0  0  0  0  0  0  0  0  0
    9.2543   12.5553   22.7706 N   0  0  0  0  0  0  0  0  0  0  0  0
   10.3428   13.2766   23.4453 C   0  0  0  0  0  0  0  0  0  0  0  0
   11.0842   14.1330   22.4265 C   0  0  0  0  0  0  0  0  0  0  0  0
   10.1409   15.0804   21.7010 C   0  0  0  0  0  0  0  0  0  0  0  0
    8.9719   14.3119   21.0929 C   0  0  0  0  0  0  0  0  0  0  0  0
    8.2655   13.4370   22.1344 C   0  0  0  0  0  0  0  0  0  0  0  0
  1  2  2  0  0  0
  2  3  1  0  0  0
  3  7  1  0  0  0
  7  8  1  0  0  0
  8  9  1  0  0  0
  9 10  1  0  0  0
 10 11  1  0  0  0
 11 12  1  0  0  0
  3  4  2  0  0  0
  4  5  1  0  0  0
  5  6  2  0  0  0
  6  1  1  0  0  0
 12  7  1  0  0  0
M  END
> <minimizedAffinity>
-5.39036

> <minimizedRMSD>
1.17874

$$$$
C7135-P444


 24 25  0  0  0  0  0  0  0  0999 V2000
    6.8509   11.8783   24.8473 C   0  0  0  0  0  0  0  0  0  0  0  0
    7.7666   10.8396   24.9075 C   0  0  0  0  0  0  0  0  0  0  0  0
    8.9538   10.9898   24.2147 C   0  0  0  0  0  0  0  0  0  0  0  0
    9.2967   12.1074   23.5299 N   0  0  0  0  0  0  0  0  0  0  0  0
    8.4215   13.1268   23.4973 C   0  0  0  0  0  0  0  0  0  0  0  0
    7.1683   13.0207   24.1143 C   0  0  0  0  0  0  0  0  0  0  0  0
    8.7862   14.3691   22.9467 N   0  0  0  0  0  0  0  0  0  0  0  0
    9.2744   15.2949   23.9911 C   0  0  0  0  0  0  0  0  0  0  0  0
   10.7975   15.2295   24.2351 C   0  0  0  0  0  0  0  0  0  0  0  0
   11.5925   15.3900   23.0105 N   0  0  0  0  0  0  0  0  0  0  0  0
   11.1833   14.3123   22.0854 C   0  0  0  0  0  0  0  0  0  0  0  0
    9.6711   14.3170   21.7579 C   0  0  0  0  0  0  0  0  0  0  0  0
   12.5864   15.3090   23.2249 H   0  0  0  0  0  0  0  0  0  0  0  0
    5.2170   10.9388   26.7614 C   0  0  0  0  0  0  0  0  0  0  0  0
    5.8218   10.1448   27.3705 O   0  0  0  0  0  0  0  0  0  0  0  0
    5.6263   11.7805   25.5131 N   0  0  0  0  0  0  0  0  0  0  0  0
    4.9048   12.3321   25.1329 H   0  0  0  0  0  0  0  0  0  0  0  0
    3.7430   11.2328   27.0704 C   0  0  0  0  0  0  0  0  0  0  0  0
    3.3552   12.1859   29.3640 C   0  0  0  0  0  0  0  0  0  0  0  0
    3.3915   10.8965   28.5389 C   0  0  0  0  0  0  0  0  0  0  0  0
    2.0594   10.1688   28.6427 C   0  0  0  0  0  0  0  0  0  0  0  0
    1.6847   10.0091   29.9327 F   0  0  0  0  0  0  0  0  0  0  0  0
    2.1076    8.9446   28.0828 F   0  0  0  0  0  0  0  0  0  0  0  0
    1.0760   10.8601   28.0206 F   0  0  0  0  0  0  0  0  0  0  0  0
 20 19  1  0  0  0
 20 18  1  0  0  0
 18 14  1  0  0  0
 14 15  2  0  0  0
 14 16  1  0  0  0
 16  1  1  0  0  0
  1  2  2  0  0  0
  2  3  1  0  0  0
  3  4  2  0  0  0
  4  5  1  0  0  0
  5  7  1  0  0  0
  7  8  1  0  0  0
  8  9  1  0  0  0
  9 10  1  0  0  0
 10 11  1  0  0  0
 11 12  1  0  0  0
  5  6  2  0  0  0
 20 21  1  0  0  0
 21 22  1  0  0  0
 21 23  1  0  0  0
 21 24  1  0  0  0
  6  1  1  0  0  0
 12  7  1  0  0  0
 16 17  1  0  0  0
 10 13  1  0  0  0
M  END
> <minimizedAffinity>
-5.45855

> <minimizedRMSD>
0.74195

$$$$
C18929-P134


 15 16  0  0  0  0  0  0  0  0999 V2000
    9.4653   11.7719   24.7678 C   0  0  0  0  0  0  0  0  0  0  0  0
    9.1939   13.0622   24.2905 C   0  0  0  0  0  0  0  0  0  0  0  0
   10.2432   13.9697   24.0335 C   0  0  0  0  0  0  0  0  0  0  0  0
   11.5722   13.6239   24.2900 C   0  0  0  0  0  0  0  0  0  0  0  0
   11.8061   12.3589   24.7863 C   0  0  0  0  0  0  0  0  0  0  0  0
   10.7902   11.4262   24.9750 C   0  0  0  0  0  0  0  0  0  0  0  0
   11.3121   10.1861   25.3575 N   0  0  0  0  0  0  0  0  0  0  0  0
   12.6819   10.2222   25.4338 C   0  0  0  0  0  0  0  0  0  0  0  0
   13.4697    9.3206   25.6249 O   0  0  0  0  0  0  0  0  0  0  0  0
   13.0631   11.6849   25.1210 C   0  0  0  0  0  0  0  0  0  0  0  0
   14.1914   12.1106   25.0515 O   0  0  0  0  0  0  0  0  0  0  0  0
   10.7664    9.3891   25.5477 H   0  0  0  0  0  0  0  0  0  0  0  0
    7.5095   11.1043   26.2834 C   0  0  0  0  0  0  0  0  0  0  0  0
    8.4045   10.8016   25.1120 C   0  0  0  0  0  0  0  0  0  0  0  0
    8.3777    9.7253   24.5210 O   0  0  0  0  0  0  0  0  0  0  0  0
 13 14  1  0  0  0
 14 15  2  0  0  0
 14  1  1  0  0  0
  1  2  2  0  0  0
  2  3  1  0  0  0
  3  4  2  0  0  0
  4  5  1  0  0  0
  5  6  2  0  0  0
  6  7  1  0  0  0
  7  8  1  0  0  0
  8  9  2  0  0  0
  8 10  1  0  0  0
 10 11  2  0  0  0
  6  1  1  0  0  0
 10  5  1  0  0  0
  7 12  1  0  0  0
M  END
> <minimizedAffinity>
-6.49932

> <minimizedRMSD>
0.59567

$$$$
C18936-P134


 16 17  0  0  0  0  0  0  0  0999 V2000
    9.3096   11.7920   24.7503 C   0  0  0  0  0  0  0  0  0  0  0  0
    9.0826   13.0450   24.1421 C   0  0  0  0  0  0  0  0  0  0  0  0
   10.1388   13.9192   23.8148 C   0  0  0  0  0  0  0  0  0  0  0  0
   11.4571   13.5804   24.1040 C   0  0  0  0  0  0  0  0  0  0  0  0
   11.6638   12.3518   24.6917 C   0  0  0  0  0  0  0  0  0  0  0  0
   10.6328   11.4468   24.9597 C   0  0  0  0  0  0  0  0  0  0  0  0
   11.1471   10.2241   25.3971 N   0  0  0  0  0  0  0  0  0  0  0  0
   12.5223   10.2482   25.4274 C   0  0  0  0  0  0  0  0  0  0  0  0
   13.3024    9.3406   25.6252 O   0  0  0  0  0  0  0  0  0  0  0  0
   12.9167   11.6859   25.0471 C   0  0  0  0  0  0  0  0  0  0  0  0
   14.0502   12.0929   24.9503 O   0  0  0  0  0  0  0  0  0  0  0  0
   10.5979    9.4473   25.6504 H   0  0  0  0  0  0  0  0  0  0  0  0
    8.1547   10.9309   25.1901 C   0  0  0  0  0  0  0  0  0  0  0  0
    7.2270   11.6972   26.1421 C   0  0  0  0  0  0  0  0  0  0  0  0
    5.2959   11.5078   27.4718 C   0  0  0  0  0  0  0  0  0  0  0  0
    6.2216   10.8189   26.6418 O   0  0  0  0  0  0  0  0  0  0  0  0
 15 16  1  0  0  0
 16 14  1  0  0  0
 14 13  1  0  0  0
 13  1  1  0  0  0
  1  2  2  0  0  0
  2  3  1  0  0  0
  3  4  2  0  0  0
  4  5  1  0  0  0
  5  6  2  0  0  0
  6  7  1  0  0  0
  7  8  1  0  0  0
  8  9  2  0  0  0
  8 10  1  0  0  0
 10 11  2  0  0  0
  6  1  1  0  0  0
 10  5  1  0  0  0
  7 12  1  0  0  0
M  END
> <minimizedAffinity>
-5.58049

> <minimizedRMSD>
0.44570

$$$$
C18941-P134


 15 16  0  0  0  0  0  0  0  0999 V2000
    9.2914   11.6160   24.8020 C   0  0  0  0  0  0  0  0  0  0  0  0
    8.9871   12.9033   24.3141 C   0  0  0  0  0  0  0  0  0  0  0  0
    9.9940   13.8466   24.0249 C   0  0  0  0  0  0  0  0  0  0  0  0
   11.3348   13.5496   24.2585 C   0  0  0  0  0  0  0  0  0  0  0  0
   11.6125   12.3012   24.7715 C   0  0  0  0  0  0  0  0  0  0  0  0
   10.6311   11.3325   24.9992 C   0  0  0  0  0  0  0  0  0  0  0  0
   11.2095   10.1216   25.3866 N   0  0  0  0  0  0  0  0  0  0  0  0
   12.5800   10.2172   25.4317 C   0  0  0  0  0  0  0  0  0  0  0  0
   13.4002    9.3437   25.6204 O   0  0  0  0  0  0  0  0  0  0  0  0
   12.9017   11.6822   25.0840 C   0  0  0  0  0  0  0  0  0  0  0  0
   14.0146   12.1389   24.9710 O   0  0  0  0  0  0  0  0  0  0  0  0
   10.7016    9.3056   25.5997 H   0  0  0  0  0  0  0  0  0  0  0  0
    8.1889   10.6666   25.1637 C   0  0  0  0  0  0  0  0  0  0  0  0
    6.4415   11.1763   26.6809 C   0  0  0  0  0  0  0  0  0  0  0  0
    7.8306   10.9117   26.5224 O   0  0  0  0  0  0  0  0  0  0  0  0
 14 15  1  0  0  0
 15 13  1  0  0  0
 13  1  1  0  0  0
  1  2  2  0  0  0
  2  3  1  0  0  0
  3  4  2  0  0  0
  4  5  1  0  0  0
  5  6  2  0  0  0
  6  7  1  0  0  0
  7  8  1  0  0  0
  8  9  2  0  0  0
  8 10  1  0  0  0
 10 11  2  0  0  0
  6  1  1  0  0  0
 10  5  1  0  0  0
  7 12  1  0  0  0
M  END
> <minimizedAffinity>
-5.69507

> <minimizedRMSD>
0.49265

$$$$
C8140-P439


 17 17  0  0  0  0  0  0  0  0999 V2000
    8.2291   13.2970   23.1470 S   0  0  0  0  0  0  0  0  0  0  0  0
    7.0064   13.3463   22.3811 O   0  0  0  0  0  0  0  0  0  0  0  0
    9.1518   12.1998   22.9898 O   0  0  0  0  0  0  0  0  0  0  0  0
    9.0478   14.7422   23.0842 N   0  0  0  0  0  0  0  0  0  0  0  0
   10.2842   14.8500   23.8776 C   0  0  0  0  0  0  0  0  0  0  0  0
   11.5051   14.4690   23.0560 C   0  0  0  0  0  0  0  0  0  0  0  0
   11.5831   15.2931   21.7781 C   0  0  0  0  0  0  0  0  0  0  0  0
   10.2970   15.1477   20.9758 C   0  0  0  0  0  0  0  0  0  0  0  0
    9.0768   15.4994   21.8092 C   0  0  0  0  0  0  0  0  0  0  0  0
    7.8022   13.2609   24.7665 N   0  0  0  0  0  0  0  0  0  0  0  0
    7.9916   12.3165   25.1021 H   0  0  0  0  0  0  0  0  0  0  0  0
    6.1783   15.1025   25.2047 C   0  0  0  0  0  0  0  0  0  0  0  0
    6.4019   13.5909   25.1663 C   0  0  0  0  0  0  0  0  0  0  0  0
    6.0812   12.8757   26.5324 C   0  0  0  0  0  0  0  0  0  0  0  0
    6.5216   11.3935   26.4779 C   0  0  0  0  0  0  0  0  0  0  0  0
    4.5595   12.8727   26.8019 C   0  0  0  0  0  0  0  0  0  0  0  0
    6.7779   13.5656   27.7206 C   0  0  0  0  0  0  0  0  0  0  0  0
 13 12  1  0  0  0
 13 10  1  0  0  0
 10  1  1  0  0  0
  1  2  2  0  0  0
  1  3  2  0  0  0
  1  4  1  0  0  0
  4  5  1  0  0  0
  5  6  1  0  0  0
  6  7  1  0  0  0
  7  8  1  0  0  0
  8  9  1  0  0  0
 13 14  1  0  0  0
 14 15  1  0  0  0
 14 16  1  0  0  0
 14 17  1  0  0  0
  9  4  1  0  0  0
 10 11  1  0  0  0
M  END
> <minimizedAffinity>
-5.19255

> <minimizedRMSD>
0.79784

$$$$
C8160-P439


 15 15  0  0  0  0  0  0  0  0999 V2000
    7.4784   14.6299   22.8775 S   0  0  0  0  0  0  0  0  0  0  0  0
    6.8684   13.5002   22.2172 O   0  0  0  0  0  0  0  0  0  0  0  0
    6.8869   15.9426   22.8677 O   0  0  0  0  0  0  0  0  0  0  0  0
    9.0784   14.7262   22.3908 N   0  0  0  0  0  0  0  0  0  0  0  0
   10.1193   14.8978   23.4228 C   0  0  0  0  0  0  0  0  0  0  0  0
   11.4711   14.5823   22.8094 C   0  0  0  0  0  0  0  0  0  0  0  0
   11.7633   15.5606   21.6888 C   0  0  0  0  0  0  0  0  0  0  0  0
   10.6579   15.5273   20.6433 C   0  0  0  0  0  0  0  0  0  0  0  0
    9.2730   15.6804   21.2589 C   0  0  0  0  0  0  0  0  0  0  0  0
    7.6925   14.3274   24.5031 N   0  0  0  0  0  0  0  0  0  0  0  0
    8.6956   14.2397   24.6658 H   0  0  0  0  0  0  0  0  0  0  0  0
    7.0620   13.1536   25.0629 C   0  0  0  0  0  0  0  0  0  0  0  0
    7.2950   10.9078   25.8691 C   0  0  0  0  0  0  0  0  0  0  0  0
    8.0328   11.9870   25.1406 C   0  0  0  0  0  0  0  0  0  0  0  0
    9.3519   12.2824   25.8371 C   0  0  0  0  0  0  0  0  0  0  0  0
 13 14  1  0  0  0
 14 15  1  0  0  0
 14 12  1  0  0  0
 12 10  1  0  0  0
 10  1  1  0  0  0
  1  2  2  0  0  0
  1  3  2  0  0  0
  1  4  1  0  0  0
  4  5  1  0  0  0
  5  6  1  0  0  0
  6  7  1  0  0  0
  7  8  1  0  0  0
  8  9  1  0  0  0
  9  4  1  0  0  0
 10 11  1  0  0  0
M  END
> <minimizedAffinity>
-5.25977

> <minimizedRMSD>
0.77978

$$$$
C8169-P439


 15 15  0  0  0  0  0  0  0  0999 V2000
    6.9436   13.4121   22.2862 O   0  0  0  0  0  0  0  0  0  0  0  0
    7.6304   14.3336   23.1610 S   0  0  0  0  0  0  0  0  0  0  0  0
    7.0794   15.6110   23.5348 O   0  0  0  0  0  0  0  0  0  0  0  0
    9.1755   14.5577   22.5576 N   0  0  0  0  0  0  0  0  0  0  0  0
   10.2610   14.8157   23.5216 C   0  0  0  0  0  0  0  0  0  0  0  0
   11.5960   14.6791   22.8015 C   0  0  0  0  0  0  0  0  0  0  0  0
   11.7024   15.6955   21.6742 C   0  0  0  0  0  0  0  0  0  0  0  0
   10.5328   15.5422   20.7123 C   0  0  0  0  0  0  0  0  0  0  0  0
    9.1948   15.5573   21.4391 C   0  0  0  0  0  0  0  0  0  0  0  0
    7.9347   13.5618   24.6234 N   0  0  0  0  0  0  0  0  0  0  0  0
    7.1421   13.7292   25.2432 H   0  0  0  0  0  0  0  0  0  0  0  0
    8.1347   12.1078   24.5151 C   0  0  0  0  0  0  0  0  0  0  0  0
    8.1018   11.4248   25.8714 C   0  0  0  0  0  0  0  0  0  0  0  0
    6.6913   11.1025   26.3539 C   0  0  0  0  0  0  0  0  0  0  0  0
    6.1009   12.3005   27.5259 Cl  0  0  0  0  0  0  0  0  0  0  0  0
  1  2  2  0  0  0
  2  3  2  0  0  0
  2 10  1  0  0  0
 10 12  1  0  0  0
 12 13  1  0  0  0
 13 14  1  0  0  0
 14 15  1  0  0  0
  2  4  1  0  0  0
  4  5  1  0  0  0
  5  6  1  0  0  0
  6  7  1  0  0  0
  7  8  1  0  0  0
  8  9  1  0  0  0
  9  4  1  0  0  0
 10 11  1  0  0  0
M  END
> <minimizedAffinity>
-4.86558

> <minimizedRMSD>
0.95367

$$$$
C6268-P242


 13 14  0  0  0  0  0  0  0  0999 V2000
   10.0598   14.0142   24.3208 C   0  0  0  0  0  0  0  0  0  0  0  0
    8.5874   13.9071   24.8166 C   0  0  0  0  0  0  0  0  0  0  0  0
    8.3097   12.7229   25.6629 N   0  0  0  0  0  0  0  0  0  0  0  0
    8.3258   11.5241   24.8304 C   0  0  0  0  0  0  0  0  0  0  0  0
    9.6015   11.2952   24.0180 C   0  0  0  0  0  0  0  0  0  0  0  0
   10.9549   12.4105   24.5129 S   0  0  0  0  0  0  0  0  0  0  0  0
    7.3932   12.8229   26.0995 H   0  0  0  0  0  0  0  0  0  0  0  0
   10.5631   15.1283   20.2483 C   0  0  0  0  0  0  0  0  0  0  0  0
   11.6815   15.0795   21.0661 C   0  0  0  0  0  0  0  0  0  0  0  0
   11.5190   14.7822   22.4126 C   0  0  0  0  0  0  0  0  0  0  0  0
   10.2370   14.5101   22.9017 C   0  0  0  0  0  0  0  0  0  0  0  0
    9.1401   14.5670   22.1147 N   0  0  0  0  0  0  0  0  0  0  0  0
    9.3273   14.8939   20.8201 C   0  0  0  0  0  0  0  0  0  0  0  0
  8  9  2  0  0  0
  9 10  1  0  0  0
 10 11  2  0  0  0
  1 11  1  0  0  0
  1  2  1  0  0  0
  2  3  1  0  0  0
  3  4  1  0  0  0
  4  5  1  0  0  0
  5  6  1  0  0  0
 11 12  1  0  0  0
 12 13  2  0  0  0
 13  8  1  0  0  0
  6  1  1  0  0  0
  3  7  1  0  0  0
M  END
> <minimizedAffinity>
-5.33148

> <minimizedRMSD>
0.64899

$$$$
C1800-P198


 17 19  0  0  0  0  0  0  0  0999 V2000
    8.9764   12.5445   23.5879 C   0  0  0  0  0  0  0  0  0  0  0  0
    8.3904   11.4060   24.0351 N   0  0  0  0  0  0  0  0  0  0  0  0
    7.3362   11.5186   24.8813 C   0  0  0  0  0  0  0  0  0  0  0  0
    6.8284   12.7535   25.2673 C   0  0  0  0  0  0  0  0  0  0  0  0
    7.4748   13.9020   24.8046 C   0  0  0  0  0  0  0  0  0  0  0  0
    8.5865   13.8177   23.9615 C   0  0  0  0  0  0  0  0  0  0  0  0
    5.6758   12.8856   26.2208 C   0  0  0  0  0  0  0  0  0  0  0  0
    4.8412   11.6162   26.3316 C   0  0  0  0  0  0  0  0  0  0  0  0
    5.7301   10.4020   26.5293 C   0  0  0  0  0  0  0  0  0  0  0  0
    6.7086   10.2398   25.3699 C   0  0  0  0  0  0  0  0  0  0  0  0
    9.3488   15.0807   23.6177 C   0  0  0  0  0  0  0  0  0  0  0  0
   10.7584   15.0740   24.2344 C   0  0  0  0  0  0  0  0  0  0  0  0
   11.8475   14.5834   23.2927 C   0  0  0  0  0  0  0  0  0  0  0  0
   11.7843   15.3179   22.0418 N   0  0  0  0  0  0  0  0  0  0  0  0
   10.5390   15.0210   21.3419 C   0  0  0  0  0  0  0  0  0  0  0  0
    9.3283   15.4905   22.1377 C   0  0  0  0  0  0  0  0  0  0  0  0
   12.5731   15.0490   21.4536 H   0  0  0  0  0  0  0  0  0  0  0  0
  1  2  2  0  0  0
  2  3  1  0  0  0
  3  4  2  0  0  0
  4  5  1  0  0  0
  5  6  2  0  0  0
  6 11  1  0  0  0
 11 12  1  0  0  0
 12 13  1  0  0  0
 13 14  1  0  0  0
 14 15  1  0  0  0
 15 16  1  0  0  0
  4  7  1  0  0  0
  7  8  1  0  0  0
  8  9  1  0  0  0
  9 10  1  0  0  0
  6  1  1  0  0  0
 16 11  1  0  0  0
 10  3  1  0  0  0
 14 17  1  0  0  0
M  END
> <minimizedAffinity>
-6.56377

> <minimizedRMSD>
0.35870

$$$$
C2384-P313


 16 16  0  0  0  0  0  0  0  0999 V2000
    9.5802   13.4075   24.0620 C   0  0  0  0  0  0  0  0  0  0  0  0
   11.0993   13.1569   24.1145 C   0  0  0  0  0  0  0  0  0  0  0  0
    9.1812   14.1972   25.3367 C   0  0  0  0  0  0  0  0  0  0  0  0
    8.7915   12.0320   23.9165 C   0  0  0  0  0  0  0  0  0  0  0  0
    7.9758   11.6709   25.1666 C   0  0  0  0  0  0  0  0  0  0  0  0
    7.4130   10.2557   25.1745 C   0  0  0  0  0  0  0  0  0  0  0  0
    8.2728    9.2586   24.4200 C   0  0  0  0  0  0  0  0  0  0  0  0
    9.6467    9.6917   24.2392 N   0  0  0  0  0  0  0  0  0  0  0  0
    9.6510   10.8604   23.3793 C   0  0  0  0  0  0  0  0  0  0  0  0
   10.1892    8.9441   23.8065 H   0  0  0  0  0  0  0  0  0  0  0  0
    9.1486   14.2734   22.8457 C   0  0  0  0  0  0  0  0  0  0  0  0
    7.9496   14.3426   22.5512 O   0  0  0  0  0  0  0  0  0  0  0  0
   10.1786   14.9543   21.9441 C   0  0  0  0  0  0  0  0  0  0  0  0
    9.6153   15.1911   20.5435 C   0  0  0  0  0  0  0  0  0  0  0  0
   11.9859   16.6378   21.6486 C   0  0  0  0  0  0  0  0  0  0  0  0
   10.7626   16.2676   22.4704 C   0  0  0  0  0  0  0  0  0  0  0  0
 15 16  1  0  0  0
 16 13  1  0  0  0
 13 14  1  0  0  0
 13 11  1  0  0  0
 11 12  2  0  0  0
 11  1  1  0  0  0
  1  2  1  0  0  0
  1  3  1  0  0  0
  4  1  1  0  0  0
  4  5  1  0  0  0
  5  6  1  0  0  0
  6  7  1  0  0  0
  7  8  1  0  0  0
  8  9  1  0  0  0
  9  4  1  0  0  0
  8 10  1  0  0  0
M  END
> <minimizedAffinity>
-5.28168

> <minimizedRMSD>
0.97087

$$$$
C7137-P304


 21 22  0  0  0  0  0  0  0  0999 V2000
    4.6906   10.6882   28.0066 C   0  0  0  0  0  0  0  0  0  0  0  0
    5.0836    9.6107   28.2212 O   0  0  0  0  0  0  0  0  0  0  0  0
    5.2490   11.7939   27.0753 N   0  0  0  0  0  0  0  0  0  0  0  0
    4.7741   12.6547   27.1265 H   0  0  0  0  0  0  0  0  0  0  0  0
    6.2822   11.7684   26.2044 C   0  0  0  0  0  0  0  0  0  0  0  0
    6.9451   12.8308   25.8225 N   0  0  0  0  0  0  0  0  0  0  0  0
    7.9475   12.4481   24.9505 C   0  0  0  0  0  0  0  0  0  0  0  0
    8.0054   11.0990   24.6934 C   0  0  0  0  0  0  0  0  0  0  0  0
    6.7783   10.2832   25.5478 S   0  0  0  0  0  0  0  0  0  0  0  0
    9.1619   10.4115   23.9114 C   0  0  0  0  0  0  0  0  0  0  0  0
    9.2459    8.8738   23.8859 C   0  0  0  0  0  0  0  0  0  0  0  0
   10.6038    8.9471   24.4590 N   0  0  0  0  0  0  0  0  0  0  0  0
   10.3859   10.3416   24.8212 C   0  0  0  0  0  0  0  0  0  0  0  0
   11.3500    8.8069   23.7779 H   0  0  0  0  0  0  0  0  0  0  0  0
    3.4191   11.2334   28.6380 C   0  0  0  0  0  0  0  0  0  0  0  0
    2.6717   11.2622   31.0222 C   0  0  0  0  0  0  0  0  0  0  0  0
    2.9789   10.3604   29.8297 C   0  0  0  0  0  0  0  0  0  0  0  0
    1.7753    9.5156   29.4571 C   0  0  0  0  0  0  0  0  0  0  0  0
    1.2572    8.8988   30.5384 F   0  0  0  0  0  0  0  0  0  0  0  0
    2.1134    8.5647   28.5563 F   0  0  0  0  0  0  0  0  0  0  0  0
    0.8117   10.2795   28.9046 F   0  0  0  0  0  0  0  0  0  0  0  0
 17 16  1  0  0  0
 17 15  1  0  0  0
 15  1  1  0  0  0
  1  2  2  0  0  0
  1  3  1  0  0  0
  3  5  1  0  0  0
  5  6  2  0  0  0
  6  7  1  0  0  0
  7  8  2  0  0  0
  8 10  1  0  0  0
 10 11  1  0  0  0
 11 12  1  0  0  0
 12 13  1  0  0  0
  8  9  1  0  0  0
 17 18  1  0  0  0
 18 19  1  0  0  0
 18 20  1  0  0  0
 18 21  1  0  0  0
  9  5  1  0  0  0
 13 10  1  0  0  0
  3  4  1  0  0  0
 12 14  1  0  0  0
M  END
> <minimizedAffinity>
-4.31972

> <minimizedRMSD>
0.91906

$$$$
C7139-P304


 24 25  0  0  0  0  0  0  0  0999 V2000
    5.9366   10.7494   26.4345 C   0  0  0  0  0  0  0  0  0  0  0  0
    6.9996   10.5981   25.5889 C   0  0  0  0  0  0  0  0  0  0  0  0
    7.2215   11.8922   25.0606 C   0  0  0  0  0  0  0  0  0  0  0  0
    6.3444   12.7807   25.5460 N   0  0  0  0  0  0  0  0  0  0  0  0
    5.5309   12.0473   26.3175 N   0  0  0  0  0  0  0  0  0  0  0  0
    4.7250   12.4068   26.7541 H   0  0  0  0  0  0  0  0  0  0  0  0
    8.2417   12.3692   24.0696 C   0  0  0  0  0  0  0  0  0  0  0  0
    9.2730   11.3145   23.6610 C   0  0  0  0  0  0  0  0  0  0  0  0
   10.2518   11.0207   24.7731 C   0  0  0  0  0  0  0  0  0  0  0  0
   10.8076   12.2037   25.4341 N   0  0  0  0  0  0  0  0  0  0  0  0
    9.8320   13.2713   25.7092 C   0  0  0  0  0  0  0  0  0  0  0  0
    8.9644   13.6301   24.5267 C   0  0  0  0  0  0  0  0  0  0  0  0
   11.5385   12.5881   24.8353 H   0  0  0  0  0  0  0  0  0  0  0  0
    4.1699   10.0842   28.2742 C   0  0  0  0  0  0  0  0  0  0  0  0
    3.4827   11.0076   28.4480 O   0  0  0  0  0  0  0  0  0  0  0  0
    5.3449    9.8804   27.2877 N   0  0  0  0  0  0  0  0  0  0  0  0
    5.7233    8.9716   27.2791 H   0  0  0  0  0  0  0  0  0  0  0  0
    4.1334    8.8088   29.1064 C   0  0  0  0  0  0  0  0  0  0  0  0
    2.6545    9.8362   30.9480 C   0  0  0  0  0  0  0  0  0  0  0  0
    2.9267    8.6421   30.0322 C   0  0  0  0  0  0  0  0  0  0  0  0
    1.6833    8.2458   29.2630 C   0  0  0  0  0  0  0  0  0  0  0  0
    0.9568    7.3632   29.9784 F   0  0  0  0  0  0  0  0  0  0  0  0
    2.0329    7.6469   28.0993 F   0  0  0  0  0  0  0  0  0  0  0  0
    0.9070    9.2985   28.9559 F   0  0  0  0  0  0  0  0  0  0  0  0
 20 19  1  0  0  0
 20 18  1  0  0  0
 18 14  1  0  0  0
 14 15  2  0  0  0
 14 16  1  0  0  0
 16  1  1  0  0  0
  1  2  2  0  0  0
  2  3  1  0  0  0
  3  7  1  0  0  0
  7  8  1  0  0  0
  8  9  1  0  0  0
  9 10  1  0  0  0
 10 11  1  0  0  0
 11 12  1  0  0  0
  3  4  2  0  0  0
  4  5  1  0  0  0
 20 21  1  0  0  0
 21 22  1  0  0  0
 21 23  1  0  0  0
 21 24  1  0  0  0
  5  1  1  0  0  0
 12  7  1  0  0  0
 16 17  1  0  0  0
 10 13  1  0  0  0
  5  6  1  0  0  0
M  END
> <minimizedAffinity>
-4.81557

> <minimizedRMSD>
1.77352

$$$$
C4728-P204


  9  9  0  0  0  0  0  0  0  0999 V2000
   10.8079   13.7570   22.8593 N   0  0  0  0  0  0  0  0  0  0  0  0
   12.0032   14.5094   23.2442 C   0  0  0  0  0  0  0  0  0  0  0  0
   12.1846   15.4700   22.1236 C   0  0  0  0  0  0  0  0  0  0  0  0
   11.0868   15.5087   21.3648 C   0  0  0  0  0  0  0  0  0  0  0  0
   10.0585   14.5758   21.8969 C   0  0  0  0  0  0  0  0  0  0  0  0
   10.0461   13.1769   23.9501 C   0  0  0  0  0  0  0  0  0  0  0  0
    8.7354   12.5906   23.4344 C   0  0  0  0  0  0  0  0  0  0  0  0
    8.0663   10.3615   24.0351 O   0  0  0  0  0  0  0  0  0  0  0  0
    8.2274   11.5330   24.3723 C   0  0  0  0  0  0  0  0  0  0  0  0
  8  9  2  0  0  0
  9  7  1  0  0  0
  7  6  1  0  0  0
  6  1  1  0  0  0
  1  2  1  0  0  0
  2  3  1  0  0  0
  3  4  2  0  0  0
  4  5  1  0  0  0
  5  1  1  0  0  0
M  END
> <minimizedAffinity>
-4.12274

> <minimizedRMSD>
1.20806

$$$$
C7479-P192


 24 25  0  0  0  0  0  0  0  0999 V2000
    7.0723   14.8277   22.4480 S   0  0  0  0  0  0  0  0  0  0  0  0
    6.7701   13.4733   22.0065 O   0  0  0  0  0  0  0  0  0  0  0  0
    8.0613   15.5140   21.6416 O   0  0  0  0  0  0  0  0  0  0  0  0
    7.0575   15.0687   23.9627 N   0  0  0  0  0  0  0  0  0  0  0  0
    8.3856   14.6735   24.6328 S   0  0  0  0  0  0  0  0  0  0  0  0
    8.2841   15.3080   26.2956 C   0  0  0  0  0  0  0  0  0  0  0  0
    9.6935   15.0758   24.1583 O   0  0  0  0  0  0  0  0  0  0  0  0
    8.4816   12.8971   24.9396 C   0  0  0  0  0  0  0  0  0  0  0  0
    9.2198   12.1712   23.8138 C   0  0  0  0  0  0  0  0  0  0  0  0
    9.2713   10.6572   23.9710 C   0  0  0  0  0  0  0  0  0  0  0  0
    7.9960   10.0219   24.4801 C   0  0  0  0  0  0  0  0  0  0  0  0
    7.2423   10.8019   25.5396 C   0  0  0  0  0  0  0  0  0  0  0  0
    7.1183   12.2790   25.2167 C   0  0  0  0  0  0  0  0  0  0  0  0
    5.6812   15.6686   22.0516 N   0  0  0  0  0  0  0  0  0  0  0  0
    5.7371   16.5794   22.5074 H   0  0  0  0  0  0  0  0  0  0  0  0
    4.3988   15.0800   22.4156 C   0  0  0  0  0  0  0  0  0  0  0  0
    3.2669   14.5648   20.1149 C   0  0  0  0  0  0  0  0  0  0  0  0
    2.1753   15.0686   19.4668 O   0  0  0  0  0  0  0  0  0  0  0  0
    1.7839   16.1072   20.2350 C   0  0  0  0  0  0  0  0  0  0  0  0
    2.5045   16.3073   21.3171 N   0  0  0  0  0  0  0  0  0  0  0  0
    3.4373   15.2838   21.2861 C   0  0  0  0  0  0  0  0  0  0  0  0
    3.9208   13.5684   17.9325 C   0  0  0  0  0  0  0  0  0  0  0  0
    3.9400   13.4246   19.4536 C   0  0  0  0  0  0  0  0  0  0  0  0
    3.3048   12.0997   19.8728 C   0  0  0  0  0  0  0  0  0  0  0  0
 22 23  1  0  0  0
 23 24  1  0  0  0
 23 17  1  0  0  0
 17 18  1  0  0  0
 18 19  1  0  0  0
 19 20  2  0  0  0
 20 21  1  0  0  0
 21 16  1  0  0  0
 16 14  1  0  0  0
 14  1  1  0  0  0
  1  2  2  0  0  0
  1  3  2  0  0  0
  1  4  1  0  0  0
  4  5  2  0  0  0
  5  6  1  0  0  0
  5  7  2  0  0  0
  5  8  1  0  0  0
  8  9  1  0  0  0
  9 10  1  0  0  0
 10 11  1  0  0  0
 11 12  1  0  0  0
 12 13  1  0  0  0
 21 17  2  0  0  0
 13  8  1  0  0  0
 14 15  1  0  0  0
M  END
> <minimizedAffinity>
-6.13278

> <minimizedRMSD>
0.57321

$$$$
C6056-P493


 17 19  0  0  0  0  0  0  0  0999 V2000
    9.6702   11.1245   23.7796 C   0  0  0  0  0  0  0  0  0  0  0  0
    8.8085   10.7057   24.7841 C   0  0  0  0  0  0  0  0  0  0  0  0
    8.1021   11.6783   25.4530 C   0  0  0  0  0  0  0  0  0  0  0  0
    8.2750   13.0333   25.1559 C   0  0  0  0  0  0  0  0  0  0  0  0
    9.0726   13.4852   24.1205 C   0  0  0  0  0  0  0  0  0  0  0  0
    9.7946   12.4966   23.4591 C   0  0  0  0  0  0  0  0  0  0  0  0
    7.4454   13.8447   26.0854 C   0  0  0  0  0  0  0  0  0  0  0  0
    6.4967   12.7609   26.6028 C   0  0  0  0  0  0  0  0  0  0  0  0
    7.1776   11.4485   26.5080 N   0  0  0  0  0  0  0  0  0  0  0  0
    7.0288   10.6315   27.0369 H   0  0  0  0  0  0  0  0  0  0  0  0
    9.0790   14.8333   23.8038 N   0  0  0  0  0  0  0  0  0  0  0  0
   10.1907   15.6013   24.3808 C   0  0  0  0  0  0  0  0  0  0  0  0
   11.3444   15.7146   23.3729 C   0  0  0  0  0  0  0  0  0  0  0  0
   10.9297   16.4115   22.1495 N   0  0  0  0  0  0  0  0  0  0  0  0
    9.8472   15.6310   21.5177 C   0  0  0  0  0  0  0  0  0  0  0  0
    8.6636   15.3014   22.4591 C   0  0  0  0  0  0  0  0  0  0  0  0
   11.7205   16.4858   21.5096 H   0  0  0  0  0  0  0  0  0  0  0  0
  1  2  2  0  0  0
  2  3  1  0  0  0
  3  4  2  0  0  0
  4  5  1  0  0  0
  5 11  1  0  0  0
 11 12  1  0  0  0
 12 13  1  0  0  0
 13 14  1  0  0  0
 14 15  1  0  0  0
 15 16  1  0  0  0
  5  6  2  0  0  0
  4  7  1  0  0  0
  7  8  1  0  0  0
  8  9  1  0  0  0
  6  1  1  0  0  0
  9  3  1  0  0  0
 16 11  1  0  0  0
 14 17  1  0  0  0
  9 10  1  0  0  0
M  END
> <minimizedAffinity>
-4.90375

> <minimizedRMSD>
0.95415

$$$$
C4655-P339


 12 12  0  0  0  0  0  0  0  0999 V2000
    8.1171   14.7288   24.3971 C   0  0  0  0  0  0  0  0  0  0  0  0
    8.5921   15.4027   25.6838 C   0  0  0  0  0  0  0  0  0  0  0  0
    8.2220   16.8777   25.8637 C   0  0  0  0  0  0  0  0  0  0  0  0
    6.9469   17.3502   25.1690 C   0  0  0  0  0  0  0  0  0  0  0  0
    7.1907   17.7063   23.7788 N   0  0  0  0  0  0  0  0  0  0  0  0
    7.2668   16.5697   22.8559 C   0  0  0  0  0  0  0  0  0  0  0  0
    8.3749   15.5483   23.1339 C   0  0  0  0  0  0  0  0  0  0  0  0
    8.0749   18.2128   23.7316 H   0  0  0  0  0  0  0  0  0  0  0  0
    8.6108   13.2789   24.2758 C   0  0  0  0  0  0  0  0  0  0  0  0
    8.0960   12.5429   23.4259 O   0  0  0  0  0  0  0  0  0  0  0  0
   11.0551   12.6441   24.7347 C   0  0  0  0  0  0  0  0  0  0  0  0
    9.6321   12.7010   25.2432 C   0  0  0  0  0  0  0  0  0  0  0  0
 11 12  1  0  0  0
 12  9  1  0  0  0
  9 10  2  0  0  0
  1  9  1  0  0  0
  1  2  1  0  0  0
  2  3  1  0  0  0
  3  4  1  0  0  0
  4  5  1  0  0  0
  5  6  1  0  0  0
  6  7  1  0  0  0
  7  1  1  0  0  0
  5  8  1  0  0  0
M  END
> <minimizedAffinity>
-3.31560

> <minimizedRMSD>
2.48991

$$$$
C4699-P339


 11 11  0  0  0  0  0  0  0  0999 V2000
    8.4070   13.1556   25.5004 C   0  0  0  0  0  0  0  0  0  0  0  0
    9.8125   13.7361   25.6720 C   0  0  0  0  0  0  0  0  0  0  0  0
    9.8887   15.0005   26.5304 C   0  0  0  0  0  0  0  0  0  0  0  0
    8.7368   15.9953   26.4221 C   0  0  0  0  0  0  0  0  0  0  0  0
    8.2201   16.2213   25.0115 C   0  0  0  0  0  0  0  0  0  0  0  0
    7.1608   15.2082   24.5778 C   0  0  0  0  0  0  0  0  0  0  0  0
    7.6662   13.7876   24.3174 C   0  0  0  0  0  0  0  0  0  0  0  0
    8.3667   11.6208   25.4200 C   0  0  0  0  0  0  0  0  0  0  0  0
    7.3213   11.0344   25.7249 O   0  0  0  0  0  0  0  0  0  0  0  0
    9.7323   10.4611   23.5883 C   0  0  0  0  0  0  0  0  0  0  0  0
    9.5971   10.8065   25.0531 C   0  0  0  0  0  0  0  0  0  0  0  0
 10 11  1  0  0  0
 11  8  1  0  0  0
  8  9  2  0  0  0
  8  1  1  0  0  0
  1  2  1  0  0  0
  2  3  1  0  0  0
  3  4  1  0  0  0
  4  5  1  0  0  0
  5  6  1  0  0  0
  6  7  1  0  0  0
  7  1  1  0  0  0
M  END
> <minimizedAffinity>
-2.86635

> <minimizedRMSD>
2.39670

$$$$
C4730-P339


 11 11  0  0  0  0  0  0  0  0999 V2000
    7.9419   14.7340   26.0262 C   0  0  0  0  0  0  0  0  0  0  0  0
    9.0164   13.6431   25.9685 C   0  0  0  0  0  0  0  0  0  0  0  0
   10.4200   14.1717   25.6784 C   0  0  0  0  0  0  0  0  0  0  0  0
   10.7346   14.3800   24.2059 C   0  0  0  0  0  0  0  0  0  0  0  0
    9.8351   15.3735   23.4818 C   0  0  0  0  0  0  0  0  0  0  0  0
    8.4281   14.8540   23.2276 C   0  0  0  0  0  0  0  0  0  0  0  0
    7.2233   15.3730   24.4712 S   0  0  0  0  0  0  0  0  0  0  0  0
    6.7783   14.3331   26.9382 C   0  0  0  0  0  0  0  0  0  0  0  0
    6.0625   15.2068   27.4438 O   0  0  0  0  0  0  0  0  0  0  0  0
    5.4010   12.2108   26.5124 C   0  0  0  0  0  0  0  0  0  0  0  0
    6.5387   12.8636   27.2715 C   0  0  0  0  0  0  0  0  0  0  0  0
 10 11  1  0  0  0
 11  8  1  0  0  0
  8  9  2  0  0  0
  1  8  1  0  0  0
  1  2  1  0  0  0
  2  3  1  0  0  0
  3  4  1  0  0  0
  4  5  1  0  0  0
  5  6  1  0  0  0
  6  7  1  0  0  0
  7  1  1  0  0  0
M  END
> <minimizedAffinity>
-2.04725

> <minimizedRMSD>
3.38637

$$$$
C6273-P152


 14 15  0  0  0  0  0  0  0  0999 V2000
    9.1060   14.3442   23.5322 C   0  0  0  0  0  0  0  0  0  0  0  0
    9.8895   15.2491   24.3658 N   0  0  0  0  0  0  0  0  0  0  0  0
   11.1964   14.7795   24.7923 C   0  0  0  0  0  0  0  0  0  0  0  0
   12.1978   14.3085   23.7415 C   0  0  0  0  0  0  0  0  0  0  0  0
   12.1058   15.0042   22.3882 C   0  0  0  0  0  0  0  0  0  0  0  0
   11.0836   14.3344   21.4789 C   0  0  0  0  0  0  0  0  0  0  0  0
    9.3353   14.7217   21.7758 S   0  0  0  0  0  0  0  0  0  0  0  0
    9.3437   15.4467   25.2045 H   0  0  0  0  0  0  0  0  0  0  0  0
    8.6728   10.2325   24.6606 C   0  0  0  0  0  0  0  0  0  0  0  0
    8.0837   11.2168   25.4393 C   0  0  0  0  0  0  0  0  0  0  0  0
    8.2605   12.5547   25.0940 C   0  0  0  0  0  0  0  0  0  0  0  0
    9.0097   12.8809   23.9591 C   0  0  0  0  0  0  0  0  0  0  0  0
    9.6202   11.9209   23.2228 N   0  0  0  0  0  0  0  0  0  0  0  0
    9.4315   10.6306   23.5771 C   0  0  0  0  0  0  0  0  0  0  0  0
  9 10  2  0  0  0
 10 11  1  0  0  0
 11 12  2  0  0  0
  1 12  1  0  0  0
  1  2  1  0  0  0
  2  3  1  0  0  0
  3  4  1  0  0  0
  4  5  1  0  0  0
  5  6  1  0  0  0
  6  7  1  0  0  0
 12 13  1  0  0  0
 13 14  2  0  0  0
 14  9  1  0  0  0
  7  1  1  0  0  0
  2  8  1  0  0  0
M  END
> <minimizedAffinity>
-5.15012

> <minimizedRMSD>
0.34310

$$$$
C2382-P2


 15 15  0  0  0  0  0  0  0  0999 V2000
    7.7725   14.7261   23.0457 C   0  0  0  0  0  0  0  0  0  0  0  0
    8.0238   13.3093   23.6237 C   0  0  0  0  0  0  0  0  0  0  0  0
    7.1156   14.5119   21.6777 C   0  0  0  0  0  0  0  0  0  0  0  0
    6.9853   15.6048   23.9546 N   0  0  0  0  0  0  0  0  0  0  0  0
    6.4924   16.8789   23.4167 C   0  0  0  0  0  0  0  0  0  0  0  0
    5.0580   16.8317   22.8789 C   0  0  0  0  0  0  0  0  0  0  0  0
    4.0953   16.1944   23.8722 C   0  0  0  0  0  0  0  0  0  0  0  0
    4.6375   14.8583   24.3644 C   0  0  0  0  0  0  0  0  0  0  0  0
    6.0527   15.0173   24.9125 C   0  0  0  0  0  0  0  0  0  0  0  0
    9.1962   15.3708   22.9480 C   0  0  0  0  0  0  0  0  0  0  0  0
    9.9544   15.3740   23.9294 O   0  0  0  0  0  0  0  0  0  0  0  0
    9.6425   16.0512   21.6600 C   0  0  0  0  0  0  0  0  0  0  0  0
   12.1595   15.9515   21.4990 C   0  0  0  0  0  0  0  0  0  0  0  0
   10.8405   15.3541   21.0159 C   0  0  0  0  0  0  0  0  0  0  0  0
   10.7699   15.4728   19.4943 C   0  0  0  0  0  0  0  0  0  0  0  0
 13 14  1  0  0  0
 14 15  1  0  0  0
 14 12  1  0  0  0
 12 10  1  0  0  0
 10 11  2  0  0  0
 10  1  1  0  0  0
  1  2  1  0  0  0
  1  3  1  0  0  0
  1  4  1  0  0  0
  4  5  1  0  0  0
  5  6  1  0  0  0
  6  7  1  0  0  0
  7  8  1  0  0  0
  8  9  1  0  0  0
  9  4  1  0  0  0
M  END
> <minimizedAffinity>
-4.83033

> <minimizedRMSD>
0.71609

$$$$
C15025-P239


 13 13  0  0  0  0  0  0  0  0999 V2000
    9.4361   13.0487   24.2018 S   0  0  0  0  0  0  0  0  0  0  0  0
    9.1519   14.3191   24.8331 O   0  0  0  0  0  0  0  0  0  0  0  0
   10.7558   12.4659   24.2450 O   0  0  0  0  0  0  0  0  0  0  0  0
    8.3243   11.8732   24.8807 C   0  0  0  0  0  0  0  0  0  0  0  0
    7.3886   12.2592   25.8405 C   0  0  0  0  0  0  0  0  0  0  0  0
    6.6161   11.2859   26.4622 C   0  0  0  0  0  0  0  0  0  0  0  0
    6.8139    9.9661   26.0989 C   0  0  0  0  0  0  0  0  0  0  0  0
    7.7175    9.5672   25.1750 N   0  0  0  0  0  0  0  0  0  0  0  0
    8.4660   10.5320   24.5805 C   0  0  0  0  0  0  0  0  0  0  0  0
    8.9468   13.2047   22.5973 N   0  0  0  0  0  0  0  0  0  0  0  0
    9.6219   12.7091   22.0151 H   0  0  0  0  0  0  0  0  0  0  0  0
   10.0395   15.0977   21.2997 C   0  0  0  0  0  0  0  0  0  0  0  0
    8.8369   14.6026   22.0819 C   0  0  0  0  0  0  0  0  0  0  0  0
 12 13  1  0  0  0
 13 10  1  0  0  0
 10  1  1  0  0  0
  1  2  2  0  0  0
  1  3  2  0  0  0
  1  4  1  0  0  0
  4  5  2  0  0  0
  5  6  1  0  0  0
  6  7  2  0  0  0
  7  8  1  0  0  0
  8  9  2  0  0  0
  9  4  1  0  0  0
 10 11  1  0  0  0
M  END
> <minimizedAffinity>
-4.31134

> <minimizedRMSD>
0.87890

$$$$
C15027-P239


 14 14  0  0  0  0  0  0  0  0999 V2000
   10.3240   13.1092   24.0755 C   0  0  0  0  0  0  0  0  0  0  0  0
   10.3562   13.9155   25.2530 O   0  0  0  0  0  0  0  0  0  0  0  0
    9.4633   14.2419   25.4459 H   0  0  0  0  0  0  0  0  0  0  0  0
    9.4753   11.8708   24.2910 C   0  0  0  0  0  0  0  0  0  0  0  0
    8.3628   11.8566   25.1420 C   0  0  0  0  0  0  0  0  0  0  0  0
    7.6484   10.6796   25.2946 C   0  0  0  0  0  0  0  0  0  0  0  0
    7.9770    9.5214   24.6878 N   0  0  0  0  0  0  0  0  0  0  0  0
    9.0564    9.5508   23.8747 C   0  0  0  0  0  0  0  0  0  0  0  0
    9.8206   10.6794   23.6453 C   0  0  0  0  0  0  0  0  0  0  0  0
    9.8565   13.9987   22.9148 C   0  0  0  0  0  0  0  0  0  0  0  0
    8.9354   13.6532   22.1623 O   0  0  0  0  0  0  0  0  0  0  0  0
   10.4384   15.4055   22.8084 C   0  0  0  0  0  0  0  0  0  0  0  0
   12.4354   16.1757   21.5091 C   0  0  0  0  0  0  0  0  0  0  0  0
   11.9081   15.4695   22.5158 C   0  0  0  0  0  0  0  0  0  0  0  0
 13 14  2  0  0  0
 14 12  1  0  0  0
 12 10  1  0  0  0
 10 11  2  0  0  0
 10  1  1  0  0  0
  1  2  1  0  0  0
  1  4  1  0  0  0
  4  5  2  0  0  0
  5  6  1  0  0  0
  6  7  2  0  0  0
  7  8  1  0  0  0
  8  9  2  0  0  0
  9  4  1  0  0  0
  2  3  1  0  0  0
M  END
> <minimizedAffinity>
-5.25810

> <minimizedRMSD>
1.58878

$$$$
C15036-P239


 15 15  0  0  0  0  0  0  0  0999 V2000
   10.1942   13.3007   23.9052 S   0  0  0  0  0  0  0  0  0  0  0  0
   11.5225   12.9321   24.3324 O   0  0  0  0  0  0  0  0  0  0  0  0
    9.5830   14.5341   24.3452 O   0  0  0  0  0  0  0  0  0  0  0  0
    9.1270   11.9824   24.3282 C   0  0  0  0  0  0  0  0  0  0  0  0
    8.1353   12.1599   25.2916 C   0  0  0  0  0  0  0  0  0  0  0  0
    7.3971   11.0602   25.7096 C   0  0  0  0  0  0  0  0  0  0  0  0
    7.6835    9.8297   25.1463 C   0  0  0  0  0  0  0  0  0  0  0  0
    8.6442    9.6333   24.2145 N   0  0  0  0  0  0  0  0  0  0  0  0
    9.3582   10.7179   23.8217 C   0  0  0  0  0  0  0  0  0  0  0  0
   10.1715   13.3571   22.2206 N   0  0  0  0  0  0  0  0  0  0  0  0
   11.1216   13.5407   21.8980 H   0  0  0  0  0  0  0  0  0  0  0  0
    9.2673   14.4045   21.6274 C   0  0  0  0  0  0  0  0  0  0  0  0
    9.9717   15.4864   20.8088 C   0  0  0  0  0  0  0  0  0  0  0  0
   12.3844   15.8024   21.7691 N   0  0  0  0  0  0  0  0  0  0  0  0
   11.3270   15.6859   21.3123 C   0  0  0  0  0  0  0  0  0  0  0  0
 14 15  3  0  0  0
 15 13  1  0  0  0
 13 12  1  0  0  0
 12 10  1  0  0  0
 10  1  1  0  0  0
  1  2  2  0  0  0
  1  3  2  0  0  0
  1  4  1  0  0  0
  4  5  2  0  0  0
  5  6  1  0  0  0
  6  7  2  0  0  0
  7  8  1  0  0  0
  8  9  2  0  0  0
  9  4  1  0  0  0
 10 11  1  0  0  0
M  END
> <minimizedAffinity>
-5.15115

> <minimizedRMSD>
1.67802

$$$$
C15044-P239


 16 16  0  0  0  0  0  0  0  0999 V2000
    8.3341   13.8162   23.3307 S   0  0  0  0  0  0  0  0  0  0  0  0
    8.1713   14.6855   24.4764 O   0  0  0  0  0  0  0  0  0  0  0  0
    7.3617   13.7087   22.2636 O   0  0  0  0  0  0  0  0  0  0  0  0
    8.5050   12.1788   23.9812 C   0  0  0  0  0  0  0  0  0  0  0  0
    7.6507   11.7745   24.9962 C   0  0  0  0  0  0  0  0  0  0  0  0
    7.6809   10.4364   25.3405 C   0  0  0  0  0  0  0  0  0  0  0  0
    8.5504    9.5882   24.6594 C   0  0  0  0  0  0  0  0  0  0  0  0
    9.3744   10.0976   23.6729 C   0  0  0  0  0  0  0  0  0  0  0  0
    9.3873   11.3903   23.3231 N   0  0  0  0  0  0  0  0  0  0  0  0
    9.7912   14.1941   22.6064 N   0  0  0  0  0  0  0  0  0  0  0  0
   10.4047   13.3896   22.7361 H   0  0  0  0  0  0  0  0  0  0  0  0
   10.5282   15.3644   23.0525 C   0  0  0  0  0  0  0  0  0  0  0  0
   11.9978   15.2512   22.6616 C   0  0  0  0  0  0  0  0  0  0  0  0
   12.3745   16.0768   21.4313 C   0  0  0  0  0  0  0  0  0  0  0  0
   11.6698   14.9687   19.1646 N   0  0  0  0  0  0  0  0  0  0  0  0
   11.9725   15.4331   20.1812 C   0  0  0  0  0  0  0  0  0  0  0  0
 15 16  3  0  0  0
 16 14  1  0  0  0
 14 13  1  0  0  0
 13 12  1  0  0  0
 12 10  1  0  0  0
 10  1  1  0  0  0
  1  2  2  0  0  0
  1  3  2  0  0  0
  1  4  1  0  0  0
  4  5  2  0  0  0
  5  6  1  0  0  0
  6  7  2  0  0  0
  7  8  1  0  0  0
  8  9  2  0  0  0
  9  4  1  0  0  0
 10 11  1  0  0  0
M  END
> <minimizedAffinity>
-5.10256

> <minimizedRMSD>
0.47217

$$$$
C15048-P239


 17 17  0  0  0  0  0  0  0  0999 V2000
    8.0448   13.6888   25.2605 C   0  0  0  0  0  0  0  0  0  0  0  0
    8.0104   12.1719   25.1737 C   0  0  0  0  0  0  0  0  0  0  0  0
    8.8868   11.5178   24.2982 C   0  0  0  0  0  0  0  0  0  0  0  0
    8.8502   10.1352   24.2112 C   0  0  0  0  0  0  0  0  0  0  0  0
    8.0189    9.3614   24.9420 N   0  0  0  0  0  0  0  0  0  0  0  0
    7.1622   10.0024   25.7612 C   0  0  0  0  0  0  0  0  0  0  0  0
    7.1167   11.3820   25.9073 C   0  0  0  0  0  0  0  0  0  0  0  0
    8.6531   15.4849   26.9803 C   0  0  0  0  0  0  0  0  0  0  0  0
    7.8936   14.1859   26.7237 C   0  0  0  0  0  0  0  0  0  0  0  0
    6.9625   14.3332   24.4841 N   0  0  0  0  0  0  0  0  0  0  0  0
    6.6863   15.1790   24.9828 H   0  0  0  0  0  0  0  0  0  0  0  0
    7.3226   14.7699   22.9041 S   0  0  0  0  0  0  0  0  0  0  0  0
    8.6693   15.2828   22.9210 O   0  0  0  0  0  0  0  0  0  0  0  0
    6.9066   13.7361   21.9931 O   0  0  0  0  0  0  0  0  0  0  0  0
    6.2481   16.0518   22.7747 N   0  0  0  0  0  0  0  0  0  0  0  0
    6.1288   16.8922   23.9677 C   0  0  0  0  0  0  0  0  0  0  0  0
    4.9534   15.7639   22.1341 C   0  0  0  0  0  0  0  0  0  0  0  0
  8  9  1  0  0  0
  1  9  1  0  0  0
  1 10  1  0  0  0
 10 12  1  0  0  0
 12 13  2  0  0  0
 12 14  2  0  0  0
 12 15  1  0  0  0
 15 16  1  0  0  0
 15 17  1  0  0  0
  1  2  1  0  0  0
  2  3  2  0  0  0
  3  4  1  0  0  0
  4  5  2  0  0  0
  5  6  1  0  0  0
  6  7  2  0  0  0
  7  2  1  0  0  0
 10 11  1  0  0  0
M  END
> <minimizedAffinity>
-4.64002

> <minimizedRMSD>
0.80879

$$$$
C15051-P239


 15 15  0  0  0  0  0  0  0  0999 V2000
    8.6134   14.7804   25.1951 C   0  0  0  0  0  0  0  0  0  0  0  0
    9.0183   13.4872   24.4719 C   0  0  0  0  0  0  0  0  0  0  0  0
   10.4135   13.2862   24.7385 O   0  0  0  0  0  0  0  0  0  0  0  0
   10.9151   14.0594   24.4362 H   0  0  0  0  0  0  0  0  0  0  0  0
    8.2998   12.2352   24.9728 C   0  0  0  0  0  0  0  0  0  0  0  0
    7.3178   12.2767   25.9662 C   0  0  0  0  0  0  0  0  0  0  0  0
    6.7058   11.0978   26.3766 C   0  0  0  0  0  0  0  0  0  0  0  0
    7.0779    9.9029   25.7854 C   0  0  0  0  0  0  0  0  0  0  0  0
    8.0635    9.9297   24.8148 C   0  0  0  0  0  0  0  0  0  0  0  0
    8.6875   11.0566   24.4154 N   0  0  0  0  0  0  0  0  0  0  0  0
    8.6821   13.7159   22.9815 C   0  0  0  0  0  0  0  0  0  0  0  0
    7.5605   13.4888   22.5088 O   0  0  0  0  0  0  0  0  0  0  0  0
    9.7882   14.3295   22.1496 C   0  0  0  0  0  0  0  0  0  0  0  0
   10.1355   15.5779   22.6017 F   0  0  0  0  0  0  0  0  0  0  0  0
    9.4052   14.5147   20.8558 F   0  0  0  0  0  0  0  0  0  0  0  0
  2  1  1  0  0  0
  2  3  1  0  0  0
  2 11  1  0  0  0
 11 12  2  0  0  0
 11 13  1  0  0  0
 13 14  1  0  0  0
 13 15  1  0  0  0
  2  5  1  0  0  0
  5  6  2  0  0  0
  6  7  1  0  0  0
  7  8  2  0  0  0
  8  9  1  0  0  0
  9 10  2  0  0  0
 10  5  1  0  0  0
  3  4  1  0  0  0
M  END
> <minimizedAffinity>
-4.70642

> <minimizedRMSD>
0.53342

$$$$
C15065-P239


 14 14  0  0  0  0  0  0  0  0999 V2000
    9.0816   12.8654   24.4390 C   0  0  0  0  0  0  0  0  0  0  0  0
    9.7825   13.5541   25.1806 O   0  0  0  0  0  0  0  0  0  0  0  0
    8.2428   11.8125   25.0642 C   0  0  0  0  0  0  0  0  0  0  0  0
    7.3004   12.2036   26.0218 C   0  0  0  0  0  0  0  0  0  0  0  0
    6.4571   11.2582   26.5938 C   0  0  0  0  0  0  0  0  0  0  0  0
    6.5979    9.9414   26.2017 C   0  0  0  0  0  0  0  0  0  0  0  0
    7.5184    9.5194   25.3079 N   0  0  0  0  0  0  0  0  0  0  0  0
    8.3168   10.4650   24.7444 C   0  0  0  0  0  0  0  0  0  0  0  0
    8.9224   13.1423   22.9475 C   0  0  0  0  0  0  0  0  0  0  0  0
    7.5133   13.2182   22.6809 O   0  0  0  0  0  0  0  0  0  0  0  0
    7.1242   13.9387   23.2008 H   0  0  0  0  0  0  0  0  0  0  0  0
    9.6143   14.4375   22.5129 C   0  0  0  0  0  0  0  0  0  0  0  0
   11.8544   15.1150   22.7302 C   0  0  0  0  0  0  0  0  0  0  0  0
   10.9685   14.1675   22.1444 O   0  0  0  0  0  0  0  0  0  0  0  0
 13 14  1  0  0  0
 14 12  1  0  0  0
 12  9  1  0  0  0
  9 10  1  0  0  0
  9  1  1  0  0  0
  1  2  2  0  0  0
  1  3  1  0  0  0
  3  4  2  0  0  0
  4  5  1  0  0  0
  5  6  2  0  0  0
  6  7  1  0  0  0
  7  8  2  0  0  0
  8  3  1  0  0  0
 10 11  1  0  0  0
M  END
> <minimizedAffinity>
-4.84658

> <minimizedRMSD>
0.71364

$$$$
C15066-P239


 16 16  0  0  0  0  0  0  0  0999 V2000
    9.2843   12.9097   24.3149 C   0  0  0  0  0  0  0  0  0  0  0  0
   10.5296   12.3213   24.0210 O   0  0  0  0  0  0  0  0  0  0  0  0
   10.4001   11.5779   23.4115 H   0  0  0  0  0  0  0  0  0  0  0  0
    8.4231   11.8401   24.9549 C   0  0  0  0  0  0  0  0  0  0  0  0
    7.4766   12.2200   25.9179 C   0  0  0  0  0  0  0  0  0  0  0  0
    6.6099   11.2814   26.4615 C   0  0  0  0  0  0  0  0  0  0  0  0
    6.7297    9.9720   26.0436 C   0  0  0  0  0  0  0  0  0  0  0  0
    7.6632    9.5446   25.1693 N   0  0  0  0  0  0  0  0  0  0  0  0
    8.4849   10.4858   24.6375 C   0  0  0  0  0  0  0  0  0  0  0  0
    8.5632   13.7521   23.2460 C   0  0  0  0  0  0  0  0  0  0  0  0
    7.6252   13.2520   22.6098 O   0  0  0  0  0  0  0  0  0  0  0  0
    8.8158   15.2538   23.1105 C   0  0  0  0  0  0  0  0  0  0  0  0
    8.0209   15.9453   24.2134 C   0  0  0  0  0  0  0  0  0  0  0  0
   10.2868   15.6832   23.0745 C   0  0  0  0  0  0  0  0  0  0  0  0
   12.3631   16.1026   21.6135 C   0  0  0  0  0  0  0  0  0  0  0  0
   10.9323   15.6024   21.6894 C   0  0  0  0  0  0  0  0  0  0  0  0
 15 16  1  0  0  0
 16 14  1  0  0  0
 14 12  1  0  0  0
 12 13  1  0  0  0
 12 10  1  0  0  0
 10 11  2  0  0  0
 10  1  1  0  0  0
  1  2  1  0  0  0
  1  4  1  0  0  0
  4  5  2  0  0  0
  5  6  1  0  0  0
  6  7  2  0  0  0
  7  8  1  0  0  0
  8  9  2  0  0  0
  9  4  1  0  0  0
  2  3  1  0  0  0
M  END
> <minimizedAffinity>
-5.35257

> <minimizedRMSD>
1.31588

$$$$
C8152-P239


 15 15  0  0  0  0  0  0  0  0999 V2000
    9.2301   13.5247   24.8158 C   0  0  0  0  0  0  0  0  0  0  0  0
    8.7216   14.4746   25.7619 O   0  0  0  0  0  0  0  0  0  0  0  0
    7.8166   14.7228   25.5163 H   0  0  0  0  0  0  0  0  0  0  0  0
    8.4209   12.2158   24.8481 C   0  0  0  0  0  0  0  0  0  0  0  0
    7.7249   11.8491   25.7893 O   0  0  0  0  0  0  0  0  0  0  0  0
    8.5519   11.4466   23.7388 O   0  0  0  0  0  0  0  0  0  0  0  0
    9.2197    9.1408   23.7194 C   0  0  0  0  0  0  0  0  0  0  0  0
    9.6874   10.5777   23.6991 C   0  0  0  0  0  0  0  0  0  0  0  0
    9.2808   14.1817   23.4171 C   0  0  0  0  0  0  0  0  0  0  0  0
    9.8055   15.5636   23.4666 N   0  0  0  0  0  0  0  0  0  0  0  0
   11.2275   15.6631   23.8360 C   0  0  0  0  0  0  0  0  0  0  0  0
   12.1944   15.2077   22.7450 C   0  0  0  0  0  0  0  0  0  0  0  0
   11.9522   15.9792   21.4550 C   0  0  0  0  0  0  0  0  0  0  0  0
   10.4860   15.8930   21.0536 C   0  0  0  0  0  0  0  0  0  0  0  0
    9.5606   16.2936   22.2054 C   0  0  0  0  0  0  0  0  0  0  0  0
  7  8  1  0  0  0
  8  6  1  0  0  0
  6  4  1  0  0  0
  4  5  2  0  0  0
  4  1  1  0  0  0
  1  2  1  0  0  0
  1  9  1  0  0  0
  9 10  1  0  0  0
 10 11  1  0  0  0
 11 12  1  0  0  0
 12 13  1  0  0  0
 13 14  1  0  0  0
 14 15  1  0  0  0
 15 10  1  0  0  0
  2  3  1  0  0  0
M  END
> <minimizedAffinity>
-4.87885

> <minimizedRMSD>
0.54044

$$$$
C6115-P290


 15 17  0  0  0  0  0  0  0  0999 V2000
    6.5112   12.4777   25.0185 C   0  0  0  0  0  0  0  0  0  0  0  0
    5.2929   12.8540   25.6017 C   0  0  0  0  0  0  0  0  0  0  0  0
    4.5762   11.8939   26.2830 C   0  0  0  0  0  0  0  0  0  0  0  0
    5.0378   10.5876   26.3698 C   0  0  0  0  0  0  0  0  0  0  0  0
    6.2230   10.2143   25.7679 C   0  0  0  0  0  0  0  0  0  0  0  0
    7.0182   11.1622   25.1020 C   0  0  0  0  0  0  0  0  0  0  0  0
    4.1155    9.7296   26.9773 N   0  0  0  0  0  0  0  0  0  0  0  0
    3.2145   10.6242   27.6989 C   0  0  0  0  0  0  0  0  0  0  0  0
    3.2484   11.9813   26.9592 C   0  0  0  0  0  0  0  0  0  0  0  0
    4.0813    8.7469   26.9294 H   0  0  0  0  0  0  0  0  0  0  0  0
    8.2370   10.8180   24.5619 N   0  0  0  0  0  0  0  0  0  0  0  0
    8.5494    9.4602   24.1392 C   0  0  0  0  0  0  0  0  0  0  0  0
    9.9541    9.5462   23.5813 C   0  0  0  0  0  0  0  0  0  0  0  0
   10.5563   10.7764   24.2458 C   0  0  0  0  0  0  0  0  0  0  0  0
    9.3759   11.7138   24.4402 C   0  0  0  0  0  0  0  0  0  0  0  0
  1  2  2  0  0  0
  2  3  1  0  0  0
  3  4  2  0  0  0
  4  5  1  0  0  0
  5  6  2  0  0  0
  6 11  1  0  0  0
 11 12  1  0  0  0
 12 13  1  0  0  0
 13 14  1  0  0  0
 14 15  1  0  0  0
  4  7  1  0  0  0
  7  8  1  0  0  0
  8  9  1  0  0  0
  6  1  1  0  0  0
 15 11  1  0  0  0
  9  3  1  0  0  0
  7 10  1  0  0  0
M  END
> <minimizedAffinity>
-5.56829

> <minimizedRMSD>
0.68035

$$$$
C1392-P557


 19 19  0  0  0  0  0  0  0  0999 V2000
   10.8288   12.9755   23.9356 C   0  0  0  0  0  0  0  0  0  0  0  0
    9.4264   13.4053   24.4319 C   0  0  0  0  0  0  0  0  0  0  0  0
    9.6107   14.4624   25.5453 C   0  0  0  0  0  0  0  0  0  0  0  0
    8.6830   12.1683   25.0572 C   0  0  0  0  0  0  0  0  0  0  0  0
    7.3272   12.4908   25.7102 C   0  0  0  0  0  0  0  0  0  0  0  0
    6.7848   11.2839   26.4729 C   0  0  0  0  0  0  0  0  0  0  0  0
    6.8355    9.9910   25.6696 C   0  0  0  0  0  0  0  0  0  0  0  0
    8.1004    9.7635   24.9839 N   0  0  0  0  0  0  0  0  0  0  0  0
    8.5471   10.9145   24.1898 C   0  0  0  0  0  0  0  0  0  0  0  0
    7.9912    8.9634   24.3607 H   0  0  0  0  0  0  0  0  0  0  0  0
    8.6862   14.0043   23.1935 C   0  0  0  0  0  0  0  0  0  0  0  0
    7.8930   13.4123   22.5733 O   0  0  0  0  0  0  0  0  0  0  0  0
    9.3009   15.4108   22.9590 N   0  0  0  0  0  0  0  0  0  0  0  0
    9.9009   15.7229   23.6744 H   0  0  0  0  0  0  0  0  0  0  0  0
    9.1352   16.3379   21.8590 C   0  0  0  0  0  0  0  0  0  0  0  0
   10.2782   16.1984   20.8531 C   0  0  0  0  0  0  0  0  0  0  0  0
   10.0707   16.9487   19.7604 F   0  0  0  0  0  0  0  0  0  0  0  0
   11.4446   16.5888   21.4304 F   0  0  0  0  0  0  0  0  0  0  0  0
   10.4568   14.9254   20.4532 F   0  0  0  0  0  0  0  0  0  0  0  0
  1  2  1  0  0  0
  2  3  1  0  0  0
  2 11  1  0  0  0
 11 12  2  0  0  0
 11 13  1  0  0  0
 13 15  1  0  0  0
 15 16  1  0  0  0
 16 17  1  0  0  0
 16 18  1  0  0  0
 16 19  1  0  0  0
  4  2  1  0  0  0
  4  5  1  0  0  0
  5  6  1  0  0  0
  6  7  1  0  0  0
  7  8  1  0  0  0
  8  9  1  0  0  0
  9  4  1  0  0  0
 13 14  1  0  0  0
  8 10  1  0  0  0
M  END
> <minimizedAffinity>
-5.97552

> <minimizedRMSD>
0.70207

$$$$
C1394-P557


 20 20  0  0  0  0  0  0  0  0999 V2000
    9.2093   14.7969   23.0076 N   0  0  0  0  0  0  0  0  0  0  0  0
    8.2114   13.6867   23.4314 C   0  0  0  0  0  0  0  0  0  0  0  0
    7.3933   13.1271   22.8119 O   0  0  0  0  0  0  0  0  0  0  0  0
    9.7533   15.1644   23.7413 H   0  0  0  0  0  0  0  0  0  0  0  0
    9.4720   15.3841   21.6996 C   0  0  0  0  0  0  0  0  0  0  0  0
    9.1275   16.8587   21.6324 C   0  0  0  0  0  0  0  0  0  0  0  0
    8.5493   14.7017   20.7219 C   0  0  0  0  0  0  0  0  0  0  0  0
   10.9351   15.1248   21.2708 C   0  0  0  0  0  0  0  0  0  0  0  0
   12.1576   14.6652   23.7354 C   0  0  0  0  0  0  0  0  0  0  0  0
   12.1906   15.8531   22.3810 S   0  0  0  0  0  0  0  0  0  0  0  0
    8.5120   13.2827   24.8846 C   0  0  0  0  0  0  0  0  0  0  0  0
    9.6320   12.4940   24.9212 F   0  0  0  0  0  0  0  0  0  0  0  0
    8.8292   14.3649   25.6443 F   0  0  0  0  0  0  0  0  0  0  0  0
    7.2685   12.5449   25.4225 C   0  0  0  0  0  0  0  0  0  0  0  0
    6.6958   13.0298   26.7484 C   0  0  0  0  0  0  0  0  0  0  0  0
    5.4431   12.2326   27.1130 C   0  0  0  0  0  0  0  0  0  0  0  0
    5.5635   10.7321   26.8478 C   0  0  0  0  0  0  0  0  0  0  0  0
    6.9012   10.3004   26.4895 N   0  0  0  0  0  0  0  0  0  0  0  0
    7.4752   11.0246   25.3649 C   0  0  0  0  0  0  0  0  0  0  0  0
    6.8649    9.3100   26.2484 H   0  0  0  0  0  0  0  0  0  0  0  0
  9 10  1  0  0  0
 10  8  1  0  0  0
  8  5  1  0  0  0
  5  6  1  0  0  0
  5  7  1  0  0  0
  5  1  1  0  0  0
  1  2  1  0  0  0
  2  3  2  0  0  0
  2 11  1  0  0  0
 11 12  1  0  0  0
 11 13  1  0  0  0
 14 11  1  0  0  0
 14 15  1  0  0  0
 15 16  1  0  0  0
 16 17  1  0  0  0
 17 18  1  0  0  0
 18 19  1  0  0  0
 19 14  1  0  0  0
  1  4  1  0  0  0
 18 20  1  0  0  0
M  END
> <minimizedAffinity>
-4.59912

> <minimizedRMSD>
0.45826

$$$$
C14594-P412


 27 28  0  0  0  0  0  0  0  0999 V2000
    8.2416   -9.3553   11.0749 N   0  0  0  0  0  0  0  0  0  0  0  0
    9.6319  -10.0297   11.1258 C   0  0  0  0  0  0  0  0  0  0  0  0
   10.0275  -10.9444   10.5731 O   0  0  0  0  0  0  0  0  0  0  0  0
   10.3616   -9.0338   12.0733 N   0  0  0  0  0  0  0  0  0  0  0  0
    8.1674   -8.5219   11.5937 H   0  0  0  0  0  0  0  0  0  0  0  0
    9.7791   -8.3603   12.4931 H   0  0  0  0  0  0  0  0  0  0  0  0
   11.6996   -8.9434   12.4205 C   0  0  0  0  0  0  0  0  0  0  0  0
   12.6903   -9.5393   11.6552 C   0  0  0  0  0  0  0  0  0  0  0  0
   14.0004   -9.3693   12.0581 C   0  0  0  0  0  0  0  0  0  0  0  0
   14.3628   -8.6838   13.1633 N   0  0  0  0  0  0  0  0  0  0  0  0
   13.3695   -8.1520   13.9013 C   0  0  0  0  0  0  0  0  0  0  0  0
   12.0363   -8.2114   13.5516 C   0  0  0  0  0  0  0  0  0  0  0  0
   13.6671   -7.4421   15.0453 O   0  0  0  0  0  0  0  0  0  0  0  0
   14.0165   -8.2525   16.1788 C   0  0  0  0  0  0  0  0  0  0  0  0
   12.7545   -8.8811   16.7904 C   0  0  0  0  0  0  0  0  0  0  0  0
   13.0467   -9.5894   18.1089 C   0  0  0  0  0  0  0  0  0  0  0  0
   13.7192   -8.6552   19.1089 C   0  0  0  0  0  0  0  0  0  0  0  0
   14.9774   -8.0255   18.5222 C   0  0  0  0  0  0  0  0  0  0  0  0
   14.6890   -7.3235   17.1998 C   0  0  0  0  0  0  0  0  0  0  0  0
    6.5463  -11.1072   10.9262 C   0  0  0  0  0  0  0  0  0  0  0  0
    7.0183   -9.7565   10.3796 C   0  0  0  0  0  0  0  0  0  0  0  0
    7.1560   -9.8486    8.8515 C   0  0  0  0  0  0  0  0  0  0  0  0
    7.7898   -8.6575    8.3606 O   0  0  0  0  0  0  0  0  0  0  0  0
    7.2512   -7.8852    8.5939 H   0  0  0  0  0  0  0  0  0  0  0  0
    5.9972   -8.6550   10.6893 C   0  0  0  0  0  0  0  0  0  0  0  0
    6.5944   -7.3786   10.8126 O   0  0  0  0  0  0  0  0  0  0  0  0
    7.2262   -7.3870   11.5486 H   0  0  0  0  0  0  0  0  0  0  0  0
 20 21  1  0  0  0
 21 22  1  0  0  0
 22 23  1  0  0  0
 21 25  1  0  0  0
 25 26  1  0  0  0
 21  1  1  0  0  0
  1  2  1  0  0  0
  2  3  2  0  0  0
  2  4  1  0  0  0
  4  7  1  0  0  0
  7  8  2  0  0  0
  8  9  1  0  0  0
  9 10  2  0  0  0
 10 11  1  0  0  0
 11 13  1  0  0  0
 13 14  1  0  0  0
 14 15  1  0  0  0
 15 16  1  0  0  0
 16 17  1  0  0  0
 17 18  1  0  0  0
 18 19  1  0  0  0
 11 12  2  0  0  0
 12  7  1  0  0  0
 19 14  1  0  0  0
 23 24  1  0  0  0
 26 27  1  0  0  0
  1  5  1  0  0  0
  4  6  1  0  0  0
M  END
> <minimizedAffinity>
-4.82183

> <minimizedRMSD>
1.59097

$$$$
C38619-P404


 13 13  0  0  0  0  0  0  0  0999 V2000
   10.3068   14.8821   23.3704 N   0  0  0  0  0  0  0  0  0  0  0  0
    9.9751   15.1634   21.9780 C   0  0  0  0  0  0  0  0  0  0  0  0
   11.1871   15.1107   21.0698 C   0  0  0  0  0  0  0  0  0  0  0  0
   12.2108   16.0878   21.6006 C   0  0  0  0  0  0  0  0  0  0  0  0
   12.6055   15.7388   23.0197 C   0  0  0  0  0  0  0  0  0  0  0  0
   11.5032   15.2813   23.9436 C   0  0  0  0  0  0  0  0  0  0  0  0
   11.7284   15.2100   25.1559 O   0  0  0  0  0  0  0  0  0  0  0  0
    9.2702   14.2753   24.2187 C   0  0  0  0  0  0  0  0  0  0  0  0
    9.1974   14.9346   25.5897 C   0  0  0  0  0  0  0  0  0  0  0  0
    9.5012   12.7482   24.2166 C   0  0  0  0  0  0  0  0  0  0  0  0
   10.6333   12.2630   24.1214 O   0  0  0  0  0  0  0  0  0  0  0  0
    7.5445   11.6555   25.4512 C   0  0  0  0  0  0  0  0  0  0  0  0
    8.3064   11.8203   24.1594 C   0  0  0  0  0  0  0  0  0  0  0  0
 12 13  1  0  0  0
 13 10  1  0  0  0
 10 11  2  0  0  0
 10  8  1  0  0  0
  8  9  1  0  0  0
  8  1  1  0  0  0
  1  2  1  0  0  0
  2  3  1  0  0  0
  3  4  1  0  0  0
  4  5  1  0  0  0
  5  6  1  0  0  0
  6  7  2  0  0  0
  6  1  1  0  0  0
M  END
> <minimizedAffinity>
-4.70401

> <minimizedRMSD>
0.90269

$$$$
C7479-P278


 24 25  0  0  0  0  0  0  0  0999 V2000
    6.9818   14.9665   22.4461 S   0  0  0  0  0  0  0  0  0  0  0  0
    6.6905   13.6178   21.9788 O   0  0  0  0  0  0  0  0  0  0  0  0
    7.9793   15.6743   21.6710 O   0  0  0  0  0  0  0  0  0  0  0  0
    6.9505   15.1596   23.9679 N   0  0  0  0  0  0  0  0  0  0  0  0
    8.2971   14.7917   24.6197 S   0  0  0  0  0  0  0  0  0  0  0  0
    8.1846   15.3660   26.3028 C   0  0  0  0  0  0  0  0  0  0  0  0
    9.5838   15.2606   24.1503 O   0  0  0  0  0  0  0  0  0  0  0  0
    8.4602   13.0047   24.8616 C   0  0  0  0  0  0  0  0  0  0  0  0
    9.2734   12.3619   23.7410 C   0  0  0  0  0  0  0  0  0  0  0  0
    9.3173   10.8385   23.7454 C   0  0  0  0  0  0  0  0  0  0  0  0
    8.1351   10.0946   24.3321 C   0  0  0  0  0  0  0  0  0  0  0  0
    7.2767   10.8395   25.3376 C   0  0  0  0  0  0  0  0  0  0  0  0
    7.1185   12.3201   25.0569 C   0  0  0  0  0  0  0  0  0  0  0  0
    5.5896   15.8086   22.0529 N   0  0  0  0  0  0  0  0  0  0  0  0
    5.6079   16.6852   22.5741 H   0  0  0  0  0  0  0  0  0  0  0  0
    4.3080   15.1726   22.3206 C   0  0  0  0  0  0  0  0  0  0  0  0
    3.3001   14.6256   19.9731 C   0  0  0  0  0  0  0  0  0  0  0  0
    2.2684   15.1456   19.2430 O   0  0  0  0  0  0  0  0  0  0  0  0
    1.8439   16.2014   19.9679 C   0  0  0  0  0  0  0  0  0  0  0  0
    2.4876   16.4032   21.0973 N   0  0  0  0  0  0  0  0  0  0  0  0
    3.4071   15.3656   21.1401 C   0  0  0  0  0  0  0  0  0  0  0  0
    3.4605   12.1448   19.7897 C   0  0  0  0  0  0  0  0  0  0  0  0
    4.0164   13.4892   19.3422 C   0  0  0  0  0  0  0  0  0  0  0  0
    3.9158   13.5946   17.8264 C   0  0  0  0  0  0  0  0  0  0  0  0
 22 23  1  0  0  0
 23 24  1  0  0  0
 23 17  1  0  0  0
 17 18  1  0  0  0
 18 19  1  0  0  0
 19 20  2  0  0  0
 20 21  1  0  0  0
 21 16  1  0  0  0
 16 14  1  0  0  0
 14  1  1  0  0  0
  1  2  2  0  0  0
  1  3  2  0  0  0
  1  4  1  0  0  0
  4  5  2  0  0  0
  5  6  1  0  0  0
  5  7  2  0  0  0
  5  8  1  0  0  0
  8  9  1  0  0  0
  9 10  1  0  0  0
 10 11  1  0  0  0
 11 12  1  0  0  0
 12 13  1  0  0  0
 21 17  2  0  0  0
 13  8  1  0  0  0
 14 15  1  0  0  0
M  END
> <minimizedAffinity>
-6.05595

> <minimizedRMSD>
0.48305

$$$$
C7646-P322


 15 16  0  0  0  0  0  0  0  0999 V2000
    7.4882   14.3291   25.2740 C   0  0  0  0  0  0  0  0  0  0  0  0
    6.2201   14.4804   24.4514 C   0  0  0  0  0  0  0  0  0  0  0  0
    5.1565   15.6268   22.3487 N   0  0  0  0  0  0  0  0  0  0  0  0
    6.5796   14.8384   22.7220 S   0  0  0  0  0  0  0  0  0  0  0  0
    7.6464   15.8021   22.6416 O   0  0  0  0  0  0  0  0  0  0  0  0
    6.6149   13.6312   21.9285 O   0  0  0  0  0  0  0  0  0  0  0  0
    5.1749   15.9169   21.3710 H   0  0  0  0  0  0  0  0  0  0  0  0
    5.0563   16.4482   22.9451 H   0  0  0  0  0  0  0  0  0  0  0  0
    7.9936   12.9014   25.1065 C   0  0  0  0  0  0  0  0  0  0  0  0
    9.4086   12.7416   24.7838 N   0  0  0  0  0  0  0  0  0  0  0  0
    9.4946   12.4699   23.3343 C   0  0  0  0  0  0  0  0  0  0  0  0
   10.3749   13.5016   22.7507 C   0  0  0  0  0  0  0  0  0  0  0  0
   11.8261   13.6192   22.9292 C   0  0  0  0  0  0  0  0  0  0  0  0
   10.8698   14.3779   23.8210 C   0  0  0  0  0  0  0  0  0  0  0  0
   10.2288   13.9399   25.0841 C   0  0  0  0  0  0  0  0  0  0  0  0
  3  4  1  0  0  0
  4  5  2  0  0  0
  4  6  2  0  0  0
  4  2  1  0  0  0
  2  1  1  0  0  0
  1  9  1  0  0  0
  9 10  1  0  0  0
 10 11  1  0  0  0
 12 11  1  0  0  0
 12 13  1  0  0  0
 14 13  1  0  0  0
 14 15  1  0  0  0
 15 10  1  0  0  0
 14 12  1  0  0  0
  3  7  1  0  0  0
  3  8  1  0  0  0
M  END
> <minimizedAffinity>
-4.03922

> <minimizedRMSD>
2.29073

$$$$
C7674-P322


 15 16  0  0  0  0  0  0  0  0999 V2000
    7.3808   14.8135   25.3661 C   0  0  0  0  0  0  0  0  0  0  0  0
    6.1860   14.9207   24.4355 C   0  0  0  0  0  0  0  0  0  0  0  0
    5.1541   15.4926   22.1035 N   0  0  0  0  0  0  0  0  0  0  0  0
    6.6067   14.9116   22.6870 S   0  0  0  0  0  0  0  0  0  0  0  0
    7.6087   15.9108   22.4200 O   0  0  0  0  0  0  0  0  0  0  0  0
    6.7563   13.5692   22.1731 O   0  0  0  0  0  0  0  0  0  0  0  0
    5.1988   15.5605   21.0867 H   0  0  0  0  0  0  0  0  0  0  0  0
    4.9738   16.4156   22.4983 H   0  0  0  0  0  0  0  0  0  0  0  0
    7.5443   13.3783   25.8595 C   0  0  0  0  0  0  0  0  0  0  0  0
    8.7974   12.7580   25.4421 N   0  0  0  0  0  0  0  0  0  0  0  0
    8.5116   11.4997   24.7204 C   0  0  0  0  0  0  0  0  0  0  0  0
    9.6214   11.3064   23.6754 C   0  0  0  0  0  0  0  0  0  0  0  0
   10.2508   12.6469   23.5163 C   0  0  0  0  0  0  0  0  0  0  0  0
   11.0914   13.3884   24.5367 C   0  0  0  0  0  0  0  0  0  0  0  0
    9.6153   13.5506   24.5080 C   0  0  0  0  0  0  0  0  0  0  0  0
  3  4  1  0  0  0
  4  5  2  0  0  0
  4  6  2  0  0  0
  4  2  1  0  0  0
  2  1  1  0  0  0
  1  9  1  0  0  0
  9 10  1  0  0  0
 10 11  1  0  0  0
 11 12  1  0  0  0
 13 12  1  0  0  0
 13 14  1  0  0  0
 15 14  1  0  0  0
 15 10  1  0  0  0
 15 13  1  0  0  0
  3  7  1  0  0  0
  3  8  1  0  0  0
M  END
> <minimizedAffinity>
-4.01870

> <minimizedRMSD>
0.79708

$$$$
C131129-P120


 18 19  0  0  0  0  0  0  0  0999 V2000
    5.9062   10.8488   26.0304 C   0  0  0  0  0  0  0  0  0  0  0  0
    6.6512   10.0134   25.1894 C   0  0  0  0  0  0  0  0  0  0  0  0
    7.7117   10.5183   24.4275 C   0  0  0  0  0  0  0  0  0  0  0  0
    8.0214   11.8565   24.5417 C   0  0  0  0  0  0  0  0  0  0  0  0
    7.2435   12.6926   25.3357 C   0  0  0  0  0  0  0  0  0  0  0  0
    6.1826   12.2127   26.0792 C   0  0  0  0  0  0  0  0  0  0  0  0
    7.7447   14.0923   25.2340 C   0  0  0  0  0  0  0  0  0  0  0  0
    9.1082   13.8445   24.5650 C   0  0  0  0  0  0  0  0  0  0  0  0
    9.0137   12.5647   23.8441 N   0  0  0  0  0  0  0  0  0  0  0  0
    9.5268   12.2729   23.0562 H   0  0  0  0  0  0  0  0  0  0  0  0
    4.8840   10.0793   28.3831 C   0  0  0  0  0  0  0  0  0  0  0  0
    5.6643   10.3614   29.2077 O   0  0  0  0  0  0  0  0  0  0  0  0
    4.9106   10.3194   26.8440 N   0  0  0  0  0  0  0  0  0  0  0  0
    4.0894   10.0531   26.3708 H   0  0  0  0  0  0  0  0  0  0  0  0
    3.5832    9.3603   28.6840 C   0  0  0  0  0  0  0  0  0  0  0  0
    3.8150    8.2821   29.7356 C   0  0  0  0  0  0  0  0  0  0  0  0
    1.5046    7.2103   30.5191 C   0  0  0  0  0  0  0  0  0  0  0  0
    2.5447    7.6921   30.1670 C   0  0  0  0  0  0  0  0  0  0  0  0
 17 18  3  0  0  0
 18 16  1  0  0  0
 16 15  1  0  0  0
 15 11  1  0  0  0
 11 12  2  0  0  0
 11 13  1  0  0  0
 13  1  1  0  0  0
  1  2  2  0  0  0
  2  3  1  0  0  0
  3  4  2  0  0  0
  4  5  1  0  0  0
  5  6  2  0  0  0
  5  7  1  0  0  0
  7  8  1  0  0  0
  8  9  1  0  0  0
  6  1  1  0  0  0
  9  4  1  0  0  0
 13 14  1  0  0  0
  9 10  1  0  0  0
M  END
> <minimizedAffinity>
-5.14179

> <minimizedRMSD>
1.44969

$$$$
C8137-P195


 20 20  0  0  0  0  0  0  0  0999 V2000
    7.1558   14.7663   24.2650 N   0  0  0  0  0  0  0  0  0  0  0  0
    6.4484   14.1747   24.7010 H   0  0  0  0  0  0  0  0  0  0  0  0
    6.7148   14.8564   22.6609 S   0  0  0  0  0  0  0  0  0  0  0  0
    6.6263   13.5101   22.1590 O   0  0  0  0  0  0  0  0  0  0  0  0
    5.5371   15.6940   22.6361 O   0  0  0  0  0  0  0  0  0  0  0  0
    7.9737   15.6759   21.9196 N   0  0  0  0  0  0  0  0  0  0  0  0
    8.2807   16.9809   22.5172 C   0  0  0  0  0  0  0  0  0  0  0  0
    9.1267   14.9136   21.3816 C   0  0  0  0  0  0  0  0  0  0  0  0
   10.3605   15.7331   21.0132 C   0  0  0  0  0  0  0  0  0  0  0  0
   11.4119   15.3351   18.7476 C   0  0  0  0  0  0  0  0  0  0  0  0
   10.4177   16.1511   19.5482 C   0  0  0  0  0  0  0  0  0  0  0  0
    8.4449   14.2789   24.7986 C   0  0  0  0  0  0  0  0  0  0  0  0
    8.6176   15.0035   26.1486 C   0  0  0  0  0  0  0  0  0  0  0  0
    8.5767   12.7436   25.0022 C   0  0  0  0  0  0  0  0  0  0  0  0
    7.2517   12.0743   25.3584 C   0  0  0  0  0  0  0  0  0  0  0  0
    7.3784   10.5670   25.4695 C   0  0  0  0  0  0  0  0  0  0  0  0
    7.8982   10.0036   24.2509 N   0  0  0  0  0  0  0  0  0  0  0  0
    9.1921   10.4923   23.8423 C   0  0  0  0  0  0  0  0  0  0  0  0
    9.3253   12.0144   23.8735 C   0  0  0  0  0  0  0  0  0  0  0  0
    7.2352   10.2071   23.5030 H   0  0  0  0  0  0  0  0  0  0  0  0
 10 11  1  0  0  0
 11  9  1  0  0  0
  9  8  1  0  0  0
  8  6  1  0  0  0
  6  7  1  0  0  0
  6  3  1  0  0  0
  3  4  2  0  0  0
  3  5  2  0  0  0
  3  1  1  0  0  0
  1 12  1  0  0  0
 12 13  1  0  0  0
 12 14  1  0  0  0
 14 15  1  0  0  0
 15 16  1  0  0  0
 16 17  1  0  0  0
 17 18  1  0  0  0
 18 19  1  0  0  0
 19 14  1  0  0  0
  1  2  1  0  0  0
 17 20  1  0  0  0
M  END
> <minimizedAffinity>
-5.41704

> <minimizedRMSD>
0.38760

$$$$
C8169-P195


 15 15  0  0  0  0  0  0  0  0999 V2000
    7.6071   14.3275   21.8447 O   0  0  0  0  0  0  0  0  0  0  0  0
    8.8332   14.2382   22.6036 S   0  0  0  0  0  0  0  0  0  0  0  0
    9.7459   13.1261   22.5208 O   0  0  0  0  0  0  0  0  0  0  0  0
    9.6193   15.7059   22.5787 N   0  0  0  0  0  0  0  0  0  0  0  0
   10.7876   15.9085   23.4485 C   0  0  0  0  0  0  0  0  0  0  0  0
   12.0749   15.6307   22.6852 C   0  0  0  0  0  0  0  0  0  0  0  0
   12.1571   16.4731   21.4152 C   0  0  0  0  0  0  0  0  0  0  0  0
   10.9282   16.2381   20.5447 C   0  0  0  0  0  0  0  0  0  0  0  0
    9.6486   16.4993   21.3254 C   0  0  0  0  0  0  0  0  0  0  0  0
    8.3166   14.3286   24.2013 N   0  0  0  0  0  0  0  0  0  0  0  0
    7.2981   14.3831   24.2116 H   0  0  0  0  0  0  0  0  0  0  0  0
    8.7340   13.1647   25.0057 C   0  0  0  0  0  0  0  0  0  0  0  0
    7.4790   12.4942   25.5443 C   0  0  0  0  0  0  0  0  0  0  0  0
    7.4285   10.9976   25.3171 C   0  0  0  0  0  0  0  0  0  0  0  0
    8.6360   10.4378   24.1627 Cl  0  0  0  0  0  0  0  0  0  0  0  0
  1  2  2  0  0  0
  2  3  2  0  0  0
  2 10  1  0  0  0
 10 12  1  0  0  0
 12 13  1  0  0  0
 13 14  1  0  0  0
 14 15  1  0  0  0
  2  4  1  0  0  0
  4  5  1  0  0  0
  5  6  1  0  0  0
  6  7  1  0  0  0
  7  8  1  0  0  0
  8  9  1  0  0  0
  9  4  1  0  0  0
 10 11  1  0  0  0
M  END
> <minimizedAffinity>
-5.03879

> <minimizedRMSD>
1.57012

$$$$
C9144-P234


 13 13  0  0  0  0  0  0  0  0999 V2000
    9.7026   14.5841   24.1352 C   0  0  0  0  0  0  0  0  0  0  0  0
   12.5842   14.6702   23.5755 O   0  0  0  0  0  0  0  0  0  0  0  0
   11.7588   15.0987   22.7832 C   0  0  0  0  0  0  0  0  0  0  0  0
   12.0605   15.8144   21.4888 C   0  0  0  0  0  0  0  0  0  0  0  0
   10.7384   15.7400   20.7429 C   0  0  0  0  0  0  0  0  0  0  0  0
    9.6969   15.7053   21.8443 C   0  0  0  0  0  0  0  0  0  0  0  0
   10.3844   15.0674   22.9430 N   0  0  0  0  0  0  0  0  0  0  0  0
    9.4557   13.0786   24.1310 C   0  0  0  0  0  0  0  0  0  0  0  0
   10.2741   12.2707   23.6784 O   0  0  0  0  0  0  0  0  0  0  0  0
    8.1417   12.6549   24.7790 C   0  0  0  0  0  0  0  0  0  0  0  0
    7.0829   12.9483   23.9876 F   0  0  0  0  0  0  0  0  0  0  0  0
    8.1000   11.3229   25.0508 F   0  0  0  0  0  0  0  0  0  0  0  0
    7.8726   13.2765   25.9603 F   0  0  0  0  0  0  0  0  0  0  0  0
  2  3  2  0  0  0
  3  4  1  0  0  0
  4  5  1  0  0  0
  5  6  1  0  0  0
  6  7  1  0  0  0
  7  1  1  0  0  0
  1  8  1  0  0  0
  8  9  2  0  0  0
  8 10  1  0  0  0
 10 11  1  0  0  0
 10 12  1  0  0  0
 10 13  1  0  0  0
  7  3  1  0  0  0
M  END
> <minimizedAffinity>
-5.10012

> <minimizedRMSD>
0.98693

$$$$
C7620-P229


 17 18  0  0  0  0  0  0  0  0999 V2000
   10.0524   13.7781   24.2718 C   0  0  0  0  0  0  0  0  0  0  0  0
   11.3346   13.4650   23.5162 C   0  0  0  0  0  0  0  0  0  0  0  0
   11.4528   14.0735   24.8227 C   0  0  0  0  0  0  0  0  0  0  0  0
    9.2770   12.8244   25.1755 C   0  0  0  0  0  0  0  0  0  0  0  0
    8.0172   13.3156   25.8435 C   0  0  0  0  0  0  0  0  0  0  0  0
    7.3500   12.0417   26.3173 C   0  0  0  0  0  0  0  0  0  0  0  0
    7.8254   10.9647   25.3624 C   0  0  0  0  0  0  0  0  0  0  0  0
    8.9669   11.5047   24.6241 N   0  0  0  0  0  0  0  0  0  0  0  0
    8.7313   11.5892   23.6353 H   0  0  0  0  0  0  0  0  0  0  0  0
    9.2355   14.9242   23.7588 N   0  0  0  0  0  0  0  0  0  0  0  0
    8.6296   15.2344   24.5185 H   0  0  0  0  0  0  0  0  0  0  0  0
    8.2515   14.6268   22.4085 S   0  0  0  0  0  0  0  0  0  0  0  0
    7.8307   13.2420   22.4103 O   0  0  0  0  0  0  0  0  0  0  0  0
    7.2928   15.7122   22.3985 O   0  0  0  0  0  0  0  0  0  0  0  0
    9.3622   14.8504   21.0380 C   0  0  0  0  0  0  0  0  0  0  0  0
    9.7854   17.2881   20.5125 C   0  0  0  0  0  0  0  0  0  0  0  0
   10.3219   16.0201   21.1385 C   0  0  0  0  0  0  0  0  0  0  0  0
 16 17  1  0  0  0
 17 15  1  0  0  0
 15 12  1  0  0  0
 12 13  2  0  0  0
 12 14  2  0  0  0
 12 10  1  0  0  0
 10  1  1  0  0  0
  4  1  1  0  0  0
  4  5  1  0  0  0
  5  6  1  0  0  0
  6  7  1  0  0  0
  7  8  1  0  0  0
  1  2  1  0  0  0
  2  3  1  0  0  0
  3  1  1  0  0  0
  8  4  1  0  0  0
 10 11  1  0  0  0
  8  9  1  0  0  0
M  END
> <minimizedAffinity>
-4.68707

> <minimizedRMSD>
2.84458

$$$$
C8903-P457


 20 22  0  0  0  0  0  0  0  0999 V2000
    7.6156   12.5703   25.1629 C   0  0  0  0  0  0  0  0  0  0  0  0
    7.8587   11.2561   24.7809 C   0  0  0  0  0  0  0  0  0  0  0  0
    6.9910   10.2530   25.2275 C   0  0  0  0  0  0  0  0  0  0  0  0
    5.8973   10.5460   26.0608 C   0  0  0  0  0  0  0  0  0  0  0  0
    5.6516   11.8861   26.4064 C   0  0  0  0  0  0  0  0  0  0  0  0
    6.5275   12.8896   25.9759 C   0  0  0  0  0  0  0  0  0  0  0  0
    4.5080   12.2593   27.3154 C   0  0  0  0  0  0  0  0  0  0  0  0
    3.4597   11.1594   27.4054 C   0  0  0  0  0  0  0  0  0  0  0  0
    4.1430    9.8134   27.5721 C   0  0  0  0  0  0  0  0  0  0  0  0
    4.9956    9.5325   26.4221 N   0  0  0  0  0  0  0  0  0  0  0  0
    4.9418    8.6823   25.9286 H   0  0  0  0  0  0  0  0  0  0  0  0
    9.3247   14.0528   25.6487 O   0  0  0  0  0  0  0  0  0  0  0  0
    8.5302   13.6611   24.7935 C   0  0  0  0  0  0  0  0  0  0  0  0
    8.3483   14.3208   23.4361 C   0  0  0  0  0  0  0  0  0  0  0  0
    9.5678   14.3057   22.6012 N   0  0  0  0  0  0  0  0  0  0  0  0
   10.7381   14.8774   23.2874 C   0  0  0  0  0  0  0  0  0  0  0  0
   11.9715   14.9073   22.3961 C   0  0  0  0  0  0  0  0  0  0  0  0
   11.7096   15.6584   21.1086 C   0  0  0  0  0  0  0  0  0  0  0  0
   10.4636   15.1353   20.4141 C   0  0  0  0  0  0  0  0  0  0  0  0
    9.2793   15.0885   21.3750 C   0  0  0  0  0  0  0  0  0  0  0  0
 12 13  2  0  0  0
 13 14  1  0  0  0
 14 15  1  0  0  0
 15 16  1  0  0  0
 16 17  1  0  0  0
 17 18  1  0  0  0
 18 19  1  0  0  0
 19 20  1  0  0  0
 13  1  1  0  0  0
  1  2  2  0  0  0
  2  3  1  0  0  0
  3  4  2  0  0  0
  4  5  1  0  0  0
  5  6  2  0  0  0
  5  7  1  0  0  0
  7  8  1  0  0  0
  8  9  1  0  0  0
  9 10  1  0  0  0
 20 15  1  0  0  0
  6  1  1  0  0  0
 10  4  1  0  0  0
 10 11  1  0  0  0
M  END
> <minimizedAffinity>
-6.74496

> <minimizedRMSD>
0.36124

$$$$
C1414-P457


 17 17  0  0  0  0  0  0  0  0999 V2000
    9.2098   13.7986   23.4527 N   0  0  0  0  0  0  0  0  0  0  0  0
   10.1191   12.8564   24.2673 C   0  0  0  0  0  0  0  0  0  0  0  0
   11.1996   13.0157   24.6766 O   0  0  0  0  0  0  0  0  0  0  0  0
    8.3010   13.4564   23.2912 H   0  0  0  0  0  0  0  0  0  0  0  0
    9.3554   11.5590   24.5369 C   0  0  0  0  0  0  0  0  0  0  0  0
    9.4211   10.5849   23.3709 C   0  0  0  0  0  0  0  0  0  0  0  0
    8.8077    9.2594   23.7951 C   0  0  0  0  0  0  0  0  0  0  0  0
    7.4397    9.3983   24.2934 N   0  0  0  0  0  0  0  0  0  0  0  0
    7.3083   10.3839   25.3639 C   0  0  0  0  0  0  0  0  0  0  0  0
    7.9047   11.7413   24.9863 C   0  0  0  0  0  0  0  0  0  0  0  0
    7.1314    8.4930   24.6481 H   0  0  0  0  0  0  0  0  0  0  0  0
    9.4750   15.1040   22.8871 C   0  0  0  0  0  0  0  0  0  0  0  0
    8.5130   15.4073   21.7624 C   0  0  0  0  0  0  0  0  0  0  0  0
   10.9467   15.3343   22.5032 C   0  0  0  0  0  0  0  0  0  0  0  0
   11.5148   14.3751   21.4584 C   0  0  0  0  0  0  0  0  0  0  0  0
   10.9621   15.1591   19.0605 C   0  0  0  0  0  0  0  0  0  0  0  0
   11.9815   15.0773   20.1808 C   0  0  0  0  0  0  0  0  0  0  0  0
 16 17  1  0  0  0
 17 15  1  0  0  0
 15 14  1  0  0  0
 14 12  1  0  0  0
 12 13  1  0  0  0
 12  1  1  0  0  0
  1  2  1  0  0  0
  2  3  2  0  0  0
  2  5  1  0  0  0
  5  6  1  0  0  0
  6  7  1  0  0  0
  7  8  1  0  0  0
  8  9  1  0  0  0
  9 10  1  0  0  0
 10  5  1  0  0  0
  1  4  1  0  0  0
  8 11  1  0  0  0
M  END
> <minimizedAffinity>
-5.41454

> <minimizedRMSD>
1.16682

$$$$
C2382-P308


 15 15  0  0  0  0  0  0  0  0999 V2000
    8.9647   14.0671   23.2595 C   0  0  0  0  0  0  0  0  0  0  0  0
    7.8200   13.9586   22.2397 C   0  0  0  0  0  0  0  0  0  0  0  0
   10.0422   13.0462   22.9014 C   0  0  0  0  0  0  0  0  0  0  0  0
    9.4759   15.4694   23.2845 N   0  0  0  0  0  0  0  0  0  0  0  0
   10.8776   15.6424   23.6873 C   0  0  0  0  0  0  0  0  0  0  0  0
   11.9045   15.5058   22.5590 C   0  0  0  0  0  0  0  0  0  0  0  0
   11.5598   16.3269   21.3262 C   0  0  0  0  0  0  0  0  0  0  0  0
   10.1120   16.1176   20.9100 C   0  0  0  0  0  0  0  0  0  0  0  0
    9.1926   16.3225   22.1108 C   0  0  0  0  0  0  0  0  0  0  0  0
    8.4466   13.6532   24.7040 C   0  0  0  0  0  0  0  0  0  0  0  0
    8.9855   14.0132   25.7615 O   0  0  0  0  0  0  0  0  0  0  0  0
    7.2834   12.6692   24.8177 C   0  0  0  0  0  0  0  0  0  0  0  0
    8.3186   10.2911   24.5673 C   0  0  0  0  0  0  0  0  0  0  0  0
    7.6172   11.3149   25.4513 C   0  0  0  0  0  0  0  0  0  0  0  0
    6.3302   10.7100   25.9988 C   0  0  0  0  0  0  0  0  0  0  0  0
 13 14  1  0  0  0
 14 15  1  0  0  0
 14 12  1  0  0  0
 12 10  1  0  0  0
 10 11  2  0  0  0
 10  1  1  0  0  0
  1  2  1  0  0  0
  1  3  1  0  0  0
  1  4  1  0  0  0
  4  5  1  0  0  0
  5  6  1  0  0  0
  6  7  1  0  0  0
  7  8  1  0  0  0
  8  9  1  0  0  0
  9  4  1  0  0  0
M  END
> <minimizedAffinity>
-5.15657

> <minimizedRMSD>
0.39999

$$$$
C2397-P308


 16 16  0  0  0  0  0  0  0  0999 V2000
    9.7514   11.8285   24.5149 C   0  0  0  0  0  0  0  0  0  0  0  0
   10.8210   12.7164   25.1791 C   0  0  0  0  0  0  0  0  0  0  0  0
    8.4675   11.7558   25.3333 C   0  0  0  0  0  0  0  0  0  0  0  0
    7.7431   13.1034   25.4695 C   0  0  0  0  0  0  0  0  0  0  0  0
    6.5908   13.0114   26.4566 C   0  0  0  0  0  0  0  0  0  0  0  0
    5.7349   11.7933   26.1748 C   0  0  0  0  0  0  0  0  0  0  0  0
    6.5067   10.5228   25.8472 C   0  0  0  0  0  0  0  0  0  0  0  0
    7.5311   10.7422   24.8321 N   0  0  0  0  0  0  0  0  0  0  0  0
    7.0970   11.0704   23.9694 H   0  0  0  0  0  0  0  0  0  0  0  0
    9.4863   12.2927   23.0975 C   0  0  0  0  0  0  0  0  0  0  0  0
   10.2871   13.4458   22.9317 O   0  0  0  0  0  0  0  0  0  0  0  0
    9.6338   14.3956   22.1196 C   0  0  0  0  0  0  0  0  0  0  0  0
   10.7345   15.1684   21.4373 C   0  0  0  0  0  0  0  0  0  0  0  0
   11.1869   15.4853   19.0258 C   0  0  0  0  0  0  0  0  0  0  0  0
   10.2221   15.7961   20.1551 C   0  0  0  0  0  0  0  0  0  0  0  0
    9.9930   17.2743   20.4280 C   0  0  0  0  0  0  0  0  0  0  0  0
 14 15  1  0  0  0
 15 16  1  0  0  0
 15 13  1  0  0  0
 13 12  1  0  0  0
 12 11  1  0  0  0
 11 10  1  0  0  0
 10  1  1  0  0  0
  1  2  1  0  0  0
  1  3  1  0  0  0
  3  4  1  0  0  0
  4  5  1  0  0  0
  5  6  1  0  0  0
  6  7  1  0  0  0
  7  8  1  0  0  0
  8  3  1  0  0  0
  8  9  1  0  0  0
M  END
> <minimizedAffinity>
-4.89656

> <minimizedRMSD>
1.09617

$$$$
C2401-P308


 16 16  0  0  0  0  0  0  0  0999 V2000
    8.0190   15.3204   26.8673 C   0  0  0  0  0  0  0  0  0  0  0  0
    8.5382   14.5846   25.7165 N   0  0  0  0  0  0  0  0  0  0  0  0
    7.7977   13.3542   25.3805 C   0  0  0  0  0  0  0  0  0  0  0  0
    8.8040   12.2070   25.3152 C   0  0  0  0  0  0  0  0  0  0  0  0
    8.0999   10.9502   24.8475 C   0  0  0  0  0  0  0  0  0  0  0  0
    6.8268   10.6325   25.6237 C   0  0  0  0  0  0  0  0  0  0  0  0
    5.9095   11.7574   25.7802 N   0  0  0  0  0  0  0  0  0  0  0  0
    6.5976   12.9561   26.2748 C   0  0  0  0  0  0  0  0  0  0  0  0
    5.1793   11.4983   26.4436 H   0  0  0  0  0  0  0  0  0  0  0  0
    8.6547   15.4204   24.5040 C   0  0  0  0  0  0  0  0  0  0  0  0
   10.0859   15.6005   24.0019 C   0  0  0  0  0  0  0  0  0  0  0  0
   10.0495   16.0889   22.6613 O   0  0  0  0  0  0  0  0  0  0  0  0
   11.0032   15.4915   21.7692 C   0  0  0  0  0  0  0  0  0  0  0  0
   12.2486   16.3592   21.6389 C   0  0  0  0  0  0  0  0  0  0  0  0
   10.3351   15.4002   20.3947 C   0  0  0  0  0  0  0  0  0  0  0  0
   11.3867   14.1034   22.2759 C   0  0  0  0  0  0  0  0  0  0  0  0
  1  2  1  0  0  0
  2 10  1  0  0  0
 10 11  1  0  0  0
 11 12  1  0  0  0
 12 13  1  0  0  0
 13 14  1  0  0  0
 13 15  1  0  0  0
 13 16  1  0  0  0
  3  2  1  0  0  0
  3  4  1  0  0  0
  4  5  1  0  0  0
  5  6  1  0  0  0
  6  7  1  0  0  0
  7  8  1  0  0  0
  8  3  1  0  0  0
  7  9  1  0  0  0
M  END
> <minimizedAffinity>
-4.61944

> <minimizedRMSD>
1.03105

$$$$
C2408-P308


 15 15  0  0  0  0  0  0  0  0999 V2000
    9.1278   14.1123   23.3537 C   0  0  0  0  0  0  0  0  0  0  0  0
    7.8358   13.9467   22.5365 C   0  0  0  0  0  0  0  0  0  0  0  0
   10.2141   13.1391   22.9076 C   0  0  0  0  0  0  0  0  0  0  0  0
    9.6163   15.5229   23.2024 N   0  0  0  0  0  0  0  0  0  0  0  0
   11.0305   15.7740   23.5090 C   0  0  0  0  0  0  0  0  0  0  0  0
   11.9924   15.6618   22.3236 C   0  0  0  0  0  0  0  0  0  0  0  0
   11.5438   16.4804   21.1255 C   0  0  0  0  0  0  0  0  0  0  0  0
   10.0983   16.1697   20.7746 C   0  0  0  0  0  0  0  0  0  0  0  0
    9.2021   16.2883   22.0079 C   0  0  0  0  0  0  0  0  0  0  0  0
    8.8016   13.7941   24.8749 C   0  0  0  0  0  0  0  0  0  0  0  0
    8.9866   14.6175   25.7882 O   0  0  0  0  0  0  0  0  0  0  0  0
    8.2064   12.4311   25.3209 C   0  0  0  0  0  0  0  0  0  0  0  0
    6.8580   12.6903   26.0024 C   0  0  0  0  0  0  0  0  0  0  0  0
    9.2486   10.2289   24.4862 C   0  0  0  0  0  0  0  0  0  0  0  0
    8.1163   11.2392   24.3715 C   0  0  0  0  0  0  0  0  0  0  0  0
 14 15  1  0  0  0
 15 12  1  0  0  0
 12 13  1  0  0  0
 12 10  1  0  0  0
 10 11  2  0  0  0
 10  1  1  0  0  0
  1  2  1  0  0  0
  1  3  1  0  0  0
  1  4  1  0  0  0
  4  5  1  0  0  0
  5  6  1  0  0  0
  6  7  1  0  0  0
  7  8  1  0  0  0
  8  9  1  0  0  0
  9  4  1  0  0  0
M  END
> <minimizedAffinity>
-4.78273

> <minimizedRMSD>
0.52358

$$$$
C2410-P308


 15 15  0  0  0  0  0  0  0  0999 V2000
    8.4113   14.1338   23.3028 C   0  0  0  0  0  0  0  0  0  0  0  0
    8.8026   15.0724   24.2194 F   0  0  0  0  0  0  0  0  0  0  0  0
    8.6243   12.7675   23.9839 C   0  0  0  0  0  0  0  0  0  0  0  0
    7.2781   12.3336   24.5891 C   0  0  0  0  0  0  0  0  0  0  0  0
    7.3739   11.0467   25.3888 C   0  0  0  0  0  0  0  0  0  0  0  0
    8.1801    9.9942   24.6519 C   0  0  0  0  0  0  0  0  0  0  0  0
    9.4488   10.5187   23.9999 C   0  0  0  0  0  0  0  0  0  0  0  0
    9.1813   11.6828   23.1587 N   0  0  0  0  0  0  0  0  0  0  0  0
    8.5116   11.4304   22.4319 H   0  0  0  0  0  0  0  0  0  0  0  0
    9.2057   14.3045   22.0194 C   0  0  0  0  0  0  0  0  0  0  0  0
    9.9785   15.6145   21.9242 C   0  0  0  0  0  0  0  0  0  0  0  0
   12.3490   16.2614   21.4798 C   0  0  0  0  0  0  0  0  0  0  0  0
   11.4173   15.5205   22.4086 C   0  0  0  0  0  0  0  0  0  0  0  0
   11.8143   14.2201   22.4631 F   0  0  0  0  0  0  0  0  0  0  0  0
   11.5426   16.0212   23.6598 F   0  0  0  0  0  0  0  0  0  0  0  0
 12 13  1  0  0  0
 13 14  1  0  0  0
 13 15  1  0  0  0
 13 11  1  0  0  0
 11 10  1  0  0  0
 10  1  1  0  0  0
  1  2  1  0  0  0
  1  3  1  0  0  0
  3  4  1  0  0  0
  4  5  1  0  0  0
  5  6  1  0  0  0
  6  7  1  0  0  0
  7  8  1  0  0  0
  8  3  1  0  0  0
  8  9  1  0  0  0
M  END
> <minimizedAffinity>
-4.98439

> <minimizedRMSD>
1.92080

$$$$
C2413-P308


 16 16  0  0  0  0  0  0  0  0999 V2000
    9.4496   13.3398   23.9990 C   0  0  0  0  0  0  0  0  0  0  0  0
    9.9948   14.2670   25.0968 C   0  0  0  0  0  0  0  0  0  0  0  0
   10.4802   12.4592   23.7297 F   0  0  0  0  0  0  0  0  0  0  0  0
    8.2568   12.4471   24.4968 C   0  0  0  0  0  0  0  0  0  0  0  0
    7.3810   13.0829   25.5874 C   0  0  0  0  0  0  0  0  0  0  0  0
    6.1853   12.2086   25.9634 C   0  0  0  0  0  0  0  0  0  0  0  0
    6.4969   10.7156   26.0183 C   0  0  0  0  0  0  0  0  0  0  0  0
    7.5092   10.2503   24.9811 C   0  0  0  0  0  0  0  0  0  0  0  0
    8.6825   11.1160   24.9698 N   0  0  0  0  0  0  0  0  0  0  0  0
    9.3893   10.7341   24.3413 H   0  0  0  0  0  0  0  0  0  0  0  0
    7.9321   14.1873   22.0970 C   0  0  0  0  0  0  0  0  0  0  0  0
    9.1366   14.0881   22.7032 C   0  0  0  0  0  0  0  0  0  0  0  0
   10.3301   14.7566   22.0850 C   0  0  0  0  0  0  0  0  0  0  0  0
   11.4911   14.0868   22.2731 F   0  0  0  0  0  0  0  0  0  0  0  0
   10.1859   14.9367   20.7479 F   0  0  0  0  0  0  0  0  0  0  0  0
   10.5128   15.9871   22.6295 F   0  0  0  0  0  0  0  0  0  0  0  0
 11 12  2  0  0  0
 12 13  1  0  0  0
 13 14  1  0  0  0
 13 15  1  0  0  0
 13 16  1  0  0  0
 12  1  1  0  0  0
  1  2  1  0  0  0
  1  3  1  0  0  0
  1  4  1  0  0  0
  4  5  1  0  0  0
  5  6  1  0  0  0
  6  7  1  0  0  0
  7  8  1  0  0  0
  8  9  1  0  0  0
  9  4  1  0  0  0
  9 10  1  0  0  0
M  END
> <minimizedAffinity>
-4.65180

> <minimizedRMSD>
1.01166

$$$$
C4781-P264


 11 12  0  0  0  0  0  0  0  0999 V2000
    7.8798   10.4669   24.5400 C   0  0  0  0  0  0  0  0  0  0  0  0
    9.0595   10.8574   23.8587 C   0  0  0  0  0  0  0  0  0  0  0  0
    9.4714    9.7334   23.1926 C   0  0  0  0  0  0  0  0  0  0  0  0
    8.5949    8.7570   23.5297 N   0  0  0  0  0  0  0  0  0  0  0  0
    7.6096    9.1726   24.3393 N   0  0  0  0  0  0  0  0  0  0  0  0
    8.6737    7.8291   23.2102 H   0  0  0  0  0  0  0  0  0  0  0  0
    7.0497   12.6488   25.3883 C   0  0  0  0  0  0  0  0  0  0  0  0
    7.0680   11.3128   25.3314 C   0  0  0  0  0  0  0  0  0  0  0  0
    6.0649   10.6913   26.2468 C   0  0  0  0  0  0  0  0  0  0  0  0
    5.2289   11.8878   26.6921 C   0  0  0  0  0  0  0  0  0  0  0  0
    6.0466   13.1365   26.3724 C   0  0  0  0  0  0  0  0  0  0  0  0
  7  8  2  0  0  0
  8  1  1  0  0  0
  1  2  1  0  0  0
  2  3  2  0  0  0
  3  4  1  0  0  0
  4  5  1  0  0  0
  8  9  1  0  0  0
  9 10  1  0  0  0
 10 11  1  0  0  0
 11  7  1  0  0  0
  5  1  2  0  0  0
  4  6  1  0  0  0
M  END
> <minimizedAffinity>
-4.65639

> <minimizedRMSD>
0.33347

$$$$
C6791-P185


 12 13  0  0  0  0  0  0  0  0999 V2000
    9.0984   10.8971   23.8557 C   0  0  0  0  0  0  0  0  0  0  0  0
    9.5615   12.0926   23.3473 C   0  0  0  0  0  0  0  0  0  0  0  0
    8.9428   13.2498   23.7712 C   0  0  0  0  0  0  0  0  0  0  0  0
    7.9101   13.1985   24.6265 N   0  0  0  0  0  0  0  0  0  0  0  0
    7.5089   11.9891   25.0394 C   0  0  0  0  0  0  0  0  0  0  0  0
    8.0707   10.8192   24.7168 N   0  0  0  0  0  0  0  0  0  0  0  0
    9.4007   14.5044   23.4232 N   0  0  0  0  0  0  0  0  0  0  0  0
    8.9416   15.1452   22.1809 C   0  0  0  0  0  0  0  0  0  0  0  0
    9.9431   15.0663   21.0228 C   0  0  0  0  0  0  0  0  0  0  0  0
   11.6156   15.6419   21.4458 S   0  0  0  0  0  0  0  0  0  0  0  0
   11.8406   14.6533   22.9410 C   0  0  0  0  0  0  0  0  0  0  0  0
   10.7120   14.8857   23.9390 C   0  0  0  0  0  0  0  0  0  0  0  0
  1  2  2  0  0  0
  2  3  1  0  0  0
  3  7  1  0  0  0
  7  8  1  0  0  0
  8  9  1  0  0  0
  9 10  1  0  0  0
 10 11  1  0  0  0
 11 12  1  0  0  0
  3  4  2  0  0  0
  4  5  1  0  0  0
  5  6  2  0  0  0
  6  1  1  0  0  0
 12  7  1  0  0  0
M  END
> <minimizedAffinity>
-4.98052

> <minimizedRMSD>
0.49576

$$$$
C1814-P138


 17 19  0  0  0  0  0  0  0  0999 V2000
    9.3451   13.0051   22.9660 C   0  0  0  0  0  0  0  0  0  0  0  0
    8.9775   11.8084   23.4786 N   0  0  0  0  0  0  0  0  0  0  0  0
    8.1558   11.8129   24.5472 C   0  0  0  0  0  0  0  0  0  0  0  0
    7.7090   12.9834   25.1461 C   0  0  0  0  0  0  0  0  0  0  0  0
    8.1317   14.1993   24.6060 C   0  0  0  0  0  0  0  0  0  0  0  0
    8.9520   14.2315   23.4802 C   0  0  0  0  0  0  0  0  0  0  0  0
    6.8488   12.9922   26.3677 C   0  0  0  0  0  0  0  0  0  0  0  0
    6.0742   11.7135   26.6073 C   0  0  0  0  0  0  0  0  0  0  0  0
    6.7960   10.4448   26.2049 C   0  0  0  0  0  0  0  0  0  0  0  0
    7.7379   10.4632   25.0166 C   0  0  0  0  0  0  0  0  0  0  0  0
    9.4220   15.5612   22.9299 C   0  0  0  0  0  0  0  0  0  0  0  0
   10.7679   15.9537   23.5522 C   0  0  0  0  0  0  0  0  0  0  0  0
   11.9496   15.2886   22.8540 C   0  0  0  0  0  0  0  0  0  0  0  0
   11.8858   15.4747   21.3428 C   0  0  0  0  0  0  0  0  0  0  0  0
   10.6253   14.9768   20.8014 N   0  0  0  0  0  0  0  0  0  0  0  0
    9.4700   15.6511   21.3910 C   0  0  0  0  0  0  0  0  0  0  0  0
   10.5565   13.9774   20.9938 H   0  0  0  0  0  0  0  0  0  0  0  0
  1  2  2  0  0  0
  2  3  1  0  0  0
  3  4  2  0  0  0
  4  5  1  0  0  0
  5  6  2  0  0  0
 11  6  1  0  0  0
 11 12  1  0  0  0
 12 13  1  0  0  0
 13 14  1  0  0  0
 14 15  1  0  0  0
 15 16  1  0  0  0
  4  7  1  0  0  0
  7  8  1  0  0  0
  8  9  1  0  0  0
  9 10  1  0  0  0
  6  1  1  0  0  0
 16 11  1  0  0  0
 10  3  1  0  0  0
 15 17  1  0  0  0
M  END
> <minimizedAffinity>
-6.36132

> <minimizedRMSD>
0.50380

$$$$
C9436-P106


 29 31  0  0  0  0  0  0  0  0999 V2000
   15.2388   12.2858   25.5264 C   0  0  0  0  0  0  0  0  0  0  0  0
   13.8547   12.1289   25.0735 N   0  0  0  0  0  0  0  0  0  0  0  0
   13.0051   10.8681   24.8864 C   0  0  0  0  0  0  0  0  0  0  0  0
   13.2903    9.7447   24.9875 O   0  0  0  0  0  0  0  0  0  0  0  0
   13.3954   12.9714   24.8534 H   0  0  0  0  0  0  0  0  0  0  0  0
   11.5538   11.1382   24.6299 C   0  0  0  0  0  0  0  0  0  0  0  0
   10.7255   10.0784   24.1977 C   0  0  0  0  0  0  0  0  0  0  0  0
    9.3427   10.2144   24.1469 C   0  0  0  0  0  0  0  0  0  0  0  0
    8.7262   11.4073   24.5057 C   0  0  0  0  0  0  0  0  0  0  0  0
    9.5578   12.4319   24.9367 C   0  0  0  0  0  0  0  0  0  0  0  0
    9.2791   13.7122   25.2932 N   0  0  0  0  0  0  0  0  0  0  0  0
   10.2765   14.3240   25.9606 N   0  0  0  0  0  0  0  0  0  0  0  0
   11.2920   13.4858   25.7836 C   0  0  0  0  0  0  0  0  0  0  0  0
   10.9332   12.3190   25.0686 C   0  0  0  0  0  0  0  0  0  0  0  0
    8.4248   14.1537   25.0827 H   0  0  0  0  0  0  0  0  0  0  0  0
   15.1293   12.8583   26.9560 C   0  0  0  0  0  0  0  0  0  0  0  0
   16.2009   13.6983   27.3380 O   0  0  0  0  0  0  0  0  0  0  0  0
   17.0267   13.1893   27.3374 H   0  0  0  0  0  0  0  0  0  0  0  0
   16.1024   11.0102   25.4685 C   0  0  0  0  0  0  0  0  0  0  0  0
   18.7833   11.7037   27.1729 O   0  0  0  0  0  0  0  0  0  0  0  0
   17.9139   10.9935   27.4955 C   0  0  0  0  0  0  0  0  0  0  0  0
   16.6291   10.5713   26.7387 N   0  0  0  0  0  0  0  0  0  0  0  0
   16.0833    9.8936   27.1993 H   0  0  0  0  0  0  0  0  0  0  0  0
   17.8295   10.3673   28.9100 C   0  0  0  0  0  0  0  0  0  0  0  0
   17.4762    8.9269   28.8830 N   0  0  0  0  0  0  0  0  0  0  0  0
   17.2038    8.4248   30.2342 C   0  0  0  0  0  0  0  0  0  0  0  0
   17.2626    6.9161   30.0574 C   0  0  0  0  0  0  0  0  0  0  0  0
   18.1674    6.6948   28.8509 C   0  0  0  0  0  0  0  0  0  0  0  0
   18.5824    8.0891   28.4036 C   0  0  0  0  0  0  0  0  0  0  0  0
 20 21  2  0  0  0
 21 24  1  0  0  0
 24 25  1  0  0  0
 25 26  1  0  0  0
 26 27  1  0  0  0
 27 28  1  0  0  0
 28 29  1  0  0  0
 21 22  1  0  0  0
 22 19  1  0  0  0
  1 19  1  0  0  0
  1 16  1  0  0  0
 16 17  1  0  0  0
  1  2  1  0  0  0
  2  3  1  0  0  0
  3  4  2  0  0  0
  3  6  1  0  0  0
  6  7  2  0  0  0
  7  8  1  0  0  0
  8  9  2  0  0  0
  9 10  1  0  0  0
 10 11  1  0  0  0
 11 12  1  0  0  0
 12 13  2  0  0  0
 13 14  1  0  0  0
 29 25  1  0  0  0
 14  6  1  0  0  0
 14 10  2  0  0  0
 22 23  1  0  0  0
 17 18  1  0  0  0
  2  5  1  0  0  0
 11 15  1  0  0  0
M  END
> <minimizedAffinity>
-5.64654

> <minimizedRMSD>
0.64304

$$$$
C9559-P183


  9  9  0  0  0  0  0  0  0  0999 V2000
   10.3322   14.0910   22.3363 N   0  0  0  0  0  0  0  0  0  0  0  0
    9.0344   14.1861   21.9336 C   0  0  0  0  0  0  0  0  0  0  0  0
    9.0172   15.1300   20.9366 C   0  0  0  0  0  0  0  0  0  0  0  0
   10.3400   15.6024   20.8645 C   0  0  0  0  0  0  0  0  0  0  0  0
   11.1500   14.9757   21.7250 N   0  0  0  0  0  0  0  0  0  0  0  0
   10.8338   13.1568   23.3276 C   0  0  0  0  0  0  0  0  0  0  0  0
   11.9421   13.6959   24.2108 C   0  0  0  0  0  0  0  0  0  0  0  0
   10.1588   14.3517   25.6922 O   0  0  0  0  0  0  0  0  0  0  0  0
   11.3406   14.4481   25.3649 C   0  0  0  0  0  0  0  0  0  0  0  0
  8  9  2  0  0  0
  9  7  1  0  0  0
  7  6  1  0  0  0
  6  1  1  0  0  0
  1  2  1  0  0  0
  2  3  2  0  0  0
  3  4  1  0  0  0
  4  5  2  0  0  0
  5  1  1  0  0  0
M  END
> <minimizedAffinity>
-3.84668

> <minimizedRMSD>
1.51633

$$$$
C17783-P174


 17 17  0  0  0  0  0  0  0  0999 V2000
   10.5477   13.5447   23.4160 C   0  0  0  0  0  0  0  0  0  0  0  0
   10.9995   14.0083   24.3875 O   0  0  0  0  0  0  0  0  0  0  0  0
   10.5999   14.0439   21.9415 N   0  0  0  0  0  0  0  0  0  0  0  0
   10.2020   13.4290   21.2836 H   0  0  0  0  0  0  0  0  0  0  0  0
    9.6800   12.2955   23.4182 C   0  0  0  0  0  0  0  0  0  0  0  0
    7.4248   13.5447   23.7910 C   0  0  0  0  0  0  0  0  0  0  0  0
    8.3566   12.4116   24.1594 C   0  0  0  0  0  0  0  0  0  0  0  0
    7.6817   11.2384   23.9541 F   0  0  0  0  0  0  0  0  0  0  0  0
    8.5632   12.4448   25.4951 F   0  0  0  0  0  0  0  0  0  0  0  0
   11.1397   15.2674   21.3808 C   0  0  0  0  0  0  0  0  0  0  0  0
   12.6433   15.3965   21.6006 C   0  0  0  0  0  0  0  0  0  0  0  0
   13.2866   16.3836   20.6907 C   0  0  0  0  0  0  0  0  0  0  0  0
   13.6750   17.6904   20.9005 C   0  0  0  0  0  0  0  0  0  0  0  0
   14.2901   18.2160   19.7956 N   0  0  0  0  0  0  0  0  0  0  0  0
   14.3201   17.2300   18.9299 C   0  0  0  0  0  0  0  0  0  0  0  0
   13.6929   16.1096   19.4057 N   0  0  0  0  0  0  0  0  0  0  0  0
   13.5578   15.2649   18.9184 H   0  0  0  0  0  0  0  0  0  0  0  0
  6  7  1  0  0  0
  7  8  1  0  0  0
  7  9  1  0  0  0
  7  5  1  0  0  0
  5  1  1  0  0  0
  1  2  2  0  0  0
  1  3  1  0  0  0
  3 10  1  0  0  0
 10 11  1  0  0  0
 11 12  1  0  0  0
 12 13  2  0  0  0
 13 14  1  0  0  0
 14 15  2  0  0  0
 15 16  1  0  0  0
 16 12  1  0  0  0
  3  4  1  0  0  0
 16 17  1  0  0  0
M  END
> <minimizedAffinity>
-5.15403

> <minimizedRMSD>
0.91355

$$$$
C2279-P174


 20 20  0  0  0  0  0  0  0  0999 V2000
   10.7118   15.2642   21.7361 C   0  0  0  0  0  0  0  0  0  0  0  0
   10.2510   16.3228   21.5649 O   0  0  0  0  0  0  0  0  0  0  0  0
   10.0771   13.9742   22.3195 N   0  0  0  0  0  0  0  0  0  0  0  0
   10.6570   13.1792   22.2894 H   0  0  0  0  0  0  0  0  0  0  0  0
    8.7697   13.7499   22.9013 C   0  0  0  0  0  0  0  0  0  0  0  0
    7.6640   14.1961   21.9342 C   0  0  0  0  0  0  0  0  0  0  0  0
    8.7246   14.6191   24.1585 C   0  0  0  0  0  0  0  0  0  0  0  0
    8.6035   12.3116   23.3358 C   0  0  0  0  0  0  0  0  0  0  0  0
    9.4553   11.3277   23.1228 N   0  0  0  0  0  0  0  0  0  0  0  0
    9.0244   10.2682   23.8767 C   0  0  0  0  0  0  0  0  0  0  0  0
    7.8716   10.5939   24.5456 C   0  0  0  0  0  0  0  0  0  0  0  0
    7.5861   11.8730   24.1583 N   0  0  0  0  0  0  0  0  0  0  0  0
    6.7917   12.3919   24.4208 H   0  0  0  0  0  0  0  0  0  0  0  0
   12.1819   14.9550   21.4894 C   0  0  0  0  0  0  0  0  0  0  0  0
   12.8147   15.8622   20.4371 C   0  0  0  0  0  0  0  0  0  0  0  0
   13.6250   17.0480   20.9768 C   0  0  0  0  0  0  0  0  0  0  0  0
   14.1991   19.4650   20.4012 C   0  0  0  0  0  0  0  0  0  0  0  0
   13.2489   18.3062   20.2058 C   0  0  0  0  0  0  0  0  0  0  0  0
   13.1940   18.0218   18.8805 F   0  0  0  0  0  0  0  0  0  0  0  0
   12.0046   18.7244   20.5688 F   0  0  0  0  0  0  0  0  0  0  0  0
 17 18  1  0  0  0
 18 19  1  0  0  0
 18 20  1  0  0  0
 18 16  1  0  0  0
 16 15  1  0  0  0
 15 14  1  0  0  0
 14  1  1  0  0  0
  1  2  2  0  0  0
  1  3  1  0  0  0
  3  5  1  0  0  0
  5  6  1  0  0  0
  5  7  1  0  0  0
  5  8  1  0  0  0
  8  9  2  0  0  0
  9 10  1  0  0  0
 10 11  2  0  0  0
 11 12  1  0  0  0
 12  8  1  0  0  0
  3  4  1  0  0  0
 12 13  1  0  0  0
M  END
> <minimizedAffinity>
-6.43553

> <minimizedRMSD>
1.11848

$$$$
C901-P106


 24 27  0  0  0  0  0  0  0  0999 V2000
   27.5691   16.4371   23.8416 O   0  0  0  0  0  0  0  0  0  0  0  0
   26.5170   16.9272   23.6861 C   0  0  0  0  0  0  0  0  0  0  0  0
   25.0930   16.3671   23.9653 N   0  0  0  0  0  0  0  0  0  0  0  0
   24.3614   17.0099   23.8204 H   0  0  0  0  0  0  0  0  0  0  0  0
   24.6955   15.1377   24.3758 C   0  0  0  0  0  0  0  0  0  0  0  0
   25.5213   14.0591   24.7449 C   0  0  0  0  0  0  0  0  0  0  0  0
   24.6560   13.0405   25.0632 C   0  0  0  0  0  0  0  0  0  0  0  0
   23.4026   13.5650   24.9189 N   0  0  0  0  0  0  0  0  0  0  0  0
   23.4017   14.8413   24.4936 N   0  0  0  0  0  0  0  0  0  0  0  0
   22.1589   12.8027   25.1322 C   0  0  0  0  0  0  0  0  0  0  0  0
   21.8907   12.4561   26.6220 C   0  0  0  0  0  0  0  0  0  0  0  0
   21.3690   11.0920   26.1245 C   0  0  0  0  0  0  0  0  0  0  0  0
   22.3000   11.2740   24.9071 C   0  0  0  0  0  0  0  0  0  0  0  0
   26.3340   18.3695   23.2272 C   0  0  0  0  0  0  0  0  0  0  0  0
   25.4946   18.4796   21.9535 C   0  0  0  0  0  0  0  0  0  0  0  0
   26.2411   19.2541   20.8935 C   0  0  0  0  0  0  0  0  0  0  0  0
   25.5973   20.2618   20.1407 C   0  0  0  0  0  0  0  0  0  0  0  0
   26.3097   21.0239   19.2076 C   0  0  0  0  0  0  0  0  0  0  0  0
   27.6538   20.7599   19.0546 C   0  0  0  0  0  0  0  0  0  0  0  0
   28.2864   19.7832   19.7856 C   0  0  0  0  0  0  0  0  0  0  0  0
   27.6120   19.0137   20.7075 C   0  0  0  0  0  0  0  0  0  0  0  0
   29.6115   19.6946   19.4996 O   0  0  0  0  0  0  0  0  0  0  0  0
   29.7294   20.6807   18.4575 C   0  0  0  0  0  0  0  0  0  0  0  0
   28.5023   21.4020   18.2067 O   0  0  0  0  0  0  0  0  0  0  0  0
  1  2  2  0  0  0
  2 14  1  0  0  0
 14 15  1  0  0  0
 15 16  1  0  0  0
 16 17  2  0  0  0
 17 18  1  0  0  0
 18 19  2  0  0  0
 19 20  1  0  0  0
 20 21  2  0  0  0
 20 22  1  0  0  0
 22 23  1  0  0  0
 23 24  1  0  0  0
  2  3  1  0  0  0
  3  5  1  0  0  0
  5  6  1  0  0  0
  6  7  2  0  0  0
  7  8  1  0  0  0
  8 10  1  0  0  0
 10 11  1  0  0  0
 11 12  1  0  0  0
 12 13  1  0  0  0
  8  9  1  0  0  0
 21 16  1  0  0  0
  9  5  2  0  0  0
 24 19  1  0  0  0
 13 10  1  0  0  0
  3  4  1  0  0  0
M  END
> <minimizedAffinity>
-4.68848

> <minimizedRMSD>
1.77225

$$$$
C7479-P337


 24 25  0  0  0  0  0  0  0  0999 V2000
    7.0261   14.8734   22.6870 S   0  0  0  0  0  0  0  0  0  0  0  0
    6.7866   13.5108   22.2275 O   0  0  0  0  0  0  0  0  0  0  0  0
    7.9608   15.6230   21.8770 O   0  0  0  0  0  0  0  0  0  0  0  0
    7.0606   15.1047   24.2009 N   0  0  0  0  0  0  0  0  0  0  0  0
    8.4461   14.8132   24.7962 S   0  0  0  0  0  0  0  0  0  0  0  0
    8.3273   15.2326   26.5183 C   0  0  0  0  0  0  0  0  0  0  0  0
    9.6926   15.4153   24.3701 O   0  0  0  0  0  0  0  0  0  0  0  0
    8.7265   13.0417   24.8732 C   0  0  0  0  0  0  0  0  0  0  0  0
    9.5194   12.5552   23.6719 C   0  0  0  0  0  0  0  0  0  0  0  0
    9.7160   11.0573   23.6431 C   0  0  0  0  0  0  0  0  0  0  0  0
    8.6357   10.1774   24.2228 C   0  0  0  0  0  0  0  0  0  0  0  0
    7.7199   10.7835   25.2651 C   0  0  0  0  0  0  0  0  0  0  0  0
    7.4372   12.2553   25.0820 C   0  0  0  0  0  0  0  0  0  0  0  0
    5.5644   15.6247   22.4064 N   0  0  0  0  0  0  0  0  0  0  0  0
    5.5020   16.4149   23.0483 H   0  0  0  0  0  0  0  0  0  0  0  0
    4.3464   14.8400   22.5665 C   0  0  0  0  0  0  0  0  0  0  0  0
    3.3084   14.3747   20.2150 C   0  0  0  0  0  0  0  0  0  0  0  0
    2.2938   14.9484   19.5036 O   0  0  0  0  0  0  0  0  0  0  0  0
    1.9332   16.0226   20.2406 C   0  0  0  0  0  0  0  0  0  0  0  0
    2.5953   16.1816   21.3676 N   0  0  0  0  0  0  0  0  0  0  0  0
    3.4609   15.0973   21.3881 C   0  0  0  0  0  0  0  0  0  0  0  0
    3.8543   13.1825   18.0837 C   0  0  0  0  0  0  0  0  0  0  0  0
    3.9288   13.1676   19.6121 C   0  0  0  0  0  0  0  0  0  0  0  0
    3.2824   11.8973   20.1656 C   0  0  0  0  0  0  0  0  0  0  0  0
 22 23  1  0  0  0
 23 24  1  0  0  0
 23 17  1  0  0  0
 17 18  1  0  0  0
 18 19  1  0  0  0
 19 20  2  0  0  0
 20 21  1  0  0  0
 21 16  1  0  0  0
 16 14  1  0  0  0
 14  1  1  0  0  0
  1  2  2  0  0  0
  1  3  2  0  0  0
  1  4  1  0  0  0
  4  5  2  0  0  0
  5  6  1  0  0  0
  5  7  2  0  0  0
  5  8  1  0  0  0
  8  9  1  0  0  0
  9 10  1  0  0  0
 10 11  1  0  0  0
 11 12  1  0  0  0
 12 13  1  0  0  0
 21 17  2  0  0  0
 13  8  1  0  0  0
 14 15  1  0  0  0
M  END
> <minimizedAffinity>
-5.69471

> <minimizedRMSD>
0.50916

$$$$
C1386-P339


 18 18  0  0  0  0  0  0  0  0999 V2000
    8.5435   12.8266   23.9318 C   0  0  0  0  0  0  0  0  0  0  0  0
    9.5875   14.3878   22.3106 N   0  0  0  0  0  0  0  0  0  0  0  0
    8.2627   13.6829   22.6973 C   0  0  0  0  0  0  0  0  0  0  0  0
    7.2102   13.7197   22.1921 O   0  0  0  0  0  0  0  0  0  0  0  0
   10.3263   14.2547   22.9475 H   0  0  0  0  0  0  0  0  0  0  0  0
    9.9140   15.2072   21.1691 C   0  0  0  0  0  0  0  0  0  0  0  0
   11.6366   15.2671   19.3446 C   0  0  0  0  0  0  0  0  0  0  0  0
   11.4145   15.1763   20.8536 C   0  0  0  0  0  0  0  0  0  0  0  0
   12.1622   16.3073   21.5623 C   0  0  0  0  0  0  0  0  0  0  0  0
    8.0398   13.4992   25.2231 C   0  0  0  0  0  0  0  0  0  0  0  0
    7.4606   12.4306   26.1617 C   0  0  0  0  0  0  0  0  0  0  0  0
    9.0884   14.3814   25.9670 C   0  0  0  0  0  0  0  0  0  0  0  0
   10.5548   13.9573   25.7547 C   0  0  0  0  0  0  0  0  0  0  0  0
   11.5025   14.8789   26.5216 C   0  0  0  0  0  0  0  0  0  0  0  0
   11.2323   16.3465   26.2083 C   0  0  0  0  0  0  0  0  0  0  0  0
    9.8397   16.6916   26.4564 N   0  0  0  0  0  0  0  0  0  0  0  0
    8.9216   15.8816   25.6534 C   0  0  0  0  0  0  0  0  0  0  0  0
    9.6983   17.6752   26.2262 H   0  0  0  0  0  0  0  0  0  0  0  0
  7  8  1  0  0  0
  8  9  1  0  0  0
  8  6  1  0  0  0
  6  2  1  0  0  0
  2  3  1  0  0  0
  3  4  2  0  0  0
  3  1  1  0  0  0
  1 10  1  0  0  0
 10 11  1  0  0  0
 10 12  1  0  0  0
 12 13  1  0  0  0
 13 14  1  0  0  0
 14 15  1  0  0  0
 15 16  1  0  0  0
 16 17  1  0  0  0
 17 12  1  0  0  0
  2  5  1  0  0  0
 16 18  1  0  0  0
M  END
> <minimizedAffinity>
-4.81634

> <minimizedRMSD>
1.84132

$$$$
C36972-P445


 13 13  0  0  0  0  0  0  0  0999 V2000
    8.9443   13.4412   23.9481 C   0  0  0  0  0  0  0  0  0  0  0  0
    9.4215   13.8363   25.0145 O   0  0  0  0  0  0  0  0  0  0  0  0
    7.8015   12.4405   23.9616 C   0  0  0  0  0  0  0  0  0  0  0  0
    8.2967   11.1175   24.5634 C   0  0  0  0  0  0  0  0  0  0  0  0
    9.2275    8.9695   23.3638 C   0  0  0  0  0  0  0  0  0  0  0  0
    9.3371   10.4580   23.6236 C   0  0  0  0  0  0  0  0  0  0  0  0
    7.1959   10.1869   25.0568 C   0  0  0  0  0  0  0  0  0  0  0  0
    6.3571   10.7501   26.1891 C   0  0  0  0  0  0  0  0  0  0  0  0
    9.4691   13.8066   22.5613 C   0  0  0  0  0  0  0  0  0  0  0  0
   10.4703   14.8719   22.6113 N   0  0  0  0  0  0  0  0  0  0  0  0
   10.8582   15.2634   21.2236 C   0  0  0  0  0  0  0  0  0  0  0  0
   12.3070   15.3537   21.7302 C   0  0  0  0  0  0  0  0  0  0  0  0
   11.8451   14.3437   22.7959 C   0  0  0  0  0  0  0  0  0  0  0  0
  5  6  1  0  0  0
  6  4  1  0  0  0
  4  7  1  0  0  0
  7  8  1  0  0  0
  4  3  1  0  0  0
  3  1  1  0  0  0
  1  2  2  0  0  0
  1  9  1  0  0  0
  9 10  1  0  0  0
 10 11  1  0  0  0
 11 12  1  0  0  0
 12 13  1  0  0  0
 13 10  1  0  0  0
M  END
> <minimizedAffinity>
-5.01749

> <minimizedRMSD>
0.55321

$$$$
C1390-P242


 19 19  0  0  0  0  0  0  0  0999 V2000
    6.6767   12.0997   26.5775 N   0  0  0  0  0  0  0  0  0  0  0  0
    5.1869   12.3433   26.9349 C   0  0  0  0  0  0  0  0  0  0  0  0
    4.4036   13.0623   26.4571 O   0  0  0  0  0  0  0  0  0  0  0  0
    7.1523   11.4891   27.1860 H   0  0  0  0  0  0  0  0  0  0  0  0
    4.8767   11.4451   28.1429 C   0  0  0  0  0  0  0  0  0  0  0  0
    5.8641   11.7091   29.2855 C   0  0  0  0  0  0  0  0  0  0  0  0
    5.5050   10.8923   30.5245 C   0  0  0  0  0  0  0  0  0  0  0  0
    4.1339   11.1444   30.9515 N   0  0  0  0  0  0  0  0  0  0  0  0
    3.1637   10.8540   29.9004 C   0  0  0  0  0  0  0  0  0  0  0  0
    3.4442   11.6725   28.6443 C   0  0  0  0  0  0  0  0  0  0  0  0
    4.0477   12.1260   31.2152 H   0  0  0  0  0  0  0  0  0  0  0  0
    7.4943   12.6334   25.4767 C   0  0  0  0  0  0  0  0  0  0  0  0
    7.9692   14.0913   25.6680 C   0  0  0  0  0  0  0  0  0  0  0  0
    7.1288   14.8153   26.4326 F   0  0  0  0  0  0  0  0  0  0  0  0
    8.0660   14.7247   24.4757 F   0  0  0  0  0  0  0  0  0  0  0  0
    9.1836   14.1583   26.2576 F   0  0  0  0  0  0  0  0  0  0  0  0
    8.6023   11.6129   25.1353 C   0  0  0  0  0  0  0  0  0  0  0  0
    9.8380   12.3553   23.0516 C   0  0  0  0  0  0  0  0  0  0  0  0
    9.9150   12.0820   24.5264 C   0  0  0  0  0  0  0  0  0  0  0  0
 18 19  1  0  0  0
 19 17  1  0  0  0
 12 17  1  0  0  0
 12  1  1  0  0  0
  1  2  1  0  0  0
  2  3  2  0  0  0
  2  5  1  0  0  0
  5  6  1  0  0  0
  6  7  1  0  0  0
  7  8  1  0  0  0
  8  9  1  0  0  0
  9 10  1  0  0  0
 12 13  1  0  0  0
 13 14  1  0  0  0
 13 15  1  0  0  0
 13 16  1  0  0  0
 10  5  1  0  0  0
  1  4  1  0  0  0
  8 11  1  0  0  0
M  END
> <minimizedAffinity>
-3.74013

> <minimizedRMSD>
1.09958

$$$$
C2382-P198


 15 15  0  0  0  0  0  0  0  0999 V2000
    7.9326   15.0723   23.0522 C   0  0  0  0  0  0  0  0  0  0  0  0
    7.0271   14.3826   22.0262 C   0  0  0  0  0  0  0  0  0  0  0  0
    7.3327   16.4733   23.3040 C   0  0  0  0  0  0  0  0  0  0  0  0
    9.3177   15.0522   22.4615 N   0  0  0  0  0  0  0  0  0  0  0  0
   10.4311   15.1668   23.4152 C   0  0  0  0  0  0  0  0  0  0  0  0
   11.7959   15.0150   22.7357 C   0  0  0  0  0  0  0  0  0  0  0  0
   11.9811   16.0270   21.6192 C   0  0  0  0  0  0  0  0  0  0  0  0
   10.8295   15.9035   20.6407 C   0  0  0  0  0  0  0  0  0  0  0  0
    9.4914   16.0344   21.3645 C   0  0  0  0  0  0  0  0  0  0  0  0
    7.8808   14.4043   24.4661 C   0  0  0  0  0  0  0  0  0  0  0  0
    8.4703   14.9163   25.4333 O   0  0  0  0  0  0  0  0  0  0  0  0
    7.0013   13.1966   24.7556 C   0  0  0  0  0  0  0  0  0  0  0  0
    7.0578   10.7259   25.2387 C   0  0  0  0  0  0  0  0  0  0  0  0
    7.5113   11.8349   24.2937 C   0  0  0  0  0  0  0  0  0  0  0  0
    9.0021   11.7710   24.0159 C   0  0  0  0  0  0  0  0  0  0  0  0
 13 14  1  0  0  0
 14 15  1  0  0  0
 14 12  1  0  0  0
 12 10  1  0  0  0
 10 11  2  0  0  0
 10  1  1  0  0  0
  1  2  1  0  0  0
  1  3  1  0  0  0
  1  4  1  0  0  0
  4  5  1  0  0  0
  5  6  1  0  0  0
  6  7  1  0  0  0
  7  8  1  0  0  0
  8  9  1  0  0  0
  9  4  1  0  0  0
M  END
> <minimizedAffinity>
-5.40323

> <minimizedRMSD>
0.56932

$$$$
C7529-P618


 14 14  0  0  0  0  0  0  0  0999 V2000
   11.0016   13.3680   25.4480 O   0  0  0  0  0  0  0  0  0  0  0  0
   10.3137   13.1334   24.5216 C   0  0  0  0  0  0  0  0  0  0  0  0
    9.6675   14.1065   23.4529 N   0  0  0  0  0  0  0  0  0  0  0  0
    9.0621   13.6706   22.8105 H   0  0  0  0  0  0  0  0  0  0  0  0
    9.8172   15.4775   23.2750 N   0  0  0  0  0  0  0  0  0  0  0  0
   11.2043   15.9461   23.3389 C   0  0  0  0  0  0  0  0  0  0  0  0
   12.0404   15.5746   22.1196 C   0  0  0  0  0  0  0  0  0  0  0  0
   11.3832   16.0659   20.8364 C   0  0  0  0  0  0  0  0  0  0  0  0
    9.9393   15.5872   20.7631 C   0  0  0  0  0  0  0  0  0  0  0  0
    9.1688   15.9533   22.0329 C   0  0  0  0  0  0  0  0  0  0  0  0
    9.7928   11.7297   24.1537 C   0  0  0  0  0  0  0  0  0  0  0  0
   10.6476   10.7117   24.4286 F   0  0  0  0  0  0  0  0  0  0  0  0
    9.5551   11.6630   22.8164 F   0  0  0  0  0  0  0  0  0  0  0  0
    8.2969   11.4398   25.0615 Cl  0  0  0  0  0  0  0  0  0  0  0  0
  1  2  2  0  0  0
  2  3  1  0  0  0
  3  5  1  0  0  0
  5  6  1  0  0  0
  6  7  1  0  0  0
  7  8  1  0  0  0
  8  9  1  0  0  0
  9 10  1  0  0  0
  2 11  1  0  0  0
 11 12  1  0  0  0
 11 13  1  0  0  0
 11 14  1  0  0  0
 10  5  1  0  0  0
  3  4  1  0  0  0
M  END
> <minimizedAffinity>
-4.91024

> <minimizedRMSD>
0.97039

$$$$
C2408-P439


 15 15  0  0  0  0  0  0  0  0999 V2000
    8.6928   14.1179   24.6554 C   0  0  0  0  0  0  0  0  0  0  0  0
    7.2097   14.2926   24.2884 C   0  0  0  0  0  0  0  0  0  0  0  0
    8.9376   15.1042   25.8195 C   0  0  0  0  0  0  0  0  0  0  0  0
    9.5193   14.3344   23.4264 N   0  0  0  0  0  0  0  0  0  0  0  0
   10.8129   14.9968   23.6580 C   0  0  0  0  0  0  0  0  0  0  0  0
   11.6686   15.0090   22.3894 C   0  0  0  0  0  0  0  0  0  0  0  0
   10.9555   15.7134   21.2477 C   0  0  0  0  0  0  0  0  0  0  0  0
    9.5856   15.0921   21.0369 C   0  0  0  0  0  0  0  0  0  0  0  0
    8.7883   15.0289   22.3401 C   0  0  0  0  0  0  0  0  0  0  0  0
    8.9952   12.7076   25.2628 C   0  0  0  0  0  0  0  0  0  0  0  0
    9.8445   12.5825   26.1571 O   0  0  0  0  0  0  0  0  0  0  0  0
    8.3005   11.4623   24.7246 C   0  0  0  0  0  0  0  0  0  0  0  0
    9.3245   10.4764   24.1609 C   0  0  0  0  0  0  0  0  0  0  0  0
    6.4000   11.6399   26.4586 C   0  0  0  0  0  0  0  0  0  0  0  0
    7.4646   10.7637   25.8102 C   0  0  0  0  0  0  0  0  0  0  0  0
 14 15  1  0  0  0
 15 12  1  0  0  0
 12 13  1  0  0  0
 12 10  1  0  0  0
 10 11  2  0  0  0
 10  1  1  0  0  0
  1  2  1  0  0  0
  1  3  1  0  0  0
  1  4  1  0  0  0
  4  5  1  0  0  0
  5  6  1  0  0  0
  6  7  1  0  0  0
  7  8  1  0  0  0
  8  9  1  0  0  0
  9  4  1  0  0  0
M  END
> <minimizedAffinity>
-5.14390

> <minimizedRMSD>
1.39515

$$$$
C38621-P170


 13 13  0  0  0  0  0  0  0  0999 V2000
    8.7087   13.1882   23.6160 C   0  0  0  0  0  0  0  0  0  0  0  0
    7.6934   12.6948   24.6486 C   0  0  0  0  0  0  0  0  0  0  0  0
    7.8421   11.2165   25.0217 C   0  0  0  0  0  0  0  0  0  0  0  0
    8.6941   10.3939   24.0691 C   0  0  0  0  0  0  0  0  0  0  0  0
    9.8700   11.0770   23.6324 N   0  0  0  0  0  0  0  0  0  0  0  0
   10.0090   12.4360   23.7720 C   0  0  0  0  0  0  0  0  0  0  0  0
   11.0961   12.9389   24.0194 O   0  0  0  0  0  0  0  0  0  0  0  0
   10.5999   10.5602   23.2208 H   0  0  0  0  0  0  0  0  0  0  0  0
    8.9058   14.7051   23.6771 C   0  0  0  0  0  0  0  0  0  0  0  0
    9.9453   15.1728   22.8237 O   0  0  0  0  0  0  0  0  0  0  0  0
    9.5888   15.3396   21.4546 C   0  0  0  0  0  0  0  0  0  0  0  0
   10.6379   15.5383   19.1665 C   0  0  0  0  0  0  0  0  0  0  0  0
   10.8755   15.5512   20.6642 C   0  0  0  0  0  0  0  0  0  0  0  0
 12 13  1  0  0  0
 13 11  1  0  0  0
 11 10  1  0  0  0
 10  9  1  0  0  0
  1  9  1  0  0  0
  1  2  1  0  0  0
  2  3  1  0  0  0
  3  4  1  0  0  0
  4  5  1  0  0  0
  5  6  1  0  0  0
  6  7  2  0  0  0
  6  1  1  0  0  0
  5  8  1  0  0  0
M  END
> <minimizedAffinity>
-4.40410

> <minimizedRMSD>
0.42233

$$$$
C3646-P213


 11 12  0  0  0  0  0  0  0  0999 V2000
    9.9216   11.8057   23.6511 C   0  0  0  0  0  0  0  0  0  0  0  0
    9.4060   10.5209   23.7312 C   0  0  0  0  0  0  0  0  0  0  0  0
    8.3028   10.2853   24.5500 C   0  0  0  0  0  0  0  0  0  0  0  0
    7.7781   11.3287   25.3052 C   0  0  0  0  0  0  0  0  0  0  0  0
    8.2933   12.5769   25.2634 N   0  0  0  0  0  0  0  0  0  0  0  0
    9.3241   12.7936   24.4158 C   0  0  0  0  0  0  0  0  0  0  0  0
    6.6703   11.1443   26.2291 C   0  0  0  0  0  0  0  0  0  0  0  0
    6.1109   10.0871   26.9064 C   0  0  0  0  0  0  0  0  0  0  0  0
    5.1139   10.6585   27.7110 C   0  0  0  0  0  0  0  0  0  0  0  0
    5.0429   11.9788   27.5422 N   0  0  0  0  0  0  0  0  0  0  0  0
    6.0171   12.2814   26.5984 O   0  0  0  0  0  0  0  0  0  0  0  0
  1  2  2  0  0  0
  2  3  1  0  0  0
  3  4  2  0  0  0
  4  7  1  0  0  0
  7  8  2  0  0  0
  8  9  1  0  0  0
  9 10  2  0  0  0
 10 11  1  0  0  0
  4  5  1  0  0  0
  5  6  2  0  0  0
  6  1  1  0  0  0
 11  7  1  0  0  0
M  END
> <minimizedAffinity>
-3.93721

> <minimizedRMSD>
2.36810

$$$$
C8041-P151


 20 20  0  0  0  0  0  0  0  0999 V2000
    9.6606   14.5686   22.5946 N   0  0  0  0  0  0  0  0  0  0  0  0
    8.4591   13.7548   23.1530 C   0  0  0  0  0  0  0  0  0  0  0  0
    7.4087   13.5372   22.6856 O   0  0  0  0  0  0  0  0  0  0  0  0
   10.4720   14.5409   23.1515 H   0  0  0  0  0  0  0  0  0  0  0  0
    8.8547   13.1653   24.5732 C   0  0  0  0  0  0  0  0  0  0  0  0
   10.1466   13.4598   24.9217 F   0  0  0  0  0  0  0  0  0  0  0  0
    8.1184   13.7990   25.5428 F   0  0  0  0  0  0  0  0  0  0  0  0
    8.6626   11.6563   24.6084 C   0  0  0  0  0  0  0  0  0  0  0  0
    7.6676   11.1139   25.4303 C   0  0  0  0  0  0  0  0  0  0  0  0
    7.4571    9.7503   25.4113 C   0  0  0  0  0  0  0  0  0  0  0  0
    8.1743    8.9023   24.6509 N   0  0  0  0  0  0  0  0  0  0  0  0
    9.1528    9.4278   23.8811 C   0  0  0  0  0  0  0  0  0  0  0  0
    9.4479   10.7814   23.8439 C   0  0  0  0  0  0  0  0  0  0  0  0
    9.1518   16.7280   21.6442 C   0  0  0  0  0  0  0  0  0  0  0  0
    9.7810   15.3686   21.3762 C   0  0  0  0  0  0  0  0  0  0  0  0
   11.2242   15.4725   20.8948 C   0  0  0  0  0  0  0  0  0  0  0  0
   11.3550   15.4556   19.3823 C   0  0  0  0  0  0  0  0  0  0  0  0
   10.9599   14.2965   18.8336 F   0  0  0  0  0  0  0  0  0  0  0  0
   10.6555   16.4420   18.7951 F   0  0  0  0  0  0  0  0  0  0  0  0
   12.6522   15.6115   19.0483 F   0  0  0  0  0  0  0  0  0  0  0  0
 15 14  1  0  0  0
 15 16  1  0  0  0
 16 17  1  0  0  0
 17 18  1  0  0  0
 17 19  1  0  0  0
 17 20  1  0  0  0
 15  1  1  0  0  0
  1  2  1  0  0  0
  2  3  2  0  0  0
  2  5  1  0  0  0
  5  6  1  0  0  0
  5  7  1  0  0  0
  5  8  1  0  0  0
  8  9  2  0  0  0
  9 10  1  0  0  0
 10 11  2  0  0  0
 11 12  1  0  0  0
 12 13  2  0  0  0
 13  8  1  0  0  0
  1  4  1  0  0  0
M  END
> <minimizedAffinity>
-6.35536

> <minimizedRMSD>
0.83003

$$$$
C19976-P296


 15 17  0  0  0  0  0  0  0  0999 V2000
    6.3361   12.6263   26.7985 C   0  0  0  0  0  0  0  0  0  0  0  0
    7.2015   13.0712   25.9031 N   0  0  0  0  0  0  0  0  0  0  0  0
    7.7509   12.0176   25.2121 C   0  0  0  0  0  0  0  0  0  0  0  0
    7.3243   10.7763   25.6071 C   0  0  0  0  0  0  0  0  0  0  0  0
    6.2000   10.8980   26.8695 S   0  0  0  0  0  0  0  0  0  0  0  0
    7.8487    9.4977   25.0779 C   0  0  0  0  0  0  0  0  0  0  0  0
    9.0175    9.6284   24.0991 C   0  0  0  0  0  0  0  0  0  0  0  0
    9.7200   10.9978   24.0849 C   0  0  0  0  0  0  0  0  0  0  0  0
    8.7619   12.2004   24.1390 C   0  0  0  0  0  0  0  0  0  0  0  0
    9.8342    8.3401   24.0009 C   0  0  0  0  0  0  0  0  0  0  0  0
    9.1636    8.8237   22.8113 C   0  0  0  0  0  0  0  0  0  0  0  0
    5.9988   13.4173   29.1694 C   0  0  0  0  0  0  0  0  0  0  0  0
    5.5114   13.5286   27.7132 C   0  0  0  0  0  0  0  0  0  0  0  0
    5.6633   15.0003   27.2716 C   0  0  0  0  0  0  0  0  0  0  0  0
    4.0182   13.1603   27.6328 C   0  0  0  0  0  0  0  0  0  0  0  0
 12 13  1  0  0  0
 13 14  1  0  0  0
 13 15  1  0  0  0
 13  1  1  0  0  0
  1  2  2  0  0  0
  2  3  1  0  0  0
  3  4  2  0  0  0
  4  5  1  0  0  0
  4  6  1  0  0  0
  6  7  1  0  0  0
  7  8  1  0  0  0
  8  9  1  0  0  0
  7 10  1  0  0  0
 10 11  1  0  0  0
  5  1  1  0  0  0
 11  7  1  0  0  0
  9  3  1  0  0  0
M  END
> <minimizedAffinity>
-1.97072

> <minimizedRMSD>
0.94898

$$$$
C82692-P296


 12 12  0  0  0  0  0  0  0  0999 V2000
    7.1092   11.0030   25.8570 C   0  0  0  0  0  0  0  0  0  0  0  0
    7.2627    9.7230   25.5009 C   0  0  0  0  0  0  0  0  0  0  0  0
    8.2063    9.2510   24.6335 N   0  0  0  0  0  0  0  0  0  0  0  0
    9.1045   10.0128   23.9731 N   0  0  0  0  0  0  0  0  0  0  0  0
    9.0617   11.2855   24.2081 C   0  0  0  0  0  0  0  0  0  0  0  0
    8.0884   11.9009   25.1836 C   0  0  0  0  0  0  0  0  0  0  0  0
    8.2732   13.5490   25.3711 S   0  0  0  0  0  0  0  0  0  0  0  0
    8.2337    8.2793   24.4776 H   0  0  0  0  0  0  0  0  0  0  0  0
    6.0384   11.5119   26.7867 C   0  0  0  0  0  0  0  0  0  0  0  0
    4.9482    9.8062   28.3960 C   0  0  0  0  0  0  0  0  0  0  0  0
    6.0012   10.8902   28.2013 C   0  0  0  0  0  0  0  0  0  0  0  0
    5.7645   11.9893   29.2469 C   0  0  0  0  0  0  0  0  0  0  0  0
 10 11  1  0  0  0
 11 12  1  0  0  0
 11  9  1  0  0  0
  9  1  1  0  0  0
  1  2  2  0  0  0
  2  3  1  0  0  0
  3  4  1  0  0  0
  4  5  2  0  0  0
  5  6  1  0  0  0
  6  7  2  0  0  0
  6  1  1  0  0  0
  3  8  1  0  0  0
M  END
> <minimizedAffinity>
-3.68879

> <minimizedRMSD>
0.47706

$$$$
C1800-P296


 17 19  0  0  0  0  0  0  0  0999 V2000
    9.3161   12.8777   22.9977 C   0  0  0  0  0  0  0  0  0  0  0  0
    9.0212   11.6879   23.5767 N   0  0  0  0  0  0  0  0  0  0  0  0
    8.0662   11.6737   24.5308 C   0  0  0  0  0  0  0  0  0  0  0  0
    7.3765   12.8172   24.9144 C   0  0  0  0  0  0  0  0  0  0  0  0
    7.6977   14.0195   24.2864 C   0  0  0  0  0  0  0  0  0  0  0  0
    8.7072   14.0810   23.3254 C   0  0  0  0  0  0  0  0  0  0  0  0
    6.2881   12.7876   25.9447 C   0  0  0  0  0  0  0  0  0  0  0  0
    6.4614   11.6482   26.9342 C   0  0  0  0  0  0  0  0  0  0  0  0
    6.7148   10.3311   26.2255 C   0  0  0  0  0  0  0  0  0  0  0  0
    7.8768   10.3744   25.2485 C   0  0  0  0  0  0  0  0  0  0  0  0
    9.1297   15.4385   22.7993 C   0  0  0  0  0  0  0  0  0  0  0  0
   10.5190   15.8289   23.3207 C   0  0  0  0  0  0  0  0  0  0  0  0
   11.6546   15.3734   22.4182 C   0  0  0  0  0  0  0  0  0  0  0  0
   11.4437   15.8304   21.0568 N   0  0  0  0  0  0  0  0  0  0  0  0
   10.2290   15.2614   20.4862 C   0  0  0  0  0  0  0  0  0  0  0  0
    8.9894   15.6435   21.2858 C   0  0  0  0  0  0  0  0  0  0  0  0
   12.2412   15.5507   20.4857 H   0  0  0  0  0  0  0  0  0  0  0  0
  1  2  2  0  0  0
  2  3  1  0  0  0
  3  4  2  0  0  0
  4  5  1  0  0  0
  5  6  2  0  0  0
  6 11  1  0  0  0
 11 12  1  0  0  0
 12 13  1  0  0  0
 13 14  1  0  0  0
 14 15  1  0  0  0
 15 16  1  0  0  0
  4  7  1  0  0  0
  7  8  1  0  0  0
  8  9  1  0  0  0
  9 10  1  0  0  0
  6  1  1  0  0  0
 16 11  1  0  0  0
 10  3  1  0  0  0
 14 17  1  0  0  0
M  END
> <minimizedAffinity>
-6.13070

> <minimizedRMSD>
0.15949

$$$$
C6268-P306


 13 14  0  0  0  0  0  0  0  0999 V2000
    9.5765   13.7260   23.7508 C   0  0  0  0  0  0  0  0  0  0  0  0
    8.1414   13.1789   23.4948 C   0  0  0  0  0  0  0  0  0  0  0  0
    7.5589   12.2467   24.4648 N   0  0  0  0  0  0  0  0  0  0  0  0
    8.3665   11.0589   24.7134 C   0  0  0  0  0  0  0  0  0  0  0  0
    9.7214   10.9502   24.0225 C   0  0  0  0  0  0  0  0  0  0  0  0
   10.7264   12.4169   24.3469 S   0  0  0  0  0  0  0  0  0  0  0  0
    6.6494   11.9470   24.1136 H   0  0  0  0  0  0  0  0  0  0  0  0
   11.0210   15.5192   20.1503 C   0  0  0  0  0  0  0  0  0  0  0  0
   11.9061   15.3898   21.2087 C   0  0  0  0  0  0  0  0  0  0  0  0
   11.4482   14.8658   22.4140 C   0  0  0  0  0  0  0  0  0  0  0  0
   10.1239   14.4277   22.5115 C   0  0  0  0  0  0  0  0  0  0  0  0
    9.2464   14.6104   21.4964 N   0  0  0  0  0  0  0  0  0  0  0  0
    9.7044   15.1683   20.3579 C   0  0  0  0  0  0  0  0  0  0  0  0
  8  9  2  0  0  0
  9 10  1  0  0  0
 10 11  2  0  0  0
  1 11  1  0  0  0
  1  2  1  0  0  0
  2  3  1  0  0  0
  3  4  1  0  0  0
  4  5  1  0  0  0
  5  6  1  0  0  0
 11 12  1  0  0  0
 12 13  2  0  0  0
 13  8  1  0  0  0
  6  1  1  0  0  0
  3  7  1  0  0  0
M  END
> <minimizedAffinity>
-5.62676

> <minimizedRMSD>
0.78123

$$$$
C6269-P306


 13 14  0  0  0  0  0  0  0  0999 V2000
    9.8670   13.4184   24.3003 C   0  0  0  0  0  0  0  0  0  0  0  0
    8.3099   13.3906   24.4099 C   0  0  0  0  0  0  0  0  0  0  0  0
    7.5794   12.0110   25.3578 S   0  0  0  0  0  0  0  0  0  0  0  0
    8.5908   10.6553   24.7143 C   0  0  0  0  0  0  0  0  0  0  0  0
    9.6330   11.0608   23.6951 C   0  0  0  0  0  0  0  0  0  0  0  0
   10.5506   12.0930   24.1784 N   0  0  0  0  0  0  0  0  0  0  0  0
   11.3275   12.1795   23.5231 H   0  0  0  0  0  0  0  0  0  0  0  0
   11.1429   15.7022   20.9226 C   0  0  0  0  0  0  0  0  0  0  0  0
   12.0785   15.3880   21.8977 C   0  0  0  0  0  0  0  0  0  0  0  0
   11.6584   14.7256   23.0465 C   0  0  0  0  0  0  0  0  0  0  0  0
   10.3155   14.3477   23.1610 C   0  0  0  0  0  0  0  0  0  0  0  0
    9.3980   14.6736   22.2233 N   0  0  0  0  0  0  0  0  0  0  0  0
    9.8239   15.3685   21.1504 C   0  0  0  0  0  0  0  0  0  0  0  0
  8  9  2  0  0  0
  9 10  1  0  0  0
 10 11  2  0  0  0
  1 11  1  0  0  0
  1  2  1  0  0  0
  2  3  1  0  0  0
  3  4  1  0  0  0
  4  5  1  0  0  0
  5  6  1  0  0  0
 11 12  1  0  0  0
 12 13  2  0  0  0
 13  8  1  0  0  0
  6  1  1  0  0  0
  6  7  1  0  0  0
M  END
> <minimizedAffinity>
-5.49834

> <minimizedRMSD>
0.54908

$$$$
C7182-P153


 23 24  0  0  0  0  0  0  0  0999 V2000
    9.4141    9.8283   23.6119 C   0  0  0  0  0  0  0  0  0  0  0  0
    8.4386   10.2798   24.6320 C   0  0  0  0  0  0  0  0  0  0  0  0
    7.5966    9.5197   25.4071 C   0  0  0  0  0  0  0  0  0  0  0  0
    6.9021   10.4161   26.2292 C   0  0  0  0  0  0  0  0  0  0  0  0
    7.3399   11.6603   26.0558 N   0  0  0  0  0  0  0  0  0  0  0  0
    8.1777   11.5804   24.9945 N   0  0  0  0  0  0  0  0  0  0  0  0
    8.7019   12.7899   24.3644 C   0  0  0  0  0  0  0  0  0  0  0  0
   10.0411   13.2080   24.9819 C   0  0  0  0  0  0  0  0  0  0  0  0
   10.6341   14.4099   24.2521 C   0  0  0  0  0  0  0  0  0  0  0  0
    9.6509   15.5736   24.2038 C   0  0  0  0  0  0  0  0  0  0  0  0
    8.3051   15.1671   23.6084 C   0  0  0  0  0  0  0  0  0  0  0  0
    7.7082   13.9626   24.3358 C   0  0  0  0  0  0  0  0  0  0  0  0
    5.8927   10.0297   27.0574 N   0  0  0  0  0  0  0  0  0  0  0  0
    5.1922   10.7911   28.2181 C   0  0  0  0  0  0  0  0  0  0  0  0
    5.4262   11.8329   28.6885 O   0  0  0  0  0  0  0  0  0  0  0  0
    5.5509    9.1208   26.8949 H   0  0  0  0  0  0  0  0  0  0  0  0
    3.9932    9.9141   28.5938 C   0  0  0  0  0  0  0  0  0  0  0  0
    3.1484   10.2978   29.8167 C   0  0  0  0  0  0  0  0  0  0  0  0
    2.8651   11.7922   29.9599 C   0  0  0  0  0  0  0  0  0  0  0  0
    1.8128    9.5616   29.7411 C   0  0  0  0  0  0  0  0  0  0  0  0
    1.1101    9.6995   30.8842 F   0  0  0  0  0  0  0  0  0  0  0  0
    1.9901    8.2381   29.5314 F   0  0  0  0  0  0  0  0  0  0  0  0
    1.0556   10.0237   28.7215 F   0  0  0  0  0  0  0  0  0  0  0  0
  1  2  1  0  0  0
  2  3  2  0  0  0
  3  4  1  0  0  0
  4 13  1  0  0  0
 13 14  1  0  0  0
 14 15  2  0  0  0
 14 17  1  0  0  0
 17 18  1  0  0  0
 18 19  1  0  0  0
 18 20  1  0  0  0
 20 21  1  0  0  0
 20 22  1  0  0  0
 20 23  1  0  0  0
  4  5  2  0  0  0
  5  6  1  0  0  0
  6  7  1  0  0  0
  7  8  1  0  0  0
  8  9  1  0  0  0
  9 10  1  0  0  0
 10 11  1  0  0  0
 11 12  1  0  0  0
  6  2  1  0  0  0
 12  7  1  0  0  0
 13 16  1  0  0  0
M  END
> <minimizedAffinity>
-4.66952

> <minimizedRMSD>
0.66911

$$$$
C7646-P373


 15 16  0  0  0  0  0  0  0  0999 V2000
   10.2579   15.7816   24.0106 C   0  0  0  0  0  0  0  0  0  0  0  0
    9.3158   15.8847   22.8116 C   0  0  0  0  0  0  0  0  0  0  0  0
    9.2462   17.7945   20.9646 N   0  0  0  0  0  0  0  0  0  0  0  0
   10.1206   16.4054   21.2998 S   0  0  0  0  0  0  0  0  0  0  0  0
   11.4604   16.8447   21.5984 O   0  0  0  0  0  0  0  0  0  0  0  0
    9.8461   15.4983   20.2060 O   0  0  0  0  0  0  0  0  0  0  0  0
    9.5975   18.2184   20.1059 H   0  0  0  0  0  0  0  0  0  0  0  0
    9.3476   18.4544   21.7357 H   0  0  0  0  0  0  0  0  0  0  0  0
   10.8940   14.4171   24.3034 C   0  0  0  0  0  0  0  0  0  0  0  0
   10.0140   13.3141   24.6361 N   0  0  0  0  0  0  0  0  0  0  0  0
    9.5990   12.5678   23.4312 C   0  0  0  0  0  0  0  0  0  0  0  0
    8.3649   11.8540   23.8678 C   0  0  0  0  0  0  0  0  0  0  0  0
    8.2497   11.1235   25.1589 C   0  0  0  0  0  0  0  0  0  0  0  0
    7.8826   12.5372   25.0999 C   0  0  0  0  0  0  0  0  0  0  0  0
    8.8249   13.6281   25.4233 C   0  0  0  0  0  0  0  0  0  0  0  0
  3  4  1  0  0  0
  4  5  2  0  0  0
  4  6  2  0  0  0
  4  2  1  0  0  0
  2  1  1  0  0  0
  1  9  1  0  0  0
  9 10  1  0  0  0
 10 11  1  0  0  0
 12 11  1  0  0  0
 12 13  1  0  0  0
 14 13  1  0  0  0
 14 15  1  0  0  0
 15 10  1  0  0  0
 14 12  1  0  0  0
  3  7  1  0  0  0
  3  8  1  0  0  0
M  END
> <minimizedAffinity>
-4.18375

> <minimizedRMSD>
2.54571

$$$$
C7653-P373


 14 14  0  0  0  0  0  0  0  0999 V2000
    8.6993   13.9067   24.5235 N   0  0  0  0  0  0  0  0  0  0  0  0
    7.7883   14.3633   24.4797 H   0  0  0  0  0  0  0  0  0  0  0  0
    8.5186   12.6250   25.2668 C   0  0  0  0  0  0  0  0  0  0  0  0
    7.2864   12.8174   26.1784 C   0  0  0  0  0  0  0  0  0  0  0  0
    6.5940   11.5715   26.6253 C   0  0  0  0  0  0  0  0  0  0  0  0
    6.8876   10.3641   26.1355 C   0  0  0  0  0  0  0  0  0  0  0  0
    7.9371   10.1425   25.1016 C   0  0  0  0  0  0  0  0  0  0  0  0
    8.4403   11.3881   24.3945 C   0  0  0  0  0  0  0  0  0  0  0  0
    9.2948   13.8294   22.9571 S   0  0  0  0  0  0  0  0  0  0  0  0
    8.0981   13.5677   22.1842 O   0  0  0  0  0  0  0  0  0  0  0  0
   10.4435   12.9547   22.9485 O   0  0  0  0  0  0  0  0  0  0  0  0
    9.7721   15.5259   22.6532 C   0  0  0  0  0  0  0  0  0  0  0  0
   12.0820   15.9685   21.7663 C   0  0  0  0  0  0  0  0  0  0  0  0
   11.2169   15.8292   23.0080 C   0  0  0  0  0  0  0  0  0  0  0  0
 13 14  1  0  0  0
 14 12  1  0  0  0
 12  9  1  0  0  0
  9 10  2  0  0  0
  9 11  2  0  0  0
  9  1  1  0  0  0
  3  1  1  0  0  0
  3  4  1  0  0  0
  4  5  1  0  0  0
  5  6  2  0  0  0
  6  7  1  0  0  0
  7  8  1  0  0  0
  8  3  1  0  0  0
  1  2  1  0  0  0
M  END
> <minimizedAffinity>
-4.36813

> <minimizedRMSD>
0.96738

$$$$
C7658-P373


 13 13  0  0  0  0  0  0  0  0999 V2000
   10.0884   13.4841   22.2783 N   0  0  0  0  0  0  0  0  0  0  0  0
    9.8056   13.0915   21.3803 H   0  0  0  0  0  0  0  0  0  0  0  0
   10.4031   14.8637   22.1215 N   0  0  0  0  0  0  0  0  0  0  0  0
   10.1194   15.3383   20.7595 C   0  0  0  0  0  0  0  0  0  0  0  0
   10.9153   16.6237   20.6793 C   0  0  0  0  0  0  0  0  0  0  0  0
   12.2070   16.2579   21.3730 C   0  0  0  0  0  0  0  0  0  0  0  0
   11.8260   15.1716   22.3669 C   0  0  0  0  0  0  0  0  0  0  0  0
    8.7915   13.3436   23.4101 S   0  0  0  0  0  0  0  0  0  0  0  0
    7.5741   13.2664   22.6329 O   0  0  0  0  0  0  0  0  0  0  0  0
    8.9559   14.3053   24.4795 O   0  0  0  0  0  0  0  0  0  0  0  0
    9.1227   11.7223   24.0903 C   0  0  0  0  0  0  0  0  0  0  0  0
    7.7289    9.8820   25.1274 C   0  0  0  0  0  0  0  0  0  0  0  0
    8.0885   11.3542   25.1499 C   0  0  0  0  0  0  0  0  0  0  0  0
 12 13  1  0  0  0
 13 11  1  0  0  0
 11  8  1  0  0  0
  8  9  2  0  0  0
  8 10  2  0  0  0
  8  1  1  0  0  0
  1  3  1  0  0  0
  3  4  1  0  0  0
  4  5  1  0  0  0
  5  6  1  0  0  0
  6  7  1  0  0  0
  7  3  1  0  0  0
  1  2  1  0  0  0
M  END
> <minimizedAffinity>
-4.81863

> <minimizedRMSD>
1.71038

$$$$
C7672-P373


 14 14  0  0  0  0  0  0  0  0999 V2000
    8.6881   14.1143   24.4780 N   0  0  0  0  0  0  0  0  0  0  0  0
    7.9036   14.7660   24.4591 H   0  0  0  0  0  0  0  0  0  0  0  0
    8.3203   13.0207   25.4185 C   0  0  0  0  0  0  0  0  0  0  0  0
    7.1424   13.5415   26.2408 C   0  0  0  0  0  0  0  0  0  0  0  0
    6.7153   12.6180   27.3576 C   0  0  0  0  0  0  0  0  0  0  0  0
    6.1255   11.0381   26.7342 S   0  0  0  0  0  0  0  0  0  0  0  0
    7.5046   10.5835   25.6635 C   0  0  0  0  0  0  0  0  0  0  0  0
    8.1000   11.6598   24.7834 C   0  0  0  0  0  0  0  0  0  0  0  0
    9.0527   13.7429   22.8837 S   0  0  0  0  0  0  0  0  0  0  0  0
    7.7375   13.5043   22.3286 O   0  0  0  0  0  0  0  0  0  0  0  0
   10.1090   12.7585   22.8628 O   0  0  0  0  0  0  0  0  0  0  0  0
    9.6331   15.3148   22.2577 C   0  0  0  0  0  0  0  0  0  0  0  0
   12.0380   15.9143   21.8291 C   0  0  0  0  0  0  0  0  0  0  0  0
   10.9442   15.7714   22.8748 C   0  0  0  0  0  0  0  0  0  0  0  0
 13 14  1  0  0  0
 14 12  1  0  0  0
 12  9  1  0  0  0
  9 10  2  0  0  0
  9 11  2  0  0  0
  9  1  1  0  0  0
  1  3  1  0  0  0
  3  4  1  0  0  0
  4  5  1  0  0  0
  5  6  1  0  0  0
  6  7  1  0  0  0
  7  8  1  0  0  0
  8  3  1  0  0  0
  1  2  1  0  0  0
M  END
> <minimizedAffinity>
-4.06440

> <minimizedRMSD>
0.90876

$$$$
C7674-P373


 15 16  0  0  0  0  0  0  0  0999 V2000
    8.7143   16.1076   24.8629 C   0  0  0  0  0  0  0  0  0  0  0  0
    7.3640   15.7328   24.2727 C   0  0  0  0  0  0  0  0  0  0  0  0
    5.8966   16.7027   22.2887 N   0  0  0  0  0  0  0  0  0  0  0  0
    7.3484   15.8845   22.4933 S   0  0  0  0  0  0  0  0  0  0  0  0
    8.3684   16.8140   22.0715 O   0  0  0  0  0  0  0  0  0  0  0  0
    7.1623   14.6161   21.8292 O   0  0  0  0  0  0  0  0  0  0  0  0
    5.7379   16.8702   21.2951 H   0  0  0  0  0  0  0  0  0  0  0  0
    5.9366   17.5947   22.7818 H   0  0  0  0  0  0  0  0  0  0  0  0
    9.6331   14.9165   25.0585 C   0  0  0  0  0  0  0  0  0  0  0  0
    9.2129   13.7292   24.3486 N   0  0  0  0  0  0  0  0  0  0  0  0
   10.1703   13.2814   23.3209 C   0  0  0  0  0  0  0  0  0  0  0  0
    9.8198   11.8039   23.1126 C   0  0  0  0  0  0  0  0  0  0  0  0
    9.2500   11.3277   24.3980 C   0  0  0  0  0  0  0  0  0  0  0  0
    7.8850   11.6408   24.9195 C   0  0  0  0  0  0  0  0  0  0  0  0
    8.9937   12.5601   25.2044 C   0  0  0  0  0  0  0  0  0  0  0  0
  3  4  1  0  0  0
  4  5  2  0  0  0
  4  6  2  0  0  0
  4  2  1  0  0  0
  2  1  1  0  0  0
  1  9  1  0  0  0
  9 10  1  0  0  0
 10 11  1  0  0  0
 11 12  1  0  0  0
 13 12  1  0  0  0
 13 14  1  0  0  0
 15 14  1  0  0  0
 15 10  1  0  0  0
 15 13  1  0  0  0
  3  7  1  0  0  0
  3  8  1  0  0  0
M  END
> <minimizedAffinity>
-3.23209

> <minimizedRMSD>
1.31725

$$$$
C18930-P134


 17 18  0  0  0  0  0  0  0  0999 V2000
    8.9878   12.9850   25.1199 C   0  0  0  0  0  0  0  0  0  0  0  0
    9.9542   13.9446   24.7497 C   0  0  0  0  0  0  0  0  0  0  0  0
   11.3087   13.6087   24.6664 C   0  0  0  0  0  0  0  0  0  0  0  0
   11.6432   12.3129   24.9841 C   0  0  0  0  0  0  0  0  0  0  0  0
   10.6871   11.3310   25.2229 C   0  0  0  0  0  0  0  0  0  0  0  0
    9.3522   11.6390   25.2853 C   0  0  0  0  0  0  0  0  0  0  0  0
   11.2671   10.0860   25.4317 N   0  0  0  0  0  0  0  0  0  0  0  0
   12.6365   10.1816   25.4351 C   0  0  0  0  0  0  0  0  0  0  0  0
   13.4541    9.3017   25.5905 O   0  0  0  0  0  0  0  0  0  0  0  0
   12.9475   11.6681   25.1406 C   0  0  0  0  0  0  0  0  0  0  0  0
   14.0495   12.1346   24.9789 O   0  0  0  0  0  0  0  0  0  0  0  0
   10.7645    9.2493   25.5599 H   0  0  0  0  0  0  0  0  0  0  0  0
    7.3477   13.3807   25.6762 S   0  0  0  0  0  0  0  0  0  0  0  0
    7.0291   15.0898   25.1294 C   0  0  0  0  0  0  0  0  0  0  0  0
    6.6400   15.9920   26.2974 C   0  0  0  0  0  0  0  0  0  0  0  0
    4.7004   16.0337   24.9649 C   0  0  0  0  0  0  0  0  0  0  0  0
    5.2431   16.2967   26.2523 O   0  0  0  0  0  0  0  0  0  0  0  0
 16 17  1  0  0  0
 17 15  1  0  0  0
 15 14  1  0  0  0
 14 13  1  0  0  0
 13  1  1  0  0  0
  1  2  2  0  0  0
  2  3  1  0  0  0
  3  4  2  0  0  0
  4  5  1  0  0  0
  5  6  2  0  0  0
  5  7  1  0  0  0
  7  8  1  0  0  0
  8  9  2  0  0  0
  8 10  1  0  0  0
 10 11  2  0  0  0
  6  1  1  0  0  0
 10  4  1  0  0  0
  7 12  1  0  0  0
M  END
> <minimizedAffinity>
-5.07244

> <minimizedRMSD>
0.76610

$$$$
C2397-P338


 16 16  0  0  0  0  0  0  0  0999 V2000
    7.5241   12.8709   24.4937 C   0  0  0  0  0  0  0  0  0  0  0  0
    8.0481   11.4650   24.8123 C   0  0  0  0  0  0  0  0  0  0  0  0
    7.8565   13.9525   25.5662 C   0  0  0  0  0  0  0  0  0  0  0  0
    7.0659   13.7801   26.8758 C   0  0  0  0  0  0  0  0  0  0  0  0
    7.3840   14.8937   27.8736 C   0  0  0  0  0  0  0  0  0  0  0  0
    7.1885   16.2647   27.2409 C   0  0  0  0  0  0  0  0  0  0  0  0
    7.9354   16.3749   25.9189 C   0  0  0  0  0  0  0  0  0  0  0  0
    7.5722   15.2898   25.0085 N   0  0  0  0  0  0  0  0  0  0  0  0
    8.1006   15.4005   24.1431 H   0  0  0  0  0  0  0  0  0  0  0  0
    7.9706   13.3316   23.0833 C   0  0  0  0  0  0  0  0  0  0  0  0
    9.3320   13.0392   22.7768 O   0  0  0  0  0  0  0  0  0  0  0  0
   10.2223   14.1541   22.6831 C   0  0  0  0  0  0  0  0  0  0  0  0
    9.6012   15.3577   21.9805 C   0  0  0  0  0  0  0  0  0  0  0  0
   10.4589   15.8951   19.6470 C   0  0  0  0  0  0  0  0  0  0  0  0
   10.5725   16.2088   21.1369 C   0  0  0  0  0  0  0  0  0  0  0  0
   12.0289   16.1244   21.5927 C   0  0  0  0  0  0  0  0  0  0  0  0
 14 15  1  0  0  0
 15 16  1  0  0  0
 15 13  1  0  0  0
 13 12  1  0  0  0
 12 11  1  0  0  0
 11 10  1  0  0  0
 10  1  1  0  0  0
  1  2  1  0  0  0
  1  3  1  0  0  0
  3  4  1  0  0  0
  4  5  1  0  0  0
  5  6  1  0  0  0
  6  7  1  0  0  0
  7  8  1  0  0  0
  8  3  1  0  0  0
  8  9  1  0  0  0
M  END
> <minimizedAffinity>
-4.11282

> <minimizedRMSD>
1.40808

$$$$
C9375-P358


 15 15  0  0  0  0  0  0  0  0999 V2000
    8.8601   13.9248   23.8612 S   0  0  0  0  0  0  0  0  0  0  0  0
    7.7453   14.8149   23.6824 O   0  0  0  0  0  0  0  0  0  0  0  0
    9.6740   13.9556   25.0539 O   0  0  0  0  0  0  0  0  0  0  0  0
    8.3004   12.3563   23.6509 N   0  0  0  0  0  0  0  0  0  0  0  0
    7.5139   11.8814   24.8135 C   0  0  0  0  0  0  0  0  0  0  0  0
    7.6946   10.3786   24.8697 C   0  0  0  0  0  0  0  0  0  0  0  0
    8.7491   10.0223   23.8446 C   0  0  0  0  0  0  0  0  0  0  0  0
    9.3165   11.3330   23.3452 C   0  0  0  0  0  0  0  0  0  0  0  0
    9.9219   14.0715   22.6029 N   0  0  0  0  0  0  0  0  0  0  0  0
   10.7211   14.6037   22.9470 H   0  0  0  0  0  0  0  0  0  0  0  0
    9.4688   14.7287   21.3485 C   0  0  0  0  0  0  0  0  0  0  0  0
   10.3252   15.9246   19.2808 C   0  0  0  0  0  0  0  0  0  0  0  0
   10.6954   15.0694   20.4767 C   0  0  0  0  0  0  0  0  0  0  0  0
   11.6681   15.7206   21.3539 C   0  0  0  0  0  0  0  0  0  0  0  0
   12.2121   16.1263   22.2923 N   0  0  0  0  0  0  0  0  0  0  0  0
 13 12  1  0  0  0
 13 14  1  0  0  0
 14 15  3  0  0  0
 13 11  1  0  0  0
 11  9  1  0  0  0
  9  1  1  0  0  0
  1  2  2  0  0  0
  1  3  2  0  0  0
  1  4  1  0  0  0
  4  5  1  0  0  0
  5  6  1  0  0  0
  6  7  1  0  0  0
  7  8  1  0  0  0
  8  4  1  0  0  0
  9 10  1  0  0  0
M  END
> <minimizedAffinity>
-5.13943

> <minimizedRMSD>
0.33495

$$$$
C9378-P358


 17 17  0  0  0  0  0  0  0  0999 V2000
    9.2031   14.5214   23.6089 C   0  0  0  0  0  0  0  0  0  0  0  0
    8.3153   15.4296   24.2996 O   0  0  0  0  0  0  0  0  0  0  0  0
    8.0328   15.0310   25.1376 H   0  0  0  0  0  0  0  0  0  0  0  0
    9.6781   15.1608   22.2275 C   0  0  0  0  0  0  0  0  0  0  0  0
   11.1362   15.6871   22.2666 C   0  0  0  0  0  0  0  0  0  0  0  0
    9.6346   14.1352   21.1005 C   0  0  0  0  0  0  0  0  0  0  0  0
    8.7808   16.3200   21.7151 C   0  0  0  0  0  0  0  0  0  0  0  0
   11.3711   13.2714   24.2984 C   0  0  0  0  0  0  0  0  0  0  0  0
   10.3557   14.3436   24.6247 C   0  0  0  0  0  0  0  0  0  0  0  0
    8.2416   13.2975   23.4498 C   0  0  0  0  0  0  0  0  0  0  0  0
    7.3785   13.2843   22.5603 O   0  0  0  0  0  0  0  0  0  0  0  0
    8.2459   12.1818   24.4990 C   0  0  0  0  0  0  0  0  0  0  0  0
    8.4637   10.8070   23.9033 C   0  0  0  0  0  0  0  0  0  0  0  0
    7.6983    9.8696   24.8161 C   0  0  0  0  0  0  0  0  0  0  0  0
    6.8750   10.7497   25.7333 C   0  0  0  0  0  0  0  0  0  0  0  0
    6.9173   12.0878   25.1547 N   0  0  0  0  0  0  0  0  0  0  0  0
    6.8261   12.7962   25.8829 H   0  0  0  0  0  0  0  0  0  0  0  0
  8  9  1  0  0  0
  9  1  1  0  0  0
  1  2  1  0  0  0
  1 10  1  0  0  0
 10 11  2  0  0  0
 12 10  1  0  0  0
 12 13  1  0  0  0
 13 14  1  0  0  0
 14 15  1  0  0  0
 15 16  1  0  0  0
  1  4  1  0  0  0
  4  5  1  0  0  0
  4  6  1  0  0  0
  4  7  1  0  0  0
 16 12  1  0  0  0
  2  3  1  0  0  0
 16 17  1  0  0  0
M  END
> <minimizedAffinity>
-4.86107

> <minimizedRMSD>
0.51390

$$$$
C9379-P358


 16 16  0  0  0  0  0  0  0  0999 V2000
   10.4580   13.7790   24.3910 C   0  0  0  0  0  0  0  0  0  0  0  0
   10.9573   14.5108   25.5074 O   0  0  0  0  0  0  0  0  0  0  0  0
   10.4461   15.3284   25.6128 H   0  0  0  0  0  0  0  0  0  0  0  0
    8.9819   13.4832   24.6553 C   0  0  0  0  0  0  0  0  0  0  0  0
    8.3084   14.2919   25.3082 O   0  0  0  0  0  0  0  0  0  0  0  0
    8.3676   12.1645   24.1955 C   0  0  0  0  0  0  0  0  0  0  0  0
    9.2894   11.0790   23.6901 C   0  0  0  0  0  0  0  0  0  0  0  0
    8.5279    9.7907   23.9086 C   0  0  0  0  0  0  0  0  0  0  0  0
    7.4439   10.1237   24.9120 C   0  0  0  0  0  0  0  0  0  0  0  0
    7.6452   11.5101   25.3144 N   0  0  0  0  0  0  0  0  0  0  0  0
    8.2018   11.5534   26.1681 H   0  0  0  0  0  0  0  0  0  0  0  0
   10.5886   14.5960   23.1141 C   0  0  0  0  0  0  0  0  0  0  0  0
   11.9564   15.2639   22.9473 C   0  0  0  0  0  0  0  0  0  0  0  0
   12.0008   16.0580   21.6394 C   0  0  0  0  0  0  0  0  0  0  0  0
   10.5438   15.7345   19.5714 C   0  0  0  0  0  0  0  0  0  0  0  0
   11.6270   15.1658   20.4576 C   0  0  0  0  0  0  0  0  0  0  0  0
 15 16  1  0  0  0
 16 14  1  0  0  0
 14 13  1  0  0  0
 13 12  1  0  0  0
 12  1  1  0  0  0
  1  2  1  0  0  0
  1  4  1  0  0  0
  4  5  2  0  0  0
  6  4  1  0  0  0
  6  7  1  0  0  0
  7  8  1  0  0  0
  8  9  1  0  0  0
  9 10  1  0  0  0
 10  6  1  0  0  0
  2  3  1  0  0  0
 10 11  1  0  0  0
M  END
> <minimizedAffinity>
-5.18760

> <minimizedRMSD>
1.29503

$$$$
C9394-P358


 14 14  0  0  0  0  0  0  0  0999 V2000
    7.7756   13.8253   23.2011 C   0  0  0  0  0  0  0  0  0  0  0  0
    6.7967   13.3332   22.2783 O   0  0  0  0  0  0  0  0  0  0  0  0
    6.8475   12.3654   22.2386 H   0  0  0  0  0  0  0  0  0  0  0  0
    7.4641   13.2576   24.5889 C   0  0  0  0  0  0  0  0  0  0  0  0
    8.3353   12.2025   25.0036 O   0  0  0  0  0  0  0  0  0  0  0  0
    7.9489   10.9167   24.5447 C   0  0  0  0  0  0  0  0  0  0  0  0
    6.2755   10.7168   26.4862 C   0  0  0  0  0  0  0  0  0  0  0  0
    6.9873   10.2168   25.4662 C   0  0  0  0  0  0  0  0  0  0  0  0
    9.2111   13.5186   22.7367 C   0  0  0  0  0  0  0  0  0  0  0  0
    9.9121   14.7144   22.2472 N   0  0  0  0  0  0  0  0  0  0  0  0
   11.3665   14.5724   22.3257 C   0  0  0  0  0  0  0  0  0  0  0  0
   11.8291   15.7400   21.4825 C   0  0  0  0  0  0  0  0  0  0  0  0
   10.8937   15.6887   20.2934 C   0  0  0  0  0  0  0  0  0  0  0  0
    9.6238   15.0512   20.8444 C   0  0  0  0  0  0  0  0  0  0  0  0
  7  8  2  0  0  0
  8  6  1  0  0  0
  6  5  1  0  0  0
  5  4  1  0  0  0
  4  1  1  0  0  0
  1  2  1  0  0  0
  1  9  1  0  0  0
  9 10  1  0  0  0
 10 11  1  0  0  0
 11 12  1  0  0  0
 12 13  1  0  0  0
 13 14  1  0  0  0
 14 10  1  0  0  0
  2  3  1  0  0  0
M  END
> <minimizedAffinity>
-4.88338

> <minimizedRMSD>
0.68890

$$$$
C7070-P174


 15 15  0  0  0  0  0  0  0  0999 V2000
    9.3818   12.0057   23.1779 C   0  0  0  0  0  0  0  0  0  0  0  0
    7.9625    9.9482   24.2699 C   0  0  0  0  0  0  0  0  0  0  0  0
    8.3110    8.9744   23.7239 O   0  0  0  0  0  0  0  0  0  0  0  0
    8.4418   11.4190   24.1106 N   0  0  0  0  0  0  0  0  0  0  0  0
    8.0413   12.0545   24.7469 H   0  0  0  0  0  0  0  0  0  0  0  0
    6.9391    9.8621   25.3908 C   0  0  0  0  0  0  0  0  0  0  0  0
    6.7892   12.0940   26.7409 N   0  0  0  0  0  0  0  0  0  0  0  0
    6.8142   11.0865   26.1681 C   0  0  0  0  0  0  0  0  0  0  0  0
    8.9981   13.4613   22.8360 C   0  0  0  0  0  0  0  0  0  0  0  0
    9.7791   14.0600   21.7492 N   0  0  0  0  0  0  0  0  0  0  0  0
   11.0678   14.6090   22.2042 C   0  0  0  0  0  0  0  0  0  0  0  0
   11.6231   15.7569   21.3554 C   0  0  0  0  0  0  0  0  0  0  0  0
   11.2567   15.6265   19.8926 C   0  0  0  0  0  0  0  0  0  0  0  0
    9.7460   15.4833   19.7231 C   0  0  0  0  0  0  0  0  0  0  0  0
    9.0081   15.0531   20.9967 C   0  0  0  0  0  0  0  0  0  0  0  0
  7  8  3  0  0  0
  8  6  1  0  0  0
  6  2  1  0  0  0
  2  3  2  0  0  0
  2  4  1  0  0  0
  4  1  1  0  0  0
  1  9  1  0  0  0
  9 10  1  0  0  0
 10 11  1  0  0  0
 11 12  1  0  0  0
 12 13  1  0  0  0
 13 14  1  0  0  0
 14 15  1  0  0  0
 15 10  1  0  0  0
  4  5  1  0  0  0
M  END
> <minimizedAffinity>
-5.07679

> <minimizedRMSD>
1.31265

$$$$
C2382-P437


 15 15  0  0  0  0  0  0  0  0999 V2000
    8.8617   13.4863   23.6509 C   0  0  0  0  0  0  0  0  0  0  0  0
    7.5167   13.3302   22.9032 C   0  0  0  0  0  0  0  0  0  0  0  0
    9.9078   12.5974   23.0152 C   0  0  0  0  0  0  0  0  0  0  0  0
    9.2025   14.9361   23.5460 N   0  0  0  0  0  0  0  0  0  0  0  0
   10.5508   15.3620   23.9228 C   0  0  0  0  0  0  0  0  0  0  0  0
   11.6158   15.0871   22.8699 C   0  0  0  0  0  0  0  0  0  0  0  0
   11.2324   15.7150   21.5416 C   0  0  0  0  0  0  0  0  0  0  0  0
    9.8191   15.4142   21.0942 C   0  0  0  0  0  0  0  0  0  0  0  0
    8.8256   15.5707   22.2537 C   0  0  0  0  0  0  0  0  0  0  0  0
    8.8120   12.9360   25.1147 C   0  0  0  0  0  0  0  0  0  0  0  0
    9.8383   12.5916   25.7249 O   0  0  0  0  0  0  0  0  0  0  0  0
    7.4800   12.6414   25.7863 C   0  0  0  0  0  0  0  0  0  0  0  0
    7.2794   10.1849   25.0151 C   0  0  0  0  0  0  0  0  0  0  0  0
    7.2432   11.1713   26.1711 C   0  0  0  0  0  0  0  0  0  0  0  0
    5.9508   10.9777   26.9234 C   0  0  0  0  0  0  0  0  0  0  0  0
 13 14  1  0  0  0
 14 15  1  0  0  0
 14 12  1  0  0  0
 12 10  1  0  0  0
 10 11  2  0  0  0
 10  1  1  0  0  0
  1  2  1  0  0  0
  1  3  1  0  0  0
  1  4  1  0  0  0
  4  5  1  0  0  0
  5  6  1  0  0  0
  6  7  1  0  0  0
  7  8  1  0  0  0
  8  9  1  0  0  0
  9  4  1  0  0  0
M  END
> <minimizedAffinity>
-5.37317

> <minimizedRMSD>
1.73694

$$$$
C2408-P437


 15 15  0  0  0  0  0  0  0  0999 V2000
    8.8925   13.2291   23.8068 C   0  0  0  0  0  0  0  0  0  0  0  0
    7.5025   13.1114   23.1510 C   0  0  0  0  0  0  0  0  0  0  0  0
    9.8840   12.4992   22.9206 C   0  0  0  0  0  0  0  0  0  0  0  0
    9.1774   14.6890   23.9159 N   0  0  0  0  0  0  0  0  0  0  0  0
   10.5324   15.0948   24.2928 C   0  0  0  0  0  0  0  0  0  0  0  0
   11.5459   15.0157   23.1587 C   0  0  0  0  0  0  0  0  0  0  0  0
   11.0838   15.8670   21.9884 C   0  0  0  0  0  0  0  0  0  0  0  0
    9.6555   15.5938   21.5596 C   0  0  0  0  0  0  0  0  0  0  0  0
    8.7123   15.5114   22.7685 C   0  0  0  0  0  0  0  0  0  0  0  0
    9.0313   12.4519   25.1629 C   0  0  0  0  0  0  0  0  0  0  0  0
   10.1534   12.2294   25.6579 O   0  0  0  0  0  0  0  0  0  0  0  0
    7.8496   11.7699   25.8564 C   0  0  0  0  0  0  0  0  0  0  0  0
    6.7778   12.6980   26.4071 C   0  0  0  0  0  0  0  0  0  0  0  0
    8.2842    9.5806   24.5958 C   0  0  0  0  0  0  0  0  0  0  0  0
    7.2553   10.5901   25.0761 C   0  0  0  0  0  0  0  0  0  0  0  0
 14 15  1  0  0  0
 15 12  1  0  0  0
 12 13  1  0  0  0
 12 10  1  0  0  0
 10 11  2  0  0  0
 10  1  1  0  0  0
  1  2  1  0  0  0
  1  3  1  0  0  0
  1  4  1  0  0  0
  4  5  1  0  0  0
  5  6  1  0  0  0
  6  7  1  0  0  0
  7  8  1  0  0  0
  8  9  1  0  0  0
  9  4  1  0  0  0
M  END
> <minimizedAffinity>
-5.13574

> <minimizedRMSD>
1.06689

$$$$
C7634-P305


 13 13  0  0  0  0  0  0  0  0999 V2000
    9.7574   12.9917   22.7395 N   0  0  0  0  0  0  0  0  0  0  0  0
   10.1446   12.3783   22.0224 H   0  0  0  0  0  0  0  0  0  0  0  0
    9.6888   12.2272   24.0253 C   0  0  0  0  0  0  0  0  0  0  0  0
    8.3789   12.4661   24.7990 C   0  0  0  0  0  0  0  0  0  0  0  0
    7.9742   11.1034   25.2598 C   0  0  0  0  0  0  0  0  0  0  0  0
    8.6957   10.1463   24.6739 C   0  0  0  0  0  0  0  0  0  0  0  0
    9.7246   10.7113   23.7568 C   0  0  0  0  0  0  0  0  0  0  0  0
   10.7159   14.3957   22.8164 S   0  0  0  0  0  0  0  0  0  0  0  0
   10.1207   15.2339   23.8303 O   0  0  0  0  0  0  0  0  0  0  0  0
   12.0872   13.9505   22.9251 O   0  0  0  0  0  0  0  0  0  0  0  0
   10.4304   15.1517   21.2197 C   0  0  0  0  0  0  0  0  0  0  0  0
   11.5193   15.3736   18.9681 C   0  0  0  0  0  0  0  0  0  0  0  0
   11.7191   15.4527   20.4718 C   0  0  0  0  0  0  0  0  0  0  0  0
 12 13  1  0  0  0
 13 11  1  0  0  0
 11  8  1  0  0  0
  8  9  2  0  0  0
  8 10  2  0  0  0
  8  1  1  0  0  0
  1  3  1  0  0  0
  3  4  1  0  0  0
  4  5  1  0  0  0
  5  6  2  0  0  0
  6  7  1  0  0  0
  7  3  1  0  0  0
  1  2  1  0  0  0
M  END
> <minimizedAffinity>
-4.50914

> <minimizedRMSD>
0.83938

$$$$
C9121-P248


 11 11  0  0  0  0  0  0  0  0999 V2000
   10.2056   14.7622   22.8240 N   0  0  0  0  0  0  0  0  0  0  0  0
    9.5395   15.3321   21.6796 C   0  0  0  0  0  0  0  0  0  0  0  0
   10.6288   15.3695   20.6294 C   0  0  0  0  0  0  0  0  0  0  0  0
   11.8912   15.5957   21.4438 C   0  0  0  0  0  0  0  0  0  0  0  0
   11.5763   14.9402   22.7622 C   0  0  0  0  0  0  0  0  0  0  0  0
   12.3830   14.6929   23.6451 O   0  0  0  0  0  0  0  0  0  0  0  0
    9.5010   14.3663   24.0225 C   0  0  0  0  0  0  0  0  0  0  0  0
    9.2858   12.8585   24.0598 C   0  0  0  0  0  0  0  0  0  0  0  0
   10.1844   12.0606   23.7946 O   0  0  0  0  0  0  0  0  0  0  0  0
    7.8097   10.9211   24.7742 C   0  0  0  0  0  0  0  0  0  0  0  0
    7.9102   12.4074   24.5037 C   0  0  0  0  0  0  0  0  0  0  0  0
 10 11  1  0  0  0
 11  8  1  0  0  0
  8  9  2  0  0  0
  8  7  1  0  0  0
  7  1  1  0  0  0
  1  2  1  0  0  0
  2  3  1  0  0  0
  3  4  1  0  0  0
  4  5  1  0  0  0
  5  6  2  0  0  0
  5  1  1  0  0  0
M  END
> <minimizedAffinity>
-4.73401

> <minimizedRMSD>
0.78729

$$$$
C9144-P248


 13 13  0  0  0  0  0  0  0  0999 V2000
    9.6384   14.5419   23.9957 C   0  0  0  0  0  0  0  0  0  0  0  0
   12.4839   14.9594   23.4560 O   0  0  0  0  0  0  0  0  0  0  0  0
   11.6311   15.0800   22.5892 C   0  0  0  0  0  0  0  0  0  0  0  0
   11.8664   15.6252   21.2043 C   0  0  0  0  0  0  0  0  0  0  0  0
   10.5481   15.3748   20.4913 C   0  0  0  0  0  0  0  0  0  0  0  0
    9.5419   15.4030   21.6188 C   0  0  0  0  0  0  0  0  0  0  0  0
   10.2704   14.8261   22.7212 N   0  0  0  0  0  0  0  0  0  0  0  0
    9.5840   13.0480   24.2738 C   0  0  0  0  0  0  0  0  0  0  0  0
   10.5683   12.3109   24.1685 O   0  0  0  0  0  0  0  0  0  0  0  0
    8.2379   12.5445   24.7392 C   0  0  0  0  0  0  0  0  0  0  0  0
    7.2762   12.6967   23.7958 F   0  0  0  0  0  0  0  0  0  0  0  0
    7.8159   13.1908   25.8566 F   0  0  0  0  0  0  0  0  0  0  0  0
    8.2430   11.2250   25.0582 F   0  0  0  0  0  0  0  0  0  0  0  0
  2  3  2  0  0  0
  3  4  1  0  0  0
  4  5  1  0  0  0
  5  6  1  0  0  0
  6  7  1  0  0  0
  7  1  1  0  0  0
  1  8  1  0  0  0
  8  9  2  0  0  0
  8 10  1  0  0  0
 10 11  1  0  0  0
 10 12  1  0  0  0
 10 13  1  0  0  0
  7  3  1  0  0  0
M  END
> <minimizedAffinity>
-4.90856

> <minimizedRMSD>
0.89303

$$$$
C13911-P248


 16 17  0  0  0  0  0  0  0  0999 V2000
    9.1670   13.1378   23.0558 C   0  0  0  0  0  0  0  0  0  0  0  0
    6.1627   11.1423   26.4170 C   0  0  0  0  0  0  0  0  0  0  0  0
    7.3109   11.2585   25.5575 N   0  0  0  0  0  0  0  0  0  0  0  0
    7.6797   12.5322   25.0217 C   0  0  0  0  0  0  0  0  0  0  0  0
    8.9547   12.2361   24.2511 C   0  0  0  0  0  0  0  0  0  0  0  0
    8.8212   10.7780   23.8272 C   0  0  0  0  0  0  0  0  0  0  0  0
    7.7602   10.2390   24.7354 C   0  0  0  0  0  0  0  0  0  0  0  0
    7.3559    9.0929   24.7015 O   0  0  0  0  0  0  0  0  0  0  0  0
    8.9842   14.6037   23.4178 C   0  0  0  0  0  0  0  0  0  0  0  0
    8.9379   15.3934   22.2157 N   0  0  0  0  0  0  0  0  0  0  0  0
    8.1971   16.0256   22.0715 H   0  0  0  0  0  0  0  0  0  0  0  0
    9.9051   15.2694   21.2881 C   0  0  0  0  0  0  0  0  0  0  0  0
    9.6198   15.2537   20.0115 N   0  0  0  0  0  0  0  0  0  0  0  0
   10.7818   15.1850   19.2886 C   0  0  0  0  0  0  0  0  0  0  0  0
   11.9358   15.2450   20.0306 C   0  0  0  0  0  0  0  0  0  0  0  0
   11.5784   15.1486   21.6842 S   0  0  0  0  0  0  0  0  0  0  0  0
  2  3  1  0  0  0
  3  4  1  0  0  0
  4  5  1  0  0  0
  5  1  1  0  0  0
  1  9  1  0  0  0
  9 10  1  0  0  0
 10 12  1  0  0  0
 12 13  2  0  0  0
 13 14  1  0  0  0
 14 15  2  0  0  0
 15 16  1  0  0  0
  5  6  1  0  0  0
  6  7  1  0  0  0
  7  8  2  0  0  0
  7  3  1  0  0  0
 16 12  1  0  0  0
 10 11  1  0  0  0
M  END
> <minimizedAffinity>
-5.41281

> <minimizedRMSD>
0.92142

$$$$
C11236-P200


 23 24  0  0  0  0  0  0  0  0999 V2000
    7.1247   14.8063   22.6694 S   0  0  0  0  0  0  0  0  0  0  0  0
    6.7661   13.4780   22.1942 O   0  0  0  0  0  0  0  0  0  0  0  0
    8.0141   15.5369   21.7889 O   0  0  0  0  0  0  0  0  0  0  0  0
    7.3155   14.9394   24.1891 N   0  0  0  0  0  0  0  0  0  0  0  0
    8.7070   14.5173   24.6721 S   0  0  0  0  0  0  0  0  0  0  0  0
    8.7783   15.0153   26.3916 C   0  0  0  0  0  0  0  0  0  0  0  0
    9.9610   14.9022   24.0608 O   0  0  0  0  0  0  0  0  0  0  0  0
    8.9180   12.7947   24.8156 C   0  0  0  0  0  0  0  0  0  0  0  0
    9.6058   12.2547   23.5746 C   0  0  0  0  0  0  0  0  0  0  0  0
    9.8506   10.7816   23.6292 C   0  0  0  0  0  0  0  0  0  0  0  0
    8.7946    9.9789   24.3167 C   0  0  0  0  0  0  0  0  0  0  0  0
    7.9398   10.6401   25.3845 C   0  0  0  0  0  0  0  0  0  0  0  0
    7.6388   12.0856   25.1442 C   0  0  0  0  0  0  0  0  0  0  0  0
    5.7033   15.6517   22.5193 N   0  0  0  0  0  0  0  0  0  0  0  0
    5.8582   16.5728   22.9292 H   0  0  0  0  0  0  0  0  0  0  0  0
    4.5040   15.1147   23.1227 C   0  0  0  0  0  0  0  0  0  0  0  0
    2.6119   14.2424   20.2100 C   0  0  0  0  0  0  0  0  0  0  0  0
    3.6154   14.9369   20.7233 N   0  0  0  0  0  0  0  0  0  0  0  0
    3.5118   14.6863   22.0864 C   0  0  0  0  0  0  0  0  0  0  0  0
    2.3483   13.9873   22.3142 C   0  0  0  0  0  0  0  0  0  0  0  0
    1.7602   13.7099   21.1321 O   0  0  0  0  0  0  0  0  0  0  0  0
    3.3951   13.0113   18.2161 C   0  0  0  0  0  0  0  0  0  0  0  0
    2.2988   13.8737   18.8147 C   0  0  0  0  0  0  0  0  0  0  0  0
 22 23  1  0  0  0
 23 17  1  0  0  0
 17 18  2  0  0  0
 18 19  1  0  0  0
 19 16  1  0  0  0
 16 14  1  0  0  0
 14  1  1  0  0  0
  1  2  2  0  0  0
  1  3  2  0  0  0
  1  4  1  0  0  0
  4  5  2  0  0  0
  5  6  1  0  0  0
  5  7  2  0  0  0
  5  8  1  0  0  0
  8  9  1  0  0  0
  9 10  1  0  0  0
 10 11  1  0  0  0
 11 12  1  0  0  0
 12 13  1  0  0  0
 19 20  2  0  0  0
 20 21  1  0  0  0
 21 17  1  0  0  0
 13  8  1  0  0  0
 14 15  1  0  0  0
M  END
> <minimizedAffinity>
-4.78754

> <minimizedRMSD>
0.52238

$$$$
C15025-P224


 13 13  0  0  0  0  0  0  0  0999 V2000
   10.3842   13.1890   24.0046 S   0  0  0  0  0  0  0  0  0  0  0  0
    9.8322   14.4293   24.5031 O   0  0  0  0  0  0  0  0  0  0  0  0
   11.7012   12.7398   24.3882 O   0  0  0  0  0  0  0  0  0  0  0  0
    9.2674   11.9047   24.4307 C   0  0  0  0  0  0  0  0  0  0  0  0
    8.2768   12.1160   25.3884 C   0  0  0  0  0  0  0  0  0  0  0  0
    7.4664   11.0532   25.7674 C   0  0  0  0  0  0  0  0  0  0  0  0
    7.6825    9.8235   25.1724 C   0  0  0  0  0  0  0  0  0  0  0  0
    8.6425    9.5931   24.2472 N   0  0  0  0  0  0  0  0  0  0  0  0
    9.4242   10.6437   23.8892 C   0  0  0  0  0  0  0  0  0  0  0  0
   10.2661   13.2735   22.3212 N   0  0  0  0  0  0  0  0  0  0  0  0
   11.1600   13.6072   21.9607 H   0  0  0  0  0  0  0  0  0  0  0  0
    9.6644   15.1603   20.7449 C   0  0  0  0  0  0  0  0  0  0  0  0
    9.1921   14.1709   21.7905 C   0  0  0  0  0  0  0  0  0  0  0  0
 12 13  1  0  0  0
 13 10  1  0  0  0
 10  1  1  0  0  0
  1  2  2  0  0  0
  1  3  2  0  0  0
  1  4  1  0  0  0
  4  5  2  0  0  0
  5  6  1  0  0  0
  6  7  2  0  0  0
  7  8  1  0  0  0
  8  9  2  0  0  0
  9  4  1  0  0  0
 10 11  1  0  0  0
M  END
> <minimizedAffinity>
-4.70014

> <minimizedRMSD>
1.77118

$$$$
C15027-P224


 14 14  0  0  0  0  0  0  0  0999 V2000
    9.6002   13.2981   23.9695 C   0  0  0  0  0  0  0  0  0  0  0  0
    9.2367   14.2563   24.9643 O   0  0  0  0  0  0  0  0  0  0  0  0
    8.2708   14.3398   24.9951 H   0  0  0  0  0  0  0  0  0  0  0  0
    9.0672   11.9216   24.3186 C   0  0  0  0  0  0  0  0  0  0  0  0
    8.0378   11.7238   25.2471 C   0  0  0  0  0  0  0  0  0  0  0  0
    7.5770   10.4375   25.4740 C   0  0  0  0  0  0  0  0  0  0  0  0
    8.0841    9.3453   24.8684 N   0  0  0  0  0  0  0  0  0  0  0  0
    9.0913    9.5509   23.9918 C   0  0  0  0  0  0  0  0  0  0  0  0
    9.6068   10.7957   23.6881 C   0  0  0  0  0  0  0  0  0  0  0  0
    9.0700   13.8181   22.6262 C   0  0  0  0  0  0  0  0  0  0  0  0
    7.9055   13.6005   22.2682 O   0  0  0  0  0  0  0  0  0  0  0  0
    9.9618   14.7465   21.8190 C   0  0  0  0  0  0  0  0  0  0  0  0
   12.2349   15.7363   22.0896 C   0  0  0  0  0  0  0  0  0  0  0  0
   11.4028   14.6966   22.2264 C   0  0  0  0  0  0  0  0  0  0  0  0
 13 14  2  0  0  0
 14 12  1  0  0  0
 12 10  1  0  0  0
 10 11  2  0  0  0
 10  1  1  0  0  0
  1  2  1  0  0  0
  1  4  1  0  0  0
  4  5  2  0  0  0
  5  6  1  0  0  0
  6  7  2  0  0  0
  7  8  1  0  0  0
  8  9  2  0  0  0
  9  4  1  0  0  0
  2  3  1  0  0  0
M  END
> <minimizedAffinity>
-4.99887

> <minimizedRMSD>
1.16055

$$$$
C15036-P224


 15 15  0  0  0  0  0  0  0  0999 V2000
    9.6500   12.9578   24.4406 S   0  0  0  0  0  0  0  0  0  0  0  0
   10.9355   12.3057   24.5061 O   0  0  0  0  0  0  0  0  0  0  0  0
    9.4153   14.2310   25.0832 O   0  0  0  0  0  0  0  0  0  0  0  0
    8.4613   11.8227   25.0378 C   0  0  0  0  0  0  0  0  0  0  0  0
    7.5080   12.2232   25.9721 C   0  0  0  0  0  0  0  0  0  0  0  0
    6.6437   11.2742   26.5023 C   0  0  0  0  0  0  0  0  0  0  0  0
    6.7705    9.9655   26.0741 C   0  0  0  0  0  0  0  0  0  0  0  0
    7.6935    9.5534   25.1744 N   0  0  0  0  0  0  0  0  0  0  0  0
    8.5315   10.4933   24.6704 C   0  0  0  0  0  0  0  0  0  0  0  0
    9.2373   13.1809   22.8176 N   0  0  0  0  0  0  0  0  0  0  0  0
    9.5187   12.3472   22.3016 H   0  0  0  0  0  0  0  0  0  0  0  0
    9.8747   14.3753   22.1595 C   0  0  0  0  0  0  0  0  0  0  0  0
   11.3870   14.2951   21.9610 C   0  0  0  0  0  0  0  0  0  0  0  0
   12.2909   16.7498   21.8083 N   0  0  0  0  0  0  0  0  0  0  0  0
   11.9255   15.6520   21.8587 C   0  0  0  0  0  0  0  0  0  0  0  0
 14 15  3  0  0  0
 15 13  1  0  0  0
 13 12  1  0  0  0
 12 10  1  0  0  0
 10  1  1  0  0  0
  1  2  2  0  0  0
  1  3  2  0  0  0
  1  4  1  0  0  0
  4  5  2  0  0  0
  5  6  1  0  0  0
  6  7  2  0  0  0
  7  8  1  0  0  0
  8  9  2  0  0  0
  9  4  1  0  0  0
 10 11  1  0  0  0
M  END
> <minimizedAffinity>
-4.68565

> <minimizedRMSD>
0.77025

$$$$
C15045-P224


 16 16  0  0  0  0  0  0  0  0999 V2000
    9.9197   13.2011   24.4903 C   0  0  0  0  0  0  0  0  0  0  0  0
    9.6405   14.0266   25.6179 O   0  0  0  0  0  0  0  0  0  0  0  0
    8.6883   14.2070   25.6588 H   0  0  0  0  0  0  0  0  0  0  0  0
    9.2534   11.8514   24.6095 C   0  0  0  0  0  0  0  0  0  0  0  0
    8.1472   11.6250   25.4348 C   0  0  0  0  0  0  0  0  0  0  0  0
    7.5653   10.3706   25.4338 C   0  0  0  0  0  0  0  0  0  0  0  0
    8.0220    9.3390   24.6958 N   0  0  0  0  0  0  0  0  0  0  0  0
    9.1090    9.5700   23.9285 C   0  0  0  0  0  0  0  0  0  0  0  0
    9.7479   10.7863   23.8516 C   0  0  0  0  0  0  0  0  0  0  0  0
    9.4782   13.9649   23.2415 C   0  0  0  0  0  0  0  0  0  0  0  0
    8.5042   13.6115   22.5678 O   0  0  0  0  0  0  0  0  0  0  0  0
   10.1797   15.2578   22.9337 C   0  0  0  0  0  0  0  0  0  0  0  0
   11.6881   15.1344   22.7268 C   0  0  0  0  0  0  0  0  0  0  0  0
   12.1305   15.9238   21.4943 C   0  0  0  0  0  0  0  0  0  0  0  0
   10.9506   15.4738   19.3363 C   0  0  0  0  0  0  0  0  0  0  0  0
   11.8886   15.1522   20.2356 C   0  0  0  0  0  0  0  0  0  0  0  0
 15 16  2  0  0  0
 16 14  1  0  0  0
 14 13  1  0  0  0
 13 12  1  0  0  0
 12 10  1  0  0  0
 10 11  2  0  0  0
 10  1  1  0  0  0
  1  2  1  0  0  0
  1  4  1  0  0  0
  4  5  2  0  0  0
  5  6  1  0  0  0
  6  7  2  0  0  0
  7  8  1  0  0  0
  8  9  2  0  0  0
  9  4  1  0  0  0
  2  3  1  0  0  0
M  END
> <minimizedAffinity>
-5.58534

> <minimizedRMSD>
1.29531

$$$$
C15048-P224


 17 17  0  0  0  0  0  0  0  0999 V2000
    8.2476   13.5795   25.1222 C   0  0  0  0  0  0  0  0  0  0  0  0
    8.2456   12.0629   25.0313 C   0  0  0  0  0  0  0  0  0  0  0  0
    7.3249   11.2479   25.7021 C   0  0  0  0  0  0  0  0  0  0  0  0
    7.3735    9.8731   25.5125 C   0  0  0  0  0  0  0  0  0  0  0  0
    8.2547    9.2581   24.7003 N   0  0  0  0  0  0  0  0  0  0  0  0
    9.1149   10.0534   24.0299 C   0  0  0  0  0  0  0  0  0  0  0  0
    9.1578   11.4317   24.1742 C   0  0  0  0  0  0  0  0  0  0  0  0
    8.9207   15.3896   26.8869 C   0  0  0  0  0  0  0  0  0  0  0  0
    8.1078   14.1525   26.5648 C   0  0  0  0  0  0  0  0  0  0  0  0
    7.1124   14.1892   24.3906 N   0  0  0  0  0  0  0  0  0  0  0  0
    6.7819   14.9734   24.9529 H   0  0  0  0  0  0  0  0  0  0  0  0
    7.3602   14.7689   22.8386 S   0  0  0  0  0  0  0  0  0  0  0  0
    8.6364   15.4377   22.8523 O   0  0  0  0  0  0  0  0  0  0  0  0
    7.0291   13.7681   21.8597 O   0  0  0  0  0  0  0  0  0  0  0  0
    6.1411   15.9207   22.8542 N   0  0  0  0  0  0  0  0  0  0  0  0
    4.8273   15.5182   22.3281 C   0  0  0  0  0  0  0  0  0  0  0  0
    6.0462   16.6935   24.0926 C   0  0  0  0  0  0  0  0  0  0  0  0
  8  9  1  0  0  0
  1  9  1  0  0  0
  1 10  1  0  0  0
 10 12  1  0  0  0
 12 13  2  0  0  0
 12 14  2  0  0  0
 12 15  1  0  0  0
 15 16  1  0  0  0
 15 17  1  0  0  0
  1  2  1  0  0  0
  2  3  2  0  0  0
  3  4  1  0  0  0
  4  5  2  0  0  0
  5  6  1  0  0  0
  6  7  2  0  0  0
  7  2  1  0  0  0
 10 11  1  0  0  0
M  END
> <minimizedAffinity>
-4.65062

> <minimizedRMSD>
1.07487

$$$$
C15051-P224


 15 15  0  0  0  0  0  0  0  0999 V2000
    9.7515   14.3266   25.2027 C   0  0  0  0  0  0  0  0  0  0  0  0
    9.5040   13.0695   24.3573 C   0  0  0  0  0  0  0  0  0  0  0  0
   10.7714   12.4180   24.2118 O   0  0  0  0  0  0  0  0  0  0  0  0
   11.4053   13.0306   23.8071 H   0  0  0  0  0  0  0  0  0  0  0  0
    8.5716   12.0446   24.9963 C   0  0  0  0  0  0  0  0  0  0  0  0
    7.6480   12.3756   25.9897 C   0  0  0  0  0  0  0  0  0  0  0  0
    6.8090   11.3910   26.4992 C   0  0  0  0  0  0  0  0  0  0  0  0
    6.9048   10.1007   26.0066 C   0  0  0  0  0  0  0  0  0  0  0  0
    7.8566    9.8371   25.0376 C   0  0  0  0  0  0  0  0  0  0  0  0
    8.6937   10.7687   24.5410 N   0  0  0  0  0  0  0  0  0  0  0  0
    8.8531   13.5692   23.0476 C   0  0  0  0  0  0  0  0  0  0  0  0
    7.6756   13.3104   22.7611 O   0  0  0  0  0  0  0  0  0  0  0  0
    9.7158   14.4376   22.1609 C   0  0  0  0  0  0  0  0  0  0  0  0
    9.5477   15.7722   22.4222 F   0  0  0  0  0  0  0  0  0  0  0  0
    9.3964   14.2861   20.8465 F   0  0  0  0  0  0  0  0  0  0  0  0
  2  1  1  0  0  0
  2  3  1  0  0  0
  2 11  1  0  0  0
 11 12  2  0  0  0
 11 13  1  0  0  0
 13 14  1  0  0  0
 13 15  1  0  0  0
  2  5  1  0  0  0
  5  6  2  0  0  0
  6  7  1  0  0  0
  7  8  2  0  0  0
  8  9  1  0  0  0
  9 10  2  0  0  0
 10  5  1  0  0  0
  3  4  1  0  0  0
M  END
> <minimizedAffinity>
-4.91324

> <minimizedRMSD>
0.99919

$$$$
C15056-P224


 15 15  0  0  0  0  0  0  0  0999 V2000
    9.2916   12.8552   24.6376 C   0  0  0  0  0  0  0  0  0  0  0  0
    9.7692   13.7004   25.6869 O   0  0  0  0  0  0  0  0  0  0  0  0
    9.0255   14.1908   26.0708 H   0  0  0  0  0  0  0  0  0  0  0  0
    8.3242   11.8400   25.2117 C   0  0  0  0  0  0  0  0  0  0  0  0
    7.3234   12.1798   26.1339 C   0  0  0  0  0  0  0  0  0  0  0  0
    6.4411   11.2150   26.6065 C   0  0  0  0  0  0  0  0  0  0  0  0
    6.5857    9.9230   26.1491 C   0  0  0  0  0  0  0  0  0  0  0  0
    7.5429    9.5420   25.2793 N   0  0  0  0  0  0  0  0  0  0  0  0
    8.3751   10.5058   24.8138 C   0  0  0  0  0  0  0  0  0  0  0  0
    8.6925   13.7058   23.5125 C   0  0  0  0  0  0  0  0  0  0  0  0
    7.8728   13.2640   22.7045 O   0  0  0  0  0  0  0  0  0  0  0  0
    9.0933   15.1497   23.4458 C   0  0  0  0  0  0  0  0  0  0  0  0
   12.4790   16.1287   21.5544 C   0  0  0  0  0  0  0  0  0  0  0  0
   11.4806   15.7095   22.5212 C   0  0  0  0  0  0  0  0  0  0  0  0
   10.4872   15.3936   23.1090 C   0  0  0  0  0  0  0  0  0  0  0  0
 13 14  1  0  0  0
 14 15  3  0  0  0
 15 12  1  0  0  0
 12 10  1  0  0  0
 10 11  2  0  0  0
 10  1  1  0  0  0
  1  2  1  0  0  0
  1  4  1  0  0  0
  4  5  2  0  0  0
  5  6  1  0  0  0
  6  7  2  0  0  0
  7  8  1  0  0  0
  8  9  2  0  0  0
  9  4  1  0  0  0
  2  3  1  0  0  0
M  END
> <minimizedAffinity>
-5.33126

> <minimizedRMSD>
0.52464

$$$$
C15065-P224


 14 14  0  0  0  0  0  0  0  0999 V2000
    9.2936   12.7809   24.4937 C   0  0  0  0  0  0  0  0  0  0  0  0
   10.0476   13.4056   25.2392 O   0  0  0  0  0  0  0  0  0  0  0  0
    8.4000   11.7649   25.1029 C   0  0  0  0  0  0  0  0  0  0  0  0
    7.4741   12.1882   26.0619 C   0  0  0  0  0  0  0  0  0  0  0  0
    6.5660   11.2821   26.5973 C   0  0  0  0  0  0  0  0  0  0  0  0
    6.6267    9.9708   26.1678 C   0  0  0  0  0  0  0  0  0  0  0  0
    7.5341    9.5151   25.2761 N   0  0  0  0  0  0  0  0  0  0  0  0
    8.3969   10.4239   24.7502 C   0  0  0  0  0  0  0  0  0  0  0  0
    9.1154   13.1169   23.0163 C   0  0  0  0  0  0  0  0  0  0  0  0
    7.6992   13.2057   22.7927 O   0  0  0  0  0  0  0  0  0  0  0  0
    7.3260   13.9015   23.3562 H   0  0  0  0  0  0  0  0  0  0  0  0
    9.7950   14.4294   22.6236 C   0  0  0  0  0  0  0  0  0  0  0  0
   11.9538   15.3360   22.5251 C   0  0  0  0  0  0  0  0  0  0  0  0
   11.1531   14.1917   22.2431 O   0  0  0  0  0  0  0  0  0  0  0  0
 13 14  1  0  0  0
 14 12  1  0  0  0
 12  9  1  0  0  0
  9 10  1  0  0  0
  9  1  1  0  0  0
  1  2  2  0  0  0
  1  3  1  0  0  0
  3  4  2  0  0  0
  4  5  1  0  0  0
  5  6  2  0  0  0
  6  7  1  0  0  0
  7  8  2  0  0  0
  8  3  1  0  0  0
 10 11  1  0  0  0
M  END
> <minimizedAffinity>
-4.87263

> <minimizedRMSD>
0.74902

$$$$
C15066-P224


 16 16  0  0  0  0  0  0  0  0999 V2000
    9.2689   12.9185   24.4297 C   0  0  0  0  0  0  0  0  0  0  0  0
    9.4879   13.9954   25.3433 O   0  0  0  0  0  0  0  0  0  0  0  0
    8.6524   14.4633   25.4978 H   0  0  0  0  0  0  0  0  0  0  0  0
    8.3440   11.8848   25.0370 C   0  0  0  0  0  0  0  0  0  0  0  0
    7.3932   12.2128   26.0120 C   0  0  0  0  0  0  0  0  0  0  0  0
    6.5760   11.2297   26.5575 C   0  0  0  0  0  0  0  0  0  0  0  0
    6.7478    9.9293   26.1308 C   0  0  0  0  0  0  0  0  0  0  0  0
    7.6777    9.5557   25.2291 N   0  0  0  0  0  0  0  0  0  0  0  0
    8.4420   10.5379   24.6924 C   0  0  0  0  0  0  0  0  0  0  0  0
    8.7998   13.5358   23.1077 C   0  0  0  0  0  0  0  0  0  0  0  0
    7.6872   13.2824   22.6419 O   0  0  0  0  0  0  0  0  0  0  0  0
    9.7199   14.5775   22.4496 C   0  0  0  0  0  0  0  0  0  0  0  0
    9.2444   14.8618   21.0232 C   0  0  0  0  0  0  0  0  0  0  0  0
   11.1926   14.1516   22.5079 C   0  0  0  0  0  0  0  0  0  0  0  0
   12.5292   16.1951   21.7140 C   0  0  0  0  0  0  0  0  0  0  0  0
   12.1555   15.2845   22.8724 C   0  0  0  0  0  0  0  0  0  0  0  0
 15 16  1  0  0  0
 16 14  1  0  0  0
 14 12  1  0  0  0
 12 13  1  0  0  0
 12 10  1  0  0  0
 10 11  2  0  0  0
 10  1  1  0  0  0
  1  2  1  0  0  0
  1  4  1  0  0  0
  4  5  2  0  0  0
  5  6  1  0  0  0
  6  7  2  0  0  0
  7  8  1  0  0  0
  8  9  2  0  0  0
  9  4  1  0  0  0
  2  3  1  0  0  0
M  END
> <minimizedAffinity>
-5.65910

> <minimizedRMSD>
0.68536

$$$$
C15067-P224


 16 16  0  0  0  0  0  0  0  0999 V2000
    9.4886   12.4869   24.5637 C   0  0  0  0  0  0  0  0  0  0  0  0
    9.8073   13.6029   25.4023 O   0  0  0  0  0  0  0  0  0  0  0  0
    9.0345   14.1847   25.4738 H   0  0  0  0  0  0  0  0  0  0  0  0
    8.3953   11.6447   25.1880 C   0  0  0  0  0  0  0  0  0  0  0  0
    7.4926   12.1610   26.1263 C   0  0  0  0  0  0  0  0  0  0  0  0
    6.4955   11.3535   26.6610 C   0  0  0  0  0  0  0  0  0  0  0  0
    6.4411   10.0344   26.2611 C   0  0  0  0  0  0  0  0  0  0  0  0
    7.3146    9.4791   25.3973 N   0  0  0  0  0  0  0  0  0  0  0  0
    8.2614   10.2938   24.8720 C   0  0  0  0  0  0  0  0  0  0  0  0
    9.1378   13.0648   23.2041 C   0  0  0  0  0  0  0  0  0  0  0  0
    7.9700   13.1581   22.8116 O   0  0  0  0  0  0  0  0  0  0  0  0
   10.2413   13.7379   22.4136 C   0  0  0  0  0  0  0  0  0  0  0  0
   11.5085   13.8512   23.0282 O   0  0  0  0  0  0  0  0  0  0  0  0
   11.9455   15.2172   23.1026 C   0  0  0  0  0  0  0  0  0  0  0  0
   11.0860   16.5412   21.0698 C   0  0  0  0  0  0  0  0  0  0  0  0
   12.2708   15.8670   21.7534 C   0  0  0  0  0  0  0  0  0  0  0  0
 15 16  1  0  0  0
 16 14  1  0  0  0
 14 13  1  0  0  0
 13 12  1  0  0  0
 12 10  1  0  0  0
 10 11  2  0  0  0
 10  1  1  0  0  0
  1  2  1  0  0  0
  1  4  1  0  0  0
  4  5  2  0  0  0
  5  6  1  0  0  0
  6  7  2  0  0  0
  7  8  1  0  0  0
  8  9  2  0  0  0
  9  4  1  0  0  0
  2  3  1  0  0  0
M  END
> <minimizedAffinity>
-5.26038

> <minimizedRMSD>
0.72620

$$$$
C8137-P224


 20 20  0  0  0  0  0  0  0  0999 V2000
    7.3294   14.0291   24.2004 N   0  0  0  0  0  0  0  0  0  0  0  0
    6.7904   13.1817   24.0221 H   0  0  0  0  0  0  0  0  0  0  0  0
    7.4838   14.7630   22.7188 S   0  0  0  0  0  0  0  0  0  0  0  0
    6.8669   13.8500   21.7830 O   0  0  0  0  0  0  0  0  0  0  0  0
    6.9695   16.1019   22.8466 O   0  0  0  0  0  0  0  0  0  0  0  0
    9.1253   14.7855   22.3613 N   0  0  0  0  0  0  0  0  0  0  0  0
    9.3869   14.5771   20.9145 C   0  0  0  0  0  0  0  0  0  0  0  0
    9.9495   15.8882   22.8669 C   0  0  0  0  0  0  0  0  0  0  0  0
   10.9714   15.3668   23.9081 C   0  0  0  0  0  0  0  0  0  0  0  0
   12.3246   13.3831   24.6658 C   0  0  0  0  0  0  0  0  0  0  0  0
   11.7806   14.1505   23.4782 C   0  0  0  0  0  0  0  0  0  0  0  0
    8.4224   13.6078   25.0799 C   0  0  0  0  0  0  0  0  0  0  0  0
    8.1742   14.2801   26.4387 C   0  0  0  0  0  0  0  0  0  0  0  0
    8.6238   12.0794   25.2129 C   0  0  0  0  0  0  0  0  0  0  0  0
    7.3527   11.3611   25.6498 C   0  0  0  0  0  0  0  0  0  0  0  0
    7.4758    9.8551   25.6072 C   0  0  0  0  0  0  0  0  0  0  0  0
    8.0271    9.3292   24.3839 N   0  0  0  0  0  0  0  0  0  0  0  0
    9.3015    9.8939   24.0032 C   0  0  0  0  0  0  0  0  0  0  0  0
    9.2992   11.4128   24.0109 C   0  0  0  0  0  0  0  0  0  0  0  0
    7.3620    9.5105   23.6321 H   0  0  0  0  0  0  0  0  0  0  0  0
 10 11  1  0  0  0
 11  9  1  0  0  0
  9  8  1  0  0  0
  8  6  1  0  0  0
  6  7  1  0  0  0
  6  3  1  0  0  0
  3  4  2  0  0  0
  3  5  2  0  0  0
  3  1  1  0  0  0
  1 12  1  0  0  0
 12 13  1  0  0  0
 12 14  1  0  0  0
 14 15  1  0  0  0
 15 16  1  0  0  0
 16 17  1  0  0  0
 17 18  1  0  0  0
 18 19  1  0  0  0
 19 14  1  0  0  0
  1  2  1  0  0  0
 17 20  1  0  0  0
M  END
> <minimizedAffinity>
-5.11246

> <minimizedRMSD>
0.88131

$$$$
C8141-P224


 16 16  0  0  0  0  0  0  0  0999 V2000
    9.3075   13.6713   24.7729 C   0  0  0  0  0  0  0  0  0  0  0  0
    8.9469   15.0482   25.3438 C   0  0  0  0  0  0  0  0  0  0  0  0
   10.6629   13.3856   25.1685 O   0  0  0  0  0  0  0  0  0  0  0  0
   11.2577   14.0509   24.7884 H   0  0  0  0  0  0  0  0  0  0  0  0
    8.4643   12.5527   25.4348 C   0  0  0  0  0  0  0  0  0  0  0  0
    7.0779   12.9430   25.9487 C   0  0  0  0  0  0  0  0  0  0  0  0
    6.3725   11.7737   26.6438 C   0  0  0  0  0  0  0  0  0  0  0  0
    6.3847   10.5275   25.8843 N   0  0  0  0  0  0  0  0  0  0  0  0
    7.7168   10.1759   25.4270 C   0  0  0  0  0  0  0  0  0  0  0  0
    8.4223   11.2560   24.6347 C   0  0  0  0  0  0  0  0  0  0  0  0
    5.7758   10.6317   25.0726 H   0  0  0  0  0  0  0  0  0  0  0  0
    9.1800   13.7608   23.2235 C   0  0  0  0  0  0  0  0  0  0  0  0
    8.1318   13.5090   22.6234 O   0  0  0  0  0  0  0  0  0  0  0  0
   12.0282   15.7558   21.4251 C   0  0  0  0  0  0  0  0  0  0  0  0
   10.8858   15.4010   22.3149 C   0  0  0  0  0  0  0  0  0  0  0  0
   10.3591   14.1698   22.3945 C   0  0  0  0  0  0  0  0  0  0  0  0
 14 15  1  0  0  0
 15 16  2  0  0  0
 16 12  1  0  0  0
 12 13  2  0  0  0
 12  1  1  0  0  0
  1  2  1  0  0  0
  1  3  1  0  0  0
  1  5  1  0  0  0
  5  6  1  0  0  0
  6  7  1  0  0  0
  7  8  1  0  0  0
  8  9  1  0  0  0
  9 10  1  0  0  0
 10  5  1  0  0  0
  3  4  1  0  0  0
  8 11  1  0  0  0
M  END
> <minimizedAffinity>
-4.64846

> <minimizedRMSD>
0.55533

$$$$
C8155-P224


 17 17  0  0  0  0  0  0  0  0999 V2000
    8.3630   13.8275   23.3152 S   0  0  0  0  0  0  0  0  0  0  0  0
    8.0021   14.6997   24.4057 O   0  0  0  0  0  0  0  0  0  0  0  0
    7.6627   13.7668   22.0567 O   0  0  0  0  0  0  0  0  0  0  0  0
    8.3619   12.2523   23.9002 N   0  0  0  0  0  0  0  0  0  0  0  0
    7.9468   12.1465   25.3030 C   0  0  0  0  0  0  0  0  0  0  0  0
    7.5426   10.7321   25.6395 C   0  0  0  0  0  0  0  0  0  0  0  0
    8.1665    9.6497   24.7756 C   0  0  0  0  0  0  0  0  0  0  0  0
    9.4074    9.9979   24.0073 C   0  0  0  0  0  0  0  0  0  0  0  0
    9.5344   11.4389   23.5686 C   0  0  0  0  0  0  0  0  0  0  0  0
    9.9712   14.0536   22.9751 N   0  0  0  0  0  0  0  0  0  0  0  0
   10.4587   13.1828   23.1857 H   0  0  0  0  0  0  0  0  0  0  0  0
   10.6414   15.1254   23.7029 C   0  0  0  0  0  0  0  0  0  0  0  0
   11.9521   16.0574   21.7690 C   0  0  0  0  0  0  0  0  0  0  0  0
   11.8949   15.4564   22.9674 C   0  0  0  0  0  0  0  0  0  0  0  0
   11.1392   15.1066   18.9863 C   0  0  0  0  0  0  0  0  0  0  0  0
   10.4409   16.1227   19.8222 C   0  0  0  0  0  0  0  0  0  0  0  0
   10.7887   16.5222   21.0516 C   0  0  0  0  0  0  0  0  0  0  0  0
 15 16  1  0  0  0
 16 17  2  0  0  0
 17 13  1  0  0  0
 13 14  2  0  0  0
 14 12  1  0  0  0
 12 10  1  0  0  0
 10  1  1  0  0  0
  1  2  2  0  0  0
  1  3  2  0  0  0
  1  4  1  0  0  0
  4  5  1  0  0  0
  5  6  1  0  0  0
  6  7  1  0  0  0
  7  8  1  0  0  0
  8  9  1  0  0  0
  9  4  1  0  0  0
 10 11  1  0  0  0
M  END
> <minimizedAffinity>
-6.02217

> <minimizedRMSD>
0.53864

$$$$
C8169-P224


 15 15  0  0  0  0  0  0  0  0999 V2000
    9.4032   15.4403   23.8774 O   0  0  0  0  0  0  0  0  0  0  0  0
    9.3814   14.2601   23.0547 S   0  0  0  0  0  0  0  0  0  0  0  0
    8.3860   14.0245   22.0324 O   0  0  0  0  0  0  0  0  0  0  0  0
    9.3427   12.9227   24.1214 N   0  0  0  0  0  0  0  0  0  0  0  0
    9.5284   11.6549   23.3939 C   0  0  0  0  0  0  0  0  0  0  0  0
    9.4206   10.4238   24.2410 C   0  0  0  0  0  0  0  0  0  0  0  0
    8.1112   10.4131   24.9643 C   0  0  0  0  0  0  0  0  0  0  0  0
    7.7422   11.7194   25.6415 C   0  0  0  0  0  0  0  0  0  0  0  0
    8.0478   12.9766   24.8640 C   0  0  0  0  0  0  0  0  0  0  0  0
   10.8297   14.0732   22.3009 N   0  0  0  0  0  0  0  0  0  0  0  0
   10.6406   14.1286   21.3001 H   0  0  0  0  0  0  0  0  0  0  0  0
   11.9453   14.9649   22.5543 C   0  0  0  0  0  0  0  0  0  0  0  0
   12.1924   15.8783   21.3648 C   0  0  0  0  0  0  0  0  0  0  0  0
   11.0838   15.8819   20.3142 C   0  0  0  0  0  0  0  0  0  0  0  0
    9.8620   17.1450   20.6163 Cl  0  0  0  0  0  0  0  0  0  0  0  0
  1  2  2  0  0  0
  2  3  2  0  0  0
  2 10  1  0  0  0
 10 12  1  0  0  0
 12 13  1  0  0  0
 13 14  1  0  0  0
 14 15  1  0  0  0
  2  4  1  0  0  0
  4  5  1  0  0  0
  5  6  1  0  0  0
  6  7  1  0  0  0
  7  8  1  0  0  0
  8  9  1  0  0  0
  9  4  1  0  0  0
 10 11  1  0  0  0
M  END
> <minimizedAffinity>
-4.92182

> <minimizedRMSD>
1.35891

$$$$
C8176-P224


 17 17  0  0  0  0  0  0  0  0999 V2000
    9.0329   15.1654   24.4415 C   0  0  0  0  0  0  0  0  0  0  0  0
    9.7084   14.0371   23.6521 C   0  0  0  0  0  0  0  0  0  0  0  0
   11.0500   13.9308   24.1224 O   0  0  0  0  0  0  0  0  0  0  0  0
   11.5106   14.7723   23.9789 H   0  0  0  0  0  0  0  0  0  0  0  0
    8.9843   12.6645   23.8951 C   0  0  0  0  0  0  0  0  0  0  0  0
    8.4177   12.4761   25.3088 C   0  0  0  0  0  0  0  0  0  0  0  0
    7.8111   11.0973   25.5575 C   0  0  0  0  0  0  0  0  0  0  0  0
    8.2814   10.0142   24.6019 C   0  0  0  0  0  0  0  0  0  0  0  0
    9.6402   10.2142   24.1517 N   0  0  0  0  0  0  0  0  0  0  0  0
    9.8618   11.4759   23.4546 C   0  0  0  0  0  0  0  0  0  0  0  0
    9.8822    9.4523   23.5182 H   0  0  0  0  0  0  0  0  0  0  0  0
    9.6072   14.4129   22.1446 C   0  0  0  0  0  0  0  0  0  0  0  0
    8.5654   14.2065   21.5068 O   0  0  0  0  0  0  0  0  0  0  0  0
   10.7967   15.1336   21.5289 C   0  0  0  0  0  0  0  0  0  0  0  0
   11.1648   16.2516   22.2213 F   0  0  0  0  0  0  0  0  0  0  0  0
   11.8993   14.3580   21.4487 F   0  0  0  0  0  0  0  0  0  0  0  0
   10.2912   15.6243   19.7138 Br  0  0  0  0  0  0  0  0  0  0  0  0
  2  1  1  0  0  0
  2  3  1  0  0  0
  2 12  1  0  0  0
 12 13  2  0  0  0
 12 14  1  0  0  0
 14 15  1  0  0  0
 14 16  1  0  0  0
 14 17  1  0  0  0
  2  5  1  0  0  0
  5  6  1  0  0  0
  6  7  1  0  0  0
  7  8  1  0  0  0
  8  9  1  0  0  0
  9 10  1  0  0  0
 10  5  1  0  0  0
  3  4  1  0  0  0
  9 11  1  0  0  0
M  END
> <minimizedAffinity>
-5.23967

> <minimizedRMSD>
1.98991

$$$$
C1390-P218


 19 19  0  0  0  0  0  0  0  0999 V2000
    9.2486   14.6746   24.0606 N   0  0  0  0  0  0  0  0  0  0  0  0
    9.6030   14.1143   25.4494 C   0  0  0  0  0  0  0  0  0  0  0  0
   10.3466   14.5083   26.2559 O   0  0  0  0  0  0  0  0  0  0  0  0
    8.6393   14.1103   23.5319 H   0  0  0  0  0  0  0  0  0  0  0  0
    8.7546   12.8796   25.7094 C   0  0  0  0  0  0  0  0  0  0  0  0
    7.3637   13.1835   26.2519 C   0  0  0  0  0  0  0  0  0  0  0  0
    6.7304   11.8989   26.7865 C   0  0  0  0  0  0  0  0  0  0  0  0
    6.7693   10.7951   25.8340 N   0  0  0  0  0  0  0  0  0  0  0  0
    8.0467   10.5811   25.1658 C   0  0  0  0  0  0  0  0  0  0  0  0
    8.6817   11.8516   24.6007 C   0  0  0  0  0  0  0  0  0  0  0  0
    6.0668   10.9753   25.1167 H   0  0  0  0  0  0  0  0  0  0  0  0
    9.6699   15.9102   23.3976 C   0  0  0  0  0  0  0  0  0  0  0  0
    8.9084   16.1723   22.0915 C   0  0  0  0  0  0  0  0  0  0  0  0
    8.8667   15.0977   21.2800 F   0  0  0  0  0  0  0  0  0  0  0  0
    9.4509   17.1963   21.4006 F   0  0  0  0  0  0  0  0  0  0  0  0
    7.6210   16.4969   22.3777 F   0  0  0  0  0  0  0  0  0  0  0  0
   11.1976   16.0179   23.2536 C   0  0  0  0  0  0  0  0  0  0  0  0
   12.4920   15.9775   21.0987 C   0  0  0  0  0  0  0  0  0  0  0  0
   11.8261   15.1347   22.1808 C   0  0  0  0  0  0  0  0  0  0  0  0
 18 19  1  0  0  0
 19 17  1  0  0  0
 12 17  1  0  0  0
 12  1  1  0  0  0
  1  2  1  0  0  0
  2  3  2  0  0  0
  2  5  1  0  0  0
  5  6  1  0  0  0
  6  7  1  0  0  0
  7  8  1  0  0  0
  8  9  1  0  0  0
  9 10  1  0  0  0
 12 13  1  0  0  0
 13 14  1  0  0  0
 13 15  1  0  0  0
 13 16  1  0  0  0
 10  5  1  0  0  0
  1  4  1  0  0  0
  8 11  1  0  0  0
M  END
> <minimizedAffinity>
-5.17519

> <minimizedRMSD>
0.74146

$$$$
C4666-P245


 11 11  0  0  0  0  0  0  0  0999 V2000
    9.6362   15.2797   22.7882 N   0  0  0  0  0  0  0  0  0  0  0  0
   10.9153   15.9496   23.1084 C   0  0  0  0  0  0  0  0  0  0  0  0
   12.0631   15.6439   22.1244 C   0  0  0  0  0  0  0  0  0  0  0  0
   11.7282   16.0552   20.7608 N   0  0  0  0  0  0  0  0  0  0  0  0
   10.4920   15.3737   20.3529 C   0  0  0  0  0  0  0  0  0  0  0  0
    9.3241   15.5804   21.3558 C   0  0  0  0  0  0  0  0  0  0  0  0
   12.4864   15.7979   20.1289 H   0  0  0  0  0  0  0  0  0  0  0  0
   10.1798   13.3745   24.3815 C   0  0  0  0  0  0  0  0  0  0  0  0
    9.6054   13.8174   23.0426 C   0  0  0  0  0  0  0  0  0  0  0  0
    8.1439   13.3317   23.0345 C   0  0  0  0  0  0  0  0  0  0  0  0
    7.7619   12.2594   23.5137 O   0  0  0  0  0  0  0  0  0  0  0  0
  9  8  1  0  0  0
  9 10  1  0  0  0
 10 11  2  0  0  0
  9  1  1  0  0  0
  1  2  1  0  0  0
  2  3  1  0  0  0
  3  4  1  0  0  0
  4  5  1  0  0  0
  5  6  1  0  0  0
  6  1  1  0  0  0
  4  7  1  0  0  0
M  END
> <minimizedAffinity>
-4.20021

> <minimizedRMSD>
0.78498

$$$$
C1405-P195


 20 20  0  0  0  0  0  0  0  0999 V2000
    7.2601   12.3978   25.0934 N   0  0  0  0  0  0  0  0  0  0  0  0
    6.8666   11.0873   25.8182 C   0  0  0  0  0  0  0  0  0  0  0  0
    6.9982    9.9769   25.4935 O   0  0  0  0  0  0  0  0  0  0  0  0
    7.1102   13.2188   25.6155 H   0  0  0  0  0  0  0  0  0  0  0  0
    7.8239   12.6157   23.7462 C   0  0  0  0  0  0  0  0  0  0  0  0
    9.3287   12.2849   23.6634 C   0  0  0  0  0  0  0  0  0  0  0  0
    9.6159   10.9830   23.8213 F   0  0  0  0  0  0  0  0  0  0  0  0
    9.8893   12.7037   22.5112 F   0  0  0  0  0  0  0  0  0  0  0  0
    9.9473   12.9528   24.6561 F   0  0  0  0  0  0  0  0  0  0  0  0
    7.6201   14.0699   23.2977 C   0  0  0  0  0  0  0  0  0  0  0  0
    5.8499   14.0038   21.3689 N   0  0  0  0  0  0  0  0  0  0  0  0
    6.6563   14.0963   22.1949 C   0  0  0  0  0  0  0  0  0  0  0  0
    6.2681   11.5148   27.1603 C   0  0  0  0  0  0  0  0  0  0  0  0
    5.2313   10.5154   27.7007 C   0  0  0  0  0  0  0  0  0  0  0  0
    3.9116   11.2326   28.0258 C   0  0  0  0  0  0  0  0  0  0  0  0
    2.9000   10.2768   28.6586 C   0  0  0  0  0  0  0  0  0  0  0  0
    3.4377    9.6342   29.8582 N   0  0  0  0  0  0  0  0  0  0  0  0
    4.6567    8.8858   29.5517 C   0  0  0  0  0  0  0  0  0  0  0  0
    5.7383    9.7885   28.9595 C   0  0  0  0  0  0  0  0  0  0  0  0
    2.7390    8.9936   30.2348 H   0  0  0  0  0  0  0  0  0  0  0  0
 11 12  3  0  0  0
 12 10  1  0  0  0
  5 10  1  0  0  0
  5  1  1  0  0  0
  1  2  1  0  0  0
  2  3  2  0  0  0
  2 13  1  0  0  0
 13 14  1  0  0  0
 14 15  1  0  0  0
 15 16  1  0  0  0
 16 17  1  0  0  0
 17 18  1  0  0  0
 18 19  1  0  0  0
  5  6  1  0  0  0
  6  7  1  0  0  0
  6  8  1  0  0  0
  6  9  1  0  0  0
 19 14  1  0  0  0
  1  4  1  0  0  0
 17 20  1  0  0  0
M  END
> <minimizedAffinity>
-4.49659

> <minimizedRMSD>
2.48347

$$$$
C2410-P338


 15 15  0  0  0  0  0  0  0  0999 V2000
    8.3504   13.0146   25.2685 C   0  0  0  0  0  0  0  0  0  0  0  0
    7.4493   12.2029   24.6533 F   0  0  0  0  0  0  0  0  0  0  0  0
    7.6365   14.2930   25.7923 C   0  0  0  0  0  0  0  0  0  0  0  0
    8.6591   15.3099   26.3279 C   0  0  0  0  0  0  0  0  0  0  0  0
    7.9691   16.5445   26.9003 C   0  0  0  0  0  0  0  0  0  0  0  0
    7.0236   17.1468   25.8698 C   0  0  0  0  0  0  0  0  0  0  0  0
    6.0562   16.1022   25.3261 C   0  0  0  0  0  0  0  0  0  0  0  0
    6.7651   14.9356   24.7972 N   0  0  0  0  0  0  0  0  0  0  0  0
    7.3380   15.2338   24.0077 H   0  0  0  0  0  0  0  0  0  0  0  0
    9.5771   13.2006   24.3651 C   0  0  0  0  0  0  0  0  0  0  0  0
    9.3118   13.2022   22.8542 C   0  0  0  0  0  0  0  0  0  0  0  0
    9.6663   15.7441   22.8519 C   0  0  0  0  0  0  0  0  0  0  0  0
    9.8714   14.4263   22.1363 C   0  0  0  0  0  0  0  0  0  0  0  0
    9.2904   14.5102   20.9099 F   0  0  0  0  0  0  0  0  0  0  0  0
   11.2005   14.2477   21.9275 F   0  0  0  0  0  0  0  0  0  0  0  0
 12 13  1  0  0  0
 13 14  1  0  0  0
 13 15  1  0  0  0
 13 11  1  0  0  0
 11 10  1  0  0  0
 10  1  1  0  0  0
  1  2  1  0  0  0
  1  3  1  0  0  0
  3  4  1  0  0  0
  4  5  1  0  0  0
  5  6  1  0  0  0
  6  7  1  0  0  0
  7  8  1  0  0  0
  8  3  1  0  0  0
  8  9  1  0  0  0
M  END
> <minimizedAffinity>
-3.21906

> <minimizedRMSD>
1.21088

$$$$
C7479-P2


 24 25  0  0  0  0  0  0  0  0999 V2000
    6.9635   14.9997   22.4510 S   0  0  0  0  0  0  0  0  0  0  0  0
    6.6196   13.6412   22.0497 O   0  0  0  0  0  0  0  0  0  0  0  0
    7.9505   15.6419   21.6083 O   0  0  0  0  0  0  0  0  0  0  0  0
    6.9923   15.2604   23.9626 N   0  0  0  0  0  0  0  0  0  0  0  0
    8.3565   14.9164   24.5876 S   0  0  0  0  0  0  0  0  0  0  0  0
    8.2876   15.5252   26.2609 C   0  0  0  0  0  0  0  0  0  0  0  0
    9.6283   15.3772   24.0723 O   0  0  0  0  0  0  0  0  0  0  0  0
    8.5295   13.1372   24.8663 C   0  0  0  0  0  0  0  0  0  0  0  0
    9.2858   12.4672   23.7227 C   0  0  0  0  0  0  0  0  0  0  0  0
    9.2878   10.9446   23.7267 C   0  0  0  0  0  0  0  0  0  0  0  0
    8.1425   10.2288   24.4125 C   0  0  0  0  0  0  0  0  0  0  0  0
    7.3496   10.9982   25.4504 C   0  0  0  0  0  0  0  0  0  0  0  0
    7.1942   12.4718   25.1457 C   0  0  0  0  0  0  0  0  0  0  0  0
    5.5845   15.8579   22.0727 N   0  0  0  0  0  0  0  0  0  0  0  0
    5.6483   16.7547   22.5545 H   0  0  0  0  0  0  0  0  0  0  0  0
    4.2888   15.2867   22.4037 C   0  0  0  0  0  0  0  0  0  0  0  0
    3.3242   14.7239   20.0409 C   0  0  0  0  0  0  0  0  0  0  0  0
    2.2691   15.1897   19.3098 O   0  0  0  0  0  0  0  0  0  0  0  0
    1.7766   16.2075   20.0477 C   0  0  0  0  0  0  0  0  0  0  0  0
    2.3977   16.4256   21.1878 N   0  0  0  0  0  0  0  0  0  0  0  0
    3.3830   15.4491   21.2191 C   0  0  0  0  0  0  0  0  0  0  0  0
    3.9889   13.5958   17.9204 C   0  0  0  0  0  0  0  0  0  0  0  0
    4.0846   13.6020   19.4454 C   0  0  0  0  0  0  0  0  0  0  0  0
    3.6082   12.2666   20.0154 C   0  0  0  0  0  0  0  0  0  0  0  0
 22 23  1  0  0  0
 23 24  1  0  0  0
 23 17  1  0  0  0
 17 18  1  0  0  0
 18 19  1  0  0  0
 19 20  2  0  0  0
 20 21  1  0  0  0
 21 16  1  0  0  0
 16 14  1  0  0  0
 14  1  1  0  0  0
  1  2  2  0  0  0
  1  3  2  0  0  0
  1  4  1  0  0  0
  4  5  2  0  0  0
  5  6  1  0  0  0
  5  7  2  0  0  0
  5  8  1  0  0  0
  8  9  1  0  0  0
  9 10  1  0  0  0
 10 11  1  0  0  0
 11 12  1  0  0  0
 12 13  1  0  0  0
 21 17  2  0  0  0
 13  8  1  0  0  0
 14 15  1  0  0  0
M  END
> <minimizedAffinity>
-5.97624

> <minimizedRMSD>
0.66555

$$$$
C4745-P465


 13 14  0  0  0  0  0  0  0  0999 V2000
    9.4523   14.2183   23.9132 C   0  0  0  0  0  0  0  0  0  0  0  0
    9.9235   14.3266   25.3767 C   0  0  0  0  0  0  0  0  0  0  0  0
    9.1139   13.6235   26.4026 N   0  0  0  0  0  0  0  0  0  0  0  0
    8.2561   12.5675   25.8466 C   0  0  0  0  0  0  0  0  0  0  0  0
    8.9611   11.6433   24.8553 C   0  0  0  0  0  0  0  0  0  0  0  0
    9.5327   12.4678   23.3442 S   0  0  0  0  0  0  0  0  0  0  0  0
    8.5209   14.3082   26.8716 H   0  0  0  0  0  0  0  0  0  0  0  0
   11.6874   16.0733   21.6247 C   0  0  0  0  0  0  0  0  0  0  0  0
   11.5836   15.1489   22.6370 C   0  0  0  0  0  0  0  0  0  0  0  0
   10.2031   15.1151   22.9658 C   0  0  0  0  0  0  0  0  0  0  0  0
    9.5176   16.0259   22.2594 N   0  0  0  0  0  0  0  0  0  0  0  0
   10.4203   16.5253   21.3963 N   0  0  0  0  0  0  0  0  0  0  0  0
   10.1903   17.1530   20.6735 H   0  0  0  0  0  0  0  0  0  0  0  0
  8  9  2  0  0  0
  9 10  1  0  0  0
  1 10  1  0  0  0
  1  2  1  0  0  0
  2  3  1  0  0  0
  3  4  1  0  0  0
  4  5  1  0  0  0
  5  6  1  0  0  0
 10 11  2  0  0  0
 11 12  1  0  0  0
 12  8  1  0  0  0
  6  1  1  0  0  0
  3  7  1  0  0  0
 12 13  1  0  0  0
M  END
> <minimizedAffinity>
-4.51531

> <minimizedRMSD>
1.38697

$$$$
C2414-P217


 16 16  0  0  0  0  0  0  0  0999 V2000
    8.9382   14.2599   23.3158 C   0  0  0  0  0  0  0  0  0  0  0  0
    7.7652   13.9112   22.3761 C   0  0  0  0  0  0  0  0  0  0  0  0
   10.1090   14.7150   22.5016 N   0  0  0  0  0  0  0  0  0  0  0  0
   10.9984   15.6792   23.1678 C   0  0  0  0  0  0  0  0  0  0  0  0
   12.3500   15.6979   22.4684 C   0  0  0  0  0  0  0  0  0  0  0  0
   12.1961   16.1573   21.0296 C   0  0  0  0  0  0  0  0  0  0  0  0
   11.1790   15.2833   20.3154 C   0  0  0  0  0  0  0  0  0  0  0  0
    9.8734   15.1403   21.1084 C   0  0  0  0  0  0  0  0  0  0  0  0
    9.3857   12.9363   24.0805 C   0  0  0  0  0  0  0  0  0  0  0  0
   10.5395   12.7278   24.4778 O   0  0  0  0  0  0  0  0  0  0  0  0
    8.3648   11.8654   24.4114 C   0  0  0  0  0  0  0  0  0  0  0  0
    7.5500   12.1358   25.6648 C   0  0  0  0  0  0  0  0  0  0  0  0
    6.0975    9.9618   26.1901 C   0  0  0  0  0  0  0  0  0  0  0  0
    6.7371   10.9564   25.9854 C   0  0  0  0  0  0  0  0  0  0  0  0
    8.4645   15.2707   24.4083 C   0  0  0  0  0  0  0  0  0  0  0  0
    7.4622   16.3299   23.9671 C   0  0  0  0  0  0  0  0  0  0  0  0
 13 14  3  0  0  0
 14 12  1  0  0  0
 12 11  1  0  0  0
 11  9  1  0  0  0
  9 10  2  0  0  0
  9  1  1  0  0  0
  1  2  1  0  0  0
  1 15  1  0  0  0
 15 16  1  0  0  0
  1  3  1  0  0  0
  3  4  1  0  0  0
  4  5  1  0  0  0
  5  6  1  0  0  0
  6  7  1  0  0  0
  7  8  1  0  0  0
  8  3  1  0  0  0
M  END
> <minimizedAffinity>
-5.00362

> <minimizedRMSD>
0.65065

$$$$
C15025-P229


 13 13  0  0  0  0  0  0  0  0999 V2000
   10.3926   13.1827   24.0174 S   0  0  0  0  0  0  0  0  0  0  0  0
    9.8496   14.4282   24.5139 O   0  0  0  0  0  0  0  0  0  0  0  0
   11.7110   12.7312   24.3922 O   0  0  0  0  0  0  0  0  0  0  0  0
    9.2736   11.9032   24.4514 C   0  0  0  0  0  0  0  0  0  0  0  0
    8.2851   12.1215   25.4098 C   0  0  0  0  0  0  0  0  0  0  0  0
    7.4737   11.0621   25.7965 C   0  0  0  0  0  0  0  0  0  0  0  0
    7.6863    9.8286   25.2084 C   0  0  0  0  0  0  0  0  0  0  0  0
    8.6430    9.5918   24.2813 N   0  0  0  0  0  0  0  0  0  0  0  0
    9.4263   10.6389   23.9161 C   0  0  0  0  0  0  0  0  0  0  0  0
   10.2686   13.2651   22.3352 N   0  0  0  0  0  0  0  0  0  0  0  0
   11.1599   13.6026   21.9718 H   0  0  0  0  0  0  0  0  0  0  0  0
    9.6510   15.1393   20.7486 C   0  0  0  0  0  0  0  0  0  0  0  0
    9.1896   14.1557   21.8047 C   0  0  0  0  0  0  0  0  0  0  0  0
 12 13  1  0  0  0
 13 10  1  0  0  0
 10  1  1  0  0  0
  1  2  2  0  0  0
  1  3  2  0  0  0
  1  4  1  0  0  0
  4  5  2  0  0  0
  5  6  1  0  0  0
  6  7  2  0  0  0
  7  8  1  0  0  0
  8  9  2  0  0  0
  9  4  1  0  0  0
 10 11  1  0  0  0
M  END
> <minimizedAffinity>
-4.68444

> <minimizedRMSD>
1.75193

$$$$
C15027-P229


 14 14  0  0  0  0  0  0  0  0999 V2000
    9.4248   13.3684   24.1131 C   0  0  0  0  0  0  0  0  0  0  0  0
    8.8448   14.2566   25.0727 O   0  0  0  0  0  0  0  0  0  0  0  0
    7.8781   14.2259   24.9988 H   0  0  0  0  0  0  0  0  0  0  0  0
    8.9926   11.9423   24.3861 C   0  0  0  0  0  0  0  0  0  0  0  0
    7.9770   11.6411   25.3030 C   0  0  0  0  0  0  0  0  0  0  0  0
    7.5959   10.3219   25.4734 C   0  0  0  0  0  0  0  0  0  0  0  0
    8.1692    9.2928   24.8192 N   0  0  0  0  0  0  0  0  0  0  0  0
    9.1679    9.5964   23.9628 C   0  0  0  0  0  0  0  0  0  0  0  0
    9.6080   10.8808   23.7171 C   0  0  0  0  0  0  0  0  0  0  0  0
    8.9689   13.8438   22.7311 C   0  0  0  0  0  0  0  0  0  0  0  0
    7.8425   13.5358   22.3134 O   0  0  0  0  0  0  0  0  0  0  0  0
    9.9544   14.5607   21.8227 C   0  0  0  0  0  0  0  0  0  0  0  0
   12.1848   15.6566   22.0613 C   0  0  0  0  0  0  0  0  0  0  0  0
   11.3708   14.6230   22.2986 C   0  0  0  0  0  0  0  0  0  0  0  0
 13 14  2  0  0  0
 14 12  1  0  0  0
 12 10  1  0  0  0
 10 11  2  0  0  0
 10  1  1  0  0  0
  1  2  1  0  0  0
  1  4  1  0  0  0
  4  5  2  0  0  0
  5  6  1  0  0  0
  6  7  2  0  0  0
  7  8  1  0  0  0
  8  9  2  0  0  0
  9  4  1  0  0  0
  2  3  1  0  0  0
M  END
> <minimizedAffinity>
-5.00647

> <minimizedRMSD>
1.17515

$$$$
C15036-P229


 15 15  0  0  0  0  0  0  0  0999 V2000
    9.6924   12.9237   24.4616 S   0  0  0  0  0  0  0  0  0  0  0  0
   10.9657   12.2456   24.4800 O   0  0  0  0  0  0  0  0  0  0  0  0
    9.4964   14.1813   25.1469 O   0  0  0  0  0  0  0  0  0  0  0  0
    8.4943   11.7924   25.0461 C   0  0  0  0  0  0  0  0  0  0  0  0
    7.5342   12.1953   25.9725 C   0  0  0  0  0  0  0  0  0  0  0  0
    6.6655   11.2478   26.4983 C   0  0  0  0  0  0  0  0  0  0  0  0
    6.7946    9.9382   26.0739 C   0  0  0  0  0  0  0  0  0  0  0  0
    7.7231    9.5240   25.1808 N   0  0  0  0  0  0  0  0  0  0  0  0
    8.5661   10.4622   24.6819 C   0  0  0  0  0  0  0  0  0  0  0  0
    9.2573   13.2064   22.8536 N   0  0  0  0  0  0  0  0  0  0  0  0
    9.4852   12.3727   22.3119 H   0  0  0  0  0  0  0  0  0  0  0  0
    9.9422   14.3835   22.2122 C   0  0  0  0  0  0  0  0  0  0  0  0
   11.4451   14.2336   21.9868 C   0  0  0  0  0  0  0  0  0  0  0  0
   12.4706   16.6408   21.8504 N   0  0  0  0  0  0  0  0  0  0  0  0
   12.0465   15.5638   21.8876 C   0  0  0  0  0  0  0  0  0  0  0  0
 14 15  3  0  0  0
 15 13  1  0  0  0
 13 12  1  0  0  0
 12 10  1  0  0  0
 10  1  1  0  0  0
  1  2  2  0  0  0
  1  3  2  0  0  0
  1  4  1  0  0  0
  4  5  2  0  0  0
  5  6  1  0  0  0
  6  7  2  0  0  0
  7  8  1  0  0  0
  8  9  2  0  0  0
  9  4  1  0  0  0
 10 11  1  0  0  0
M  END
> <minimizedAffinity>
-4.65839

> <minimizedRMSD>
0.76383

$$$$
C15048-P229


 17 17  0  0  0  0  0  0  0  0999 V2000
    9.5508   13.4661   24.3265 C   0  0  0  0  0  0  0  0  0  0  0  0
    9.0036   12.0667   24.5634 C   0  0  0  0  0  0  0  0  0  0  0  0
    7.9602   11.7700   25.4471 C   0  0  0  0  0  0  0  0  0  0  0  0
    7.5440   10.4530   25.5884 C   0  0  0  0  0  0  0  0  0  0  0  0
    8.0826    9.4201   24.9139 N   0  0  0  0  0  0  0  0  0  0  0  0
    9.0649    9.7166   24.0374 C   0  0  0  0  0  0  0  0  0  0  0  0
    9.5543   10.9980   23.8409 C   0  0  0  0  0  0  0  0  0  0  0  0
   10.6692   15.4403   25.6751 C   0  0  0  0  0  0  0  0  0  0  0  0
   10.5547   13.9381   25.4176 C   0  0  0  0  0  0  0  0  0  0  0  0
    8.5172   14.5074   24.1598 N   0  0  0  0  0  0  0  0  0  0  0  0
    8.8987   15.3796   24.5260 H   0  0  0  0  0  0  0  0  0  0  0  0
    7.9749   14.8093   22.5990 S   0  0  0  0  0  0  0  0  0  0  0  0
    9.0682   15.4631   21.9237 O   0  0  0  0  0  0  0  0  0  0  0  0
    7.3256   13.6480   22.0542 O   0  0  0  0  0  0  0  0  0  0  0  0
    6.8101   15.9481   22.9698 N   0  0  0  0  0  0  0  0  0  0  0  0
    6.8660   16.4613   24.3333 C   0  0  0  0  0  0  0  0  0  0  0  0
    5.4338   15.6997   22.5162 C   0  0  0  0  0  0  0  0  0  0  0  0
  8  9  1  0  0  0
  1  9  1  0  0  0
  1 10  1  0  0  0
 10 12  1  0  0  0
 12 13  2  0  0  0
 12 14  2  0  0  0
 12 15  1  0  0  0
 15 16  1  0  0  0
 15 17  1  0  0  0
  1  2  1  0  0  0
  2  3  2  0  0  0
  3  4  1  0  0  0
  4  5  2  0  0  0
  5  6  1  0  0  0
  6  7  2  0  0  0
  7  2  1  0  0  0
 10 11  1  0  0  0
M  END
> <minimizedAffinity>
-4.91375

> <minimizedRMSD>
1.89542

$$$$
C15065-P229


 14 14  0  0  0  0  0  0  0  0999 V2000
    9.3112   12.7678   24.4935 C   0  0  0  0  0  0  0  0  0  0  0  0
   10.0424   13.4187   25.2402 O   0  0  0  0  0  0  0  0  0  0  0  0
    8.4269   11.7431   25.1032 C   0  0  0  0  0  0  0  0  0  0  0  0
    7.4942   12.1588   26.0589 C   0  0  0  0  0  0  0  0  0  0  0  0
    6.5959   11.2442   26.5965 C   0  0  0  0  0  0  0  0  0  0  0  0
    6.6716    9.9324   26.1712 C   0  0  0  0  0  0  0  0  0  0  0  0
    7.5842    9.4846   25.2810 N   0  0  0  0  0  0  0  0  0  0  0  0
    8.4388   10.4009   24.7545 C   0  0  0  0  0  0  0  0  0  0  0  0
    9.1453   13.0826   23.0101 C   0  0  0  0  0  0  0  0  0  0  0  0
    7.7305   13.1761   22.7775 O   0  0  0  0  0  0  0  0  0  0  0  0
    7.3583   13.8827   23.3281 H   0  0  0  0  0  0  0  0  0  0  0  0
    9.8330   14.3848   22.5999 C   0  0  0  0  0  0  0  0  0  0  0  0
   11.9846   15.3075   22.5279 C   0  0  0  0  0  0  0  0  0  0  0  0
   11.2030   14.1434   22.2707 O   0  0  0  0  0  0  0  0  0  0  0  0
 13 14  1  0  0  0
 14 12  1  0  0  0
 12  9  1  0  0  0
  9 10  1  0  0  0
  9  1  1  0  0  0
  1  2  2  0  0  0
  1  3  1  0  0  0
  3  4  2  0  0  0
  4  5  1  0  0  0
  5  6  2  0  0  0
  6  7  1  0  0  0
  7  8  2  0  0  0
  8  3  1  0  0  0
 10 11  1  0  0  0
M  END
> <minimizedAffinity>
-4.83716

> <minimizedRMSD>
0.74627

$$$$
C15067-P229


 16 16  0  0  0  0  0  0  0  0999 V2000
    9.1698   13.0536   24.9372 C   0  0  0  0  0  0  0  0  0  0  0  0
    8.6929   14.3215   25.4015 O   0  0  0  0  0  0  0  0  0  0  0  0
    7.8412   14.5201   24.9819 H   0  0  0  0  0  0  0  0  0  0  0  0
    8.2325   11.9445   25.3610 C   0  0  0  0  0  0  0  0  0  0  0  0
    7.2030   12.1679   26.2849 C   0  0  0  0  0  0  0  0  0  0  0  0
    6.3642   11.1294   26.6718 C   0  0  0  0  0  0  0  0  0  0  0  0
    6.5920    9.8774   26.1404 C   0  0  0  0  0  0  0  0  0  0  0  0
    7.5962    9.6019   25.2836 N   0  0  0  0  0  0  0  0  0  0  0  0
    8.3865   10.6365   24.9075 C   0  0  0  0  0  0  0  0  0  0  0  0
    9.3404   13.1932   23.4329 C   0  0  0  0  0  0  0  0  0  0  0  0
    8.3589   13.2272   22.6811 O   0  0  0  0  0  0  0  0  0  0  0  0
   10.7651   13.2494   22.8949 C   0  0  0  0  0  0  0  0  0  0  0  0
   11.7086   14.0253   23.6129 O   0  0  0  0  0  0  0  0  0  0  0  0
   11.6651   15.4264   23.3153 C   0  0  0  0  0  0  0  0  0  0  0  0
   11.1712   16.2445   20.9721 C   0  0  0  0  0  0  0  0  0  0  0  0
   12.2468   15.7771   21.9442 C   0  0  0  0  0  0  0  0  0  0  0  0
 15 16  1  0  0  0
 16 14  1  0  0  0
 14 13  1  0  0  0
 13 12  1  0  0  0
 12 10  1  0  0  0
 10 11  2  0  0  0
 10  1  1  0  0  0
  1  2  1  0  0  0
  1  4  1  0  0  0
  4  5  2  0  0  0
  5  6  1  0  0  0
  6  7  2  0  0  0
  7  8  1  0  0  0
  8  9  2  0  0  0
  9  4  1  0  0  0
  2  3  1  0  0  0
M  END
> <minimizedAffinity>
-4.91181

> <minimizedRMSD>
0.45516

$$$$
C8146-P229


 20 20  0  0  0  0  0  0  0  0999 V2000
    6.8567   13.8100   24.5031 N   0  0  0  0  0  0  0  0  0  0  0  0
    6.3825   12.9205   24.3474 H   0  0  0  0  0  0  0  0  0  0  0  0
    7.0463   14.5091   22.9959 S   0  0  0  0  0  0  0  0  0  0  0  0
    7.3557   13.4210   22.1135 O   0  0  0  0  0  0  0  0  0  0  0  0
    5.8712   15.3047   22.7334 O   0  0  0  0  0  0  0  0  0  0  0  0
    8.4134   15.4776   23.2612 N   0  0  0  0  0  0  0  0  0  0  0  0
    8.0350   16.8708   23.5905 C   0  0  0  0  0  0  0  0  0  0  0  0
    7.8473   17.0422   25.0833 C   0  0  0  0  0  0  0  0  0  0  0  0
    9.5196   15.4222   22.2440 C   0  0  0  0  0  0  0  0  0  0  0  0
   11.0756   15.0766   24.2687 C   0  0  0  0  0  0  0  0  0  0  0  0
   10.9302   15.5911   22.8453 C   0  0  0  0  0  0  0  0  0  0  0  0
    8.0115   13.5156   25.3841 C   0  0  0  0  0  0  0  0  0  0  0  0
    7.5706   13.9300   26.8011 C   0  0  0  0  0  0  0  0  0  0  0  0
    8.4972   12.0442   25.3841 C   0  0  0  0  0  0  0  0  0  0  0  0
    7.3568   11.0498   25.5718 C   0  0  0  0  0  0  0  0  0  0  0  0
    7.7837    9.6145   25.3898 C   0  0  0  0  0  0  0  0  0  0  0  0
    8.3935    9.4137   24.1010 N   0  0  0  0  0  0  0  0  0  0  0  0
    9.5747   10.2143   23.8694 C   0  0  0  0  0  0  0  0  0  0  0  0
    9.4782   11.6896   24.2549 C   0  0  0  0  0  0  0  0  0  0  0  0
    7.7062    9.6436   23.3833 H   0  0  0  0  0  0  0  0  0  0  0  0
 10 11  1  0  0  0
 11  9  1  0  0  0
  9  6  1  0  0  0
  6  7  1  0  0  0
  7  8  1  0  0  0
  6  3  1  0  0  0
  3  4  2  0  0  0
  3  5  2  0  0  0
  3  1  1  0  0  0
  1 12  1  0  0  0
 12 13  1  0  0  0
 12 14  1  0  0  0
 14 15  1  0  0  0
 15 16  1  0  0  0
 16 17  1  0  0  0
 17 18  1  0  0  0
 18 19  1  0  0  0
 19 14  1  0  0  0
  1  2  1  0  0  0
 17 20  1  0  0  0
M  END
> <minimizedAffinity>
-4.16073

> <minimizedRMSD>
0.96760

$$$$
C8163-P229


 17 17  0  0  0  0  0  0  0  0999 V2000
    9.1203   12.8503   23.4062 S   0  0  0  0  0  0  0  0  0  0  0  0
    7.8260   13.1705   22.8458 O   0  0  0  0  0  0  0  0  0  0  0  0
    9.8657   11.6789   23.0095 O   0  0  0  0  0  0  0  0  0  0  0  0
   10.0664   14.2070   23.2020 N   0  0  0  0  0  0  0  0  0  0  0  0
    9.5907   14.8148   22.5352 H   0  0  0  0  0  0  0  0  0  0  0  0
   11.4491   14.0033   22.7105 C   0  0  0  0  0  0  0  0  0  0  0  0
   11.9529   15.3147   22.1096 C   0  0  0  0  0  0  0  0  0  0  0  0
   10.7597   15.6067   19.7448 C   0  0  0  0  0  0  0  0  0  0  0  0
   11.3469   15.5114   20.7871 C   0  0  0  0  0  0  0  0  0  0  0  0
    8.9551   12.8234   25.1758 C   0  0  0  0  0  0  0  0  0  0  0  0
    7.6508   12.1413   25.5894 C   0  0  0  0  0  0  0  0  0  0  0  0
    7.1850   12.5986   26.9690 C   0  0  0  0  0  0  0  0  0  0  0  0
    5.9290   11.8648   27.4397 C   0  0  0  0  0  0  0  0  0  0  0  0
    5.6464   10.5685   26.6925 C   0  0  0  0  0  0  0  0  0  0  0  0
    6.8685    9.8759   26.3532 N   0  0  0  0  0  0  0  0  0  0  0  0
    7.7442   10.6160   25.4648 C   0  0  0  0  0  0  0  0  0  0  0  0
    6.6222    8.9960   25.8998 H   0  0  0  0  0  0  0  0  0  0  0  0
  8  9  3  0  0  0
  9  7  1  0  0  0
  7  6  1  0  0  0
  6  4  1  0  0  0
  4  1  1  0  0  0
  1  2  2  0  0  0
  1  3  2  0  0  0
  1 10  1  0  0  0
 11 10  1  0  0  0
 11 12  1  0  0  0
 12 13  1  0  0  0
 13 14  1  0  0  0
 14 15  1  0  0  0
 15 16  1  0  0  0
 16 11  1  0  0  0
  4  5  1  0  0  0
 15 17  1  0  0  0
M  END
> <minimizedAffinity>
-4.88400

> <minimizedRMSD>
0.42968

$$$$
C8176-P229


 17 17  0  0  0  0  0  0  0  0999 V2000
    9.7512   15.0274   24.4767 C   0  0  0  0  0  0  0  0  0  0  0  0
   10.1128   13.8685   23.5394 C   0  0  0  0  0  0  0  0  0  0  0  0
   11.4771   13.5370   23.7842 O   0  0  0  0  0  0  0  0  0  0  0  0
   12.0351   14.3095   23.6030 H   0  0  0  0  0  0  0  0  0  0  0  0
    9.2288   12.6051   23.8387 C   0  0  0  0  0  0  0  0  0  0  0  0
    8.6721   12.5305   25.2685 C   0  0  0  0  0  0  0  0  0  0  0  0
    7.9383   11.2327   25.5936 C   0  0  0  0  0  0  0  0  0  0  0  0
    8.2256   10.0869   24.6413 C   0  0  0  0  0  0  0  0  0  0  0  0
    9.5850   10.1032   24.1514 N   0  0  0  0  0  0  0  0  0  0  0  0
    9.9384   11.3067   23.4088 C   0  0  0  0  0  0  0  0  0  0  0  0
    9.7133    9.2992   23.5370 H   0  0  0  0  0  0  0  0  0  0  0  0
    9.8559   14.3396   22.0772 C   0  0  0  0  0  0  0  0  0  0  0  0
    8.7590   14.1566   21.5315 O   0  0  0  0  0  0  0  0  0  0  0  0
   10.9632   15.1301   21.4004 C   0  0  0  0  0  0  0  0  0  0  0  0
   11.3839   16.2051   22.1301 F   0  0  0  0  0  0  0  0  0  0  0  0
   12.0622   14.3911   21.1378 F   0  0  0  0  0  0  0  0  0  0  0  0
   10.2471   15.7437   19.7056 Br  0  0  0  0  0  0  0  0  0  0  0  0
  2  1  1  0  0  0
  2  3  1  0  0  0
  2 12  1  0  0  0
 12 13  2  0  0  0
 12 14  1  0  0  0
 14 15  1  0  0  0
 14 16  1  0  0  0
 14 17  1  0  0  0
  2  5  1  0  0  0
  5  6  1  0  0  0
  6  7  1  0  0  0
  7  8  1  0  0  0
  8  9  1  0  0  0
  9 10  1  0  0  0
 10  5  1  0  0  0
  3  4  1  0  0  0
  9 11  1  0  0  0
M  END
> <minimizedAffinity>
-5.24633

> <minimizedRMSD>
2.19708

$$$$
C34425-P31


 25 27  0  0  0  0  0  0  0  0999 V2000
   11.1085   10.6414    1.1893 C   0  0  0  0  0  0  0  0  0  0  0  0
   12.3093   11.3799    0.8912 N   0  0  0  0  0  0  0  0  0  0  0  0
   12.5833   12.9059    0.9092 C   0  0  0  0  0  0  0  0  0  0  0  0
   11.8582   13.8029    1.0935 O   0  0  0  0  0  0  0  0  0  0  0  0
   13.0812   10.8254    0.6344 H   0  0  0  0  0  0  0  0  0  0  0  0
   14.0570   13.0568    0.5148 C   0  0  0  0  0  0  0  0  0  0  0  0
   14.7217   11.8205    0.3049 O   0  0  0  0  0  0  0  0  0  0  0  0
   15.9046   11.6016    1.0842 C   0  0  0  0  0  0  0  0  0  0  0  0
   16.4458   12.8778    1.7364 C   0  0  0  0  0  0  0  0  0  0  0  0
   17.8277   12.6546    2.3210 C   0  0  0  0  0  0  0  0  0  0  0  0
   18.7304   12.1723    1.3331 O   0  0  0  0  0  0  0  0  0  0  0  0
   18.3149   10.9223    0.7806 C   0  0  0  0  0  0  0  0  0  0  0  0
   16.9520   11.0344    0.1228 C   0  0  0  0  0  0  0  0  0  0  0  0
    9.9240   11.1125    0.3350 C   0  0  0  0  0  0  0  0  0  0  0  0
    8.3250    8.7398   -0.3833 C   0  0  0  0  0  0  0  0  0  0  0  0
    7.9867    9.5155    0.8880 C   0  0  0  0  0  0  0  0  0  0  0  0
    8.3178    8.7120    2.1447 C   0  0  0  0  0  0  0  0  0  0  0  0
    7.7452    9.4226    3.3643 C   0  0  0  0  0  0  0  0  0  0  0  0
    7.9059   10.9198    3.3033 C   0  0  0  0  0  0  0  0  0  0  0  0
    7.5700   11.6679    4.4429 C   0  0  0  0  0  0  0  0  0  0  0  0
    7.6685   13.0560    4.4400 C   0  0  0  0  0  0  0  0  0  0  0  0
    8.0989   13.7108    3.2944 C   0  0  0  0  0  0  0  0  0  0  0  0
    8.4246   12.9731    2.1526 C   0  0  0  0  0  0  0  0  0  0  0  0
    8.3326   11.5709    2.1300 C   0  0  0  0  0  0  0  0  0  0  0  0
    8.6132   10.8511    0.9522 N   0  0  0  0  0  0  0  0  0  0  0  0
 16 15  1  0  0  0
 16 17  1  0  0  0
 17 18  1  0  0  0
 18 19  1  0  0  0
 19 20  2  0  0  0
 20 21  1  0  0  0
 21 22  2  0  0  0
 22 23  1  0  0  0
 23 24  2  0  0  0
 24 25  1  0  0  0
 25 14  1  0  0  0
 14  1  1  0  0  0
  1  2  1  0  0  0
  2  3  1  0  0  0
  3  4  2  0  0  0
  3  6  1  0  0  0
  6  7  1  0  0  0
  7  8  1  0  0  0
  8  9  1  0  0  0
  9 10  1  0  0  0
 10 11  1  0  0  0
 11 12  1  0  0  0
 12 13  1  0  0  0
 25 16  1  0  0  0
 13  8  1  0  0  0
 24 19  1  0  0  0
  2  5  1  0  0  0
M  END
> <minimizedAffinity>
-4.19140

> <minimizedRMSD>
1.91746

$$$$
C901-P190


 24 27  0  0  0  0  0  0  0  0999 V2000
   26.7453   17.3037   24.5526 O   0  0  0  0  0  0  0  0  0  0  0  0
   25.6888   17.7826   24.3969 C   0  0  0  0  0  0  0  0  0  0  0  0
   24.2781   17.2554   24.7789 N   0  0  0  0  0  0  0  0  0  0  0  0
   23.5419   17.8863   24.6078 H   0  0  0  0  0  0  0  0  0  0  0  0
   23.8958   16.0666   25.3101 C   0  0  0  0  0  0  0  0  0  0  0  0
   24.3252   14.7855   24.9092 C   0  0  0  0  0  0  0  0  0  0  0  0
   23.6942   13.9161   25.7651 C   0  0  0  0  0  0  0  0  0  0  0  0
   22.9439   14.6963   26.6000 N   0  0  0  0  0  0  0  0  0  0  0  0
   23.0542   16.0140   26.3437 N   0  0  0  0  0  0  0  0  0  0  0  0
   22.1709   14.1259   27.7319 C   0  0  0  0  0  0  0  0  0  0  0  0
   21.1177   15.0700   28.3583 C   0  0  0  0  0  0  0  0  0  0  0  0
   20.0804   14.4808   27.3844 C   0  0  0  0  0  0  0  0  0  0  0  0
   20.9915   13.2459   27.2504 C   0  0  0  0  0  0  0  0  0  0  0  0
   25.4982   19.1811   23.8251 C   0  0  0  0  0  0  0  0  0  0  0  0
   24.8722   19.1813   22.4327 C   0  0  0  0  0  0  0  0  0  0  0  0
   25.6880   20.0283   21.4859 C   0  0  0  0  0  0  0  0  0  0  0  0
   25.0955   21.0515   20.7172 C   0  0  0  0  0  0  0  0  0  0  0  0
   25.8741   21.8507   19.8707 C   0  0  0  0  0  0  0  0  0  0  0  0
   27.2292   21.6015   19.8107 C   0  0  0  0  0  0  0  0  0  0  0  0
   27.8137   20.6123   20.5608 C   0  0  0  0  0  0  0  0  0  0  0  0
   27.0750   19.8164   21.4067 C   0  0  0  0  0  0  0  0  0  0  0  0
   29.1561   20.5322   20.3652 O   0  0  0  0  0  0  0  0  0  0  0  0
   29.3337   21.5198   19.3331 C   0  0  0  0  0  0  0  0  0  0  0  0
   28.1322   22.2678   19.0420 O   0  0  0  0  0  0  0  0  0  0  0  0
  1  2  2  0  0  0
  2 14  1  0  0  0
 14 15  1  0  0  0
 15 16  1  0  0  0
 16 17  2  0  0  0
 17 18  1  0  0  0
 18 19  2  0  0  0
 19 20  1  0  0  0
 20 21  2  0  0  0
 20 22  1  0  0  0
 22 23  1  0  0  0
 23 24  1  0  0  0
  2  3  1  0  0  0
  3  5  1  0  0  0
  5  6  1  0  0  0
  6  7  2  0  0  0
  7  8  1  0  0  0
  8 10  1  0  0  0
 10 11  1  0  0  0
 11 12  1  0  0  0
 12 13  1  0  0  0
  8  9  1  0  0  0
 21 16  1  0  0  0
  9  5  2  0  0  0
 24 19  1  0  0  0
 13 10  1  0  0  0
  3  4  1  0  0  0
M  END
> <minimizedAffinity>
-4.44868

> <minimizedRMSD>
1.38163

$$$$
C727-P275


 12 13  0  0  0  0  0  0  0  0999 V2000
    7.8129   11.9039   25.3336 C   0  0  0  0  0  0  0  0  0  0  0  0
    8.4208   12.9493   24.6488 C   0  0  0  0  0  0  0  0  0  0  0  0
    9.3822   12.6507   23.6901 C   0  0  0  0  0  0  0  0  0  0  0  0
    9.6611   11.3011   23.4523 C   0  0  0  0  0  0  0  0  0  0  0  0
    9.0008   10.3224   24.1795 C   0  0  0  0  0  0  0  0  0  0  0  0
    8.0942   10.5955   25.1389 N   0  0  0  0  0  0  0  0  0  0  0  0
   10.1035   13.6184   22.9830 N   0  0  0  0  0  0  0  0  0  0  0  0
   11.0170   14.3809   23.8454 C   0  0  0  0  0  0  0  0  0  0  0  0
   12.0645   15.0669   22.9748 C   0  0  0  0  0  0  0  0  0  0  0  0
   11.4222   15.9465   21.9085 C   0  0  0  0  0  0  0  0  0  0  0  0
   10.3897   15.1579   21.1044 C   0  0  0  0  0  0  0  0  0  0  0  0
    9.3761   14.4625   22.0209 C   0  0  0  0  0  0  0  0  0  0  0  0
  1  2  2  0  0  0
  2  3  1  0  0  0
  3  7  1  0  0  0
  7  8  1  0  0  0
  8  9  1  0  0  0
  9 10  1  0  0  0
 10 11  1  0  0  0
 11 12  1  0  0  0
  3  4  2  0  0  0
  4  5  1  0  0  0
  5  6  2  0  0  0
  6  1  1  0  0  0
 12  7  1  0  0  0
M  END
> <minimizedAffinity>
-4.89378

> <minimizedRMSD>
0.37396

$$$$
C7480-P437


 14 14  0  0  0  0  0  0  0  0999 V2000
    8.2279   13.0226   24.1770 C   0  0  0  0  0  0  0  0  0  0  0  0
    7.7384   13.3796   25.1746 O   0  0  0  0  0  0  0  0  0  0  0  0
    9.0856   13.8015   23.1405 N   0  0  0  0  0  0  0  0  0  0  0  0
    9.4503   13.2512   22.4102 H   0  0  0  0  0  0  0  0  0  0  0  0
    9.4193   15.1422   23.0782 N   0  0  0  0  0  0  0  0  0  0  0  0
   10.6620   15.4204   23.8068 C   0  0  0  0  0  0  0  0  0  0  0  0
   11.9189   14.9292   23.0865 C   0  0  0  0  0  0  0  0  0  0  0  0
   11.9881   15.4919   21.6747 C   0  0  0  0  0  0  0  0  0  0  0  0
   10.7058   15.1878   20.9114 C   0  0  0  0  0  0  0  0  0  0  0  0
    9.4698   15.6440   21.6930 C   0  0  0  0  0  0  0  0  0  0  0  0
    9.1702    9.3742   23.4247 C   0  0  0  0  0  0  0  0  0  0  0  0
    9.0977   10.7300   24.0489 C   0  0  0  0  0  0  0  0  0  0  0  0
   10.1275   11.0426   25.0919 C   0  0  0  0  0  0  0  0  0  0  0  0
    8.1594   11.6229   23.6796 C   0  0  0  0  0  0  0  0  0  0  0  0
 11 12  1  0  0  0
 12 13  1  0  0  0
 12 14  2  0  0  0
 14  1  1  0  0  0
  1  2  2  0  0  0
  1  3  1  0  0  0
  3  5  1  0  0  0
  5  6  1  0  0  0
  6  7  1  0  0  0
  7  8  1  0  0  0
  8  9  1  0  0  0
  9 10  1  0  0  0
 10  5  1  0  0  0
  3  4  1  0  0  0
M  END
> <minimizedAffinity>
-5.25814

> <minimizedRMSD>
0.58902

$$$$
C935-P161


 23 26  0  0  0  0  0  0  0  0999 V2000
   22.6914   13.9381    0.9542 C   0  0  0  0  0  0  0  0  0  0  0  0
   22.0797   13.6895   -0.1916 N   0  0  0  0  0  0  0  0  0  0  0  0
   22.8348   12.8174   -0.9222 N   0  0  0  0  0  0  0  0  0  0  0  0
   23.8936   12.5194   -0.2103 C   0  0  0  0  0  0  0  0  0  0  0  0
   23.8081   13.1372    1.0127 N   0  0  0  0  0  0  0  0  0  0  0  0
   24.8261   13.0252    2.0369 C   0  0  0  0  0  0  0  0  0  0  0  0
   25.8849   11.9482    1.7433 C   0  0  0  0  0  0  0  0  0  0  0  0
   26.2586   11.9358    0.2512 C   0  0  0  0  0  0  0  0  0  0  0  0
   25.0361   11.6701   -0.6167 C   0  0  0  0  0  0  0  0  0  0  0  0
   27.1082   12.2017    2.5514 C   0  0  0  0  0  0  0  0  0  0  0  0
   27.8722   13.2702    2.5816 N   0  0  0  0  0  0  0  0  0  0  0  0
   28.8896   12.8696    3.4182 C   0  0  0  0  0  0  0  0  0  0  0  0
   28.7659   11.6240    3.8925 N   0  0  0  0  0  0  0  0  0  0  0  0
   27.5737   11.1773    3.3197 O   0  0  0  0  0  0  0  0  0  0  0  0
   30.1192   13.7953    3.7674 C   0  0  0  0  0  0  0  0  0  0  0  0
   30.4080   13.9556    5.2694 C   0  0  0  0  0  0  0  0  0  0  0  0
   29.5268   15.2095    5.1862 C   0  0  0  0  0  0  0  0  0  0  0  0
   29.7849   15.2481    3.7294 N   0  0  0  0  0  0  0  0  0  0  0  0
   30.5624   15.8497    3.4576 H   0  0  0  0  0  0  0  0  0  0  0  0
   21.1093   15.8274    1.2928 C   0  0  0  0  0  0  0  0  0  0  0  0
   22.1837   14.9430    1.9623 C   0  0  0  0  0  0  0  0  0  0  0  0
   23.2736   15.8860    2.4853 C   0  0  0  0  0  0  0  0  0  0  0  0
   21.4712   14.2211    3.0930 C   0  0  0  0  0  0  0  0  0  0  0  0
 20 21  1  0  0  0
 21 22  1  0  0  0
 21 23  1  0  0  0
 21  1  1  0  0  0
  1  2  2  0  0  0
  2  3  1  0  0  0
  3  4  2  0  0  0
  4  5  1  0  0  0
  5  6  1  0  0  0
  6  7  1  0  0  0
  7 10  1  0  0  0
 10 11  2  0  0  0
 11 12  1  0  0  0
 15 12  1  0  0  0
 15 16  1  0  0  0
 16 17  1  0  0  0
 17 18  1  0  0  0
 12 13  2  0  0  0
 13 14  1  0  0  0
  7  8  1  0  0  0
  8  9  1  0  0  0
  5  1  1  0  0  0
 14 10  1  0  0  0
  9  4  1  0  0  0
 18 15  1  0  0  0
 18 19  1  0  0  0
M  END
> <minimizedAffinity>
-4.46034

> <minimizedRMSD>
0.54333

$$$$
C15044-P213


 16 16  0  0  0  0  0  0  0  0999 V2000
    8.1467   14.1367   23.0117 S   0  0  0  0  0  0  0  0  0  0  0  0
    7.9580   15.0796   24.0912 O   0  0  0  0  0  0  0  0  0  0  0  0
    7.1456   13.8330   22.0105 O   0  0  0  0  0  0  0  0  0  0  0  0
    8.5933   12.5791   23.7322 C   0  0  0  0  0  0  0  0  0  0  0  0
    9.5605   11.7827   23.1460 C   0  0  0  0  0  0  0  0  0  0  0  0
    9.5724   10.4514   23.5245 C   0  0  0  0  0  0  0  0  0  0  0  0
    8.6234   10.0010   24.4428 C   0  0  0  0  0  0  0  0  0  0  0  0
    7.7439   10.8959   25.0206 C   0  0  0  0  0  0  0  0  0  0  0  0
    7.7266   12.1914   24.7059 N   0  0  0  0  0  0  0  0  0  0  0  0
    9.5133   14.6335   22.1555 N   0  0  0  0  0  0  0  0  0  0  0  0
   10.1484   13.8379   22.0925 H   0  0  0  0  0  0  0  0  0  0  0  0
   10.2602   15.7607   22.7319 C   0  0  0  0  0  0  0  0  0  0  0  0
   11.7534   15.5261   22.5431 C   0  0  0  0  0  0  0  0  0  0  0  0
   12.3407   16.2427   21.3250 C   0  0  0  0  0  0  0  0  0  0  0  0
   11.0752   15.5077   19.1577 N   0  0  0  0  0  0  0  0  0  0  0  0
   11.6842   15.8319   20.0869 C   0  0  0  0  0  0  0  0  0  0  0  0
 15 16  3  0  0  0
 16 14  1  0  0  0
 14 13  1  0  0  0
 13 12  1  0  0  0
 12 10  1  0  0  0
 10  1  1  0  0  0
  1  2  2  0  0  0
  1  3  2  0  0  0
  1  4  1  0  0  0
  4  5  2  0  0  0
  5  6  1  0  0  0
  6  7  2  0  0  0
  7  8  1  0  0  0
  8  9  2  0  0  0
  9  4  1  0  0  0
 10 11  1  0  0  0
M  END
> <minimizedAffinity>
-5.07444

> <minimizedRMSD>
0.65269

$$$$
C15051-P213


 15 15  0  0  0  0  0  0  0  0999 V2000
    8.9169   14.6255   25.1822 C   0  0  0  0  0  0  0  0  0  0  0  0
    9.0380   13.3478   24.3390 C   0  0  0  0  0  0  0  0  0  0  0  0
   10.4074   12.9131   24.3525 O   0  0  0  0  0  0  0  0  0  0  0  0
   10.9708   13.6078   23.9771 H   0  0  0  0  0  0  0  0  0  0  0  0
    8.2087   12.2126   24.9406 C   0  0  0  0  0  0  0  0  0  0  0  0
    8.3937   10.9027   24.5073 C   0  0  0  0  0  0  0  0  0  0  0  0
    7.6441    9.8920   25.0951 C   0  0  0  0  0  0  0  0  0  0  0  0
    6.7236   10.1915   26.0882 C   0  0  0  0  0  0  0  0  0  0  0  0
    6.6062   11.5091   26.4760 C   0  0  0  0  0  0  0  0  0  0  0  0
    7.3418   12.5103   25.9493 N   0  0  0  0  0  0  0  0  0  0  0  0
    8.5765   13.6968   22.9101 C   0  0  0  0  0  0  0  0  0  0  0  0
    7.4172   13.5208   22.5163 O   0  0  0  0  0  0  0  0  0  0  0  0
    9.6429   14.2798   22.0028 C   0  0  0  0  0  0  0  0  0  0  0  0
   10.1153   15.4802   22.4602 F   0  0  0  0  0  0  0  0  0  0  0  0
    9.1787   14.5180   20.7471 F   0  0  0  0  0  0  0  0  0  0  0  0
  2  1  1  0  0  0
  2  3  1  0  0  0
  2 11  1  0  0  0
 11 12  2  0  0  0
 11 13  1  0  0  0
 13 14  1  0  0  0
 13 15  1  0  0  0
  2  5  1  0  0  0
  5  6  2  0  0  0
  6  7  1  0  0  0
  7  8  2  0  0  0
  8  9  1  0  0  0
  9 10  2  0  0  0
 10  5  1  0  0  0
  3  4  1  0  0  0
M  END
> <minimizedAffinity>
-4.78270

> <minimizedRMSD>
0.56682

$$$$
C15066-P213


 16 16  0  0  0  0  0  0  0  0999 V2000
    9.1871   13.0452   23.9304 C   0  0  0  0  0  0  0  0  0  0  0  0
   10.3060   12.2803   23.5501 O   0  0  0  0  0  0  0  0  0  0  0  0
   10.0101   11.4915   23.0693 H   0  0  0  0  0  0  0  0  0  0  0  0
    8.3186   12.1568   24.7924 C   0  0  0  0  0  0  0  0  0  0  0  0
    8.2421   10.7697   24.6509 C   0  0  0  0  0  0  0  0  0  0  0  0
    7.3308   10.0544   25.4179 C   0  0  0  0  0  0  0  0  0  0  0  0
    6.5537   10.7371   26.3387 C   0  0  0  0  0  0  0  0  0  0  0  0
    6.6525   12.0599   26.5649 N   0  0  0  0  0  0  0  0  0  0  0  0
    7.5175   12.7366   25.7758 C   0  0  0  0  0  0  0  0  0  0  0  0
    8.3783   13.8308   22.8744 C   0  0  0  0  0  0  0  0  0  0  0  0
    7.3296   13.3409   22.4273 O   0  0  0  0  0  0  0  0  0  0  0  0
    8.7199   15.2744   22.5043 C   0  0  0  0  0  0  0  0  0  0  0  0
    7.7926   16.1696   23.3179 C   0  0  0  0  0  0  0  0  0  0  0  0
   10.1919   15.6809   22.6252 C   0  0  0  0  0  0  0  0  0  0  0  0
   12.3399   16.3443   21.3605 C   0  0  0  0  0  0  0  0  0  0  0  0
   10.8461   16.0827   21.3014 C   0  0  0  0  0  0  0  0  0  0  0  0
 15 16  1  0  0  0
 16 14  1  0  0  0
 14 12  1  0  0  0
 12 13  1  0  0  0
 12 10  1  0  0  0
 10 11  2  0  0  0
 10  1  1  0  0  0
  1  2  1  0  0  0
  1  4  1  0  0  0
  4  5  2  0  0  0
  5  6  1  0  0  0
  6  7  2  0  0  0
  7  8  1  0  0  0
  8  9  2  0  0  0
  9  4  1  0  0  0
  2  3  1  0  0  0
M  END
> <minimizedAffinity>
-5.09554

> <minimizedRMSD>
1.34626

$$$$
C15070-P213


 16 16  0  0  0  0  0  0  0  0999 V2000
    8.3629   14.0706   22.9974 C   0  0  0  0  0  0  0  0  0  0  0  0
    7.2148   13.4247   22.4552 O   0  0  0  0  0  0  0  0  0  0  0  0
    7.4556   12.5335   22.1575 H   0  0  0  0  0  0  0  0  0  0  0  0
    8.8882   13.4112   24.2814 C   0  0  0  0  0  0  0  0  0  0  0  0
    9.8650   13.8173   24.9060 O   0  0  0  0  0  0  0  0  0  0  0  0
    8.1683   12.2725   24.8571 C   0  0  0  0  0  0  0  0  0  0  0  0
    8.4145   10.9619   24.4695 C   0  0  0  0  0  0  0  0  0  0  0  0
    7.6914    9.9515   25.0874 C   0  0  0  0  0  0  0  0  0  0  0  0
    6.7875   10.2790   26.0885 C   0  0  0  0  0  0  0  0  0  0  0  0
    6.5716   11.5385   26.5148 N   0  0  0  0  0  0  0  0  0  0  0  0
    7.2604   12.5148   25.8790 C   0  0  0  0  0  0  0  0  0  0  0  0
    9.4007   14.1646   21.8806 C   0  0  0  0  0  0  0  0  0  0  0  0
   10.2111   15.4630   21.7928 C   0  0  0  0  0  0  0  0  0  0  0  0
    9.3714   16.6716   21.4384 C   0  0  0  0  0  0  0  0  0  0  0  0
   11.0598   15.6854   19.3521 C   0  0  0  0  0  0  0  0  0  0  0  0
   11.3736   15.3100   20.7972 C   0  0  0  0  0  0  0  0  0  0  0  0
 15 16  1  0  0  0
 16 13  1  0  0  0
 13 14  1  0  0  0
 13 12  1  0  0  0
 12  1  1  0  0  0
  1  2  1  0  0  0
  1  4  1  0  0  0
  4  5  2  0  0  0
  4  6  1  0  0  0
  6  7  2  0  0  0
  7  8  1  0  0  0
  8  9  2  0  0  0
  9 10  1  0  0  0
 10 11  2  0  0  0
 11  6  1  0  0  0
  2  3  1  0  0  0
M  END
> <minimizedAffinity>
-5.24624

> <minimizedRMSD>
1.28766

$$$$
C8141-P213


 16 16  0  0  0  0  0  0  0  0999 V2000
    9.8318   13.4687   24.1002 C   0  0  0  0  0  0  0  0  0  0  0  0
    9.8207   14.6612   25.0608 C   0  0  0  0  0  0  0  0  0  0  0  0
   11.0447   12.7579   24.3392 O   0  0  0  0  0  0  0  0  0  0  0  0
   11.8004   13.3439   24.1765 H   0  0  0  0  0  0  0  0  0  0  0  0
    8.6160   12.5242   24.3625 C   0  0  0  0  0  0  0  0  0  0  0  0
    9.0218   11.0444   24.3330 C   0  0  0  0  0  0  0  0  0  0  0  0
    7.8831   10.1071   24.6915 C   0  0  0  0  0  0  0  0  0  0  0  0
    7.2569   10.4485   25.9621 N   0  0  0  0  0  0  0  0  0  0  0  0
    6.7391   11.8114   25.9405 C   0  0  0  0  0  0  0  0  0  0  0  0
    7.8237   12.8421   25.6435 C   0  0  0  0  0  0  0  0  0  0  0  0
    7.9484   10.3662   26.7074 H   0  0  0  0  0  0  0  0  0  0  0  0
    9.7047   14.0653   22.6656 C   0  0  0  0  0  0  0  0  0  0  0  0
    8.6329   14.0586   22.0515 O   0  0  0  0  0  0  0  0  0  0  0  0
   12.4482   16.4442   21.2568 C   0  0  0  0  0  0  0  0  0  0  0  0
   11.2334   15.9552   21.9711 C   0  0  0  0  0  0  0  0  0  0  0  0
   10.8819   14.6620   21.9756 C   0  0  0  0  0  0  0  0  0  0  0  0
 14 15  1  0  0  0
 15 16  2  0  0  0
 16 12  1  0  0  0
 12 13  2  0  0  0
 12  1  1  0  0  0
  1  2  1  0  0  0
  1  3  1  0  0  0
  1  5  1  0  0  0
  5  6  1  0  0  0
  6  7  1  0  0  0
  7  8  1  0  0  0
  8  9  1  0  0  0
  9 10  1  0  0  0
 10  5  1  0  0  0
  3  4  1  0  0  0
  8 11  1  0  0  0
M  END
> <minimizedAffinity>
-4.88852

> <minimizedRMSD>
1.40178

$$$$
C8152-P213


 15 15  0  0  0  0  0  0  0  0999 V2000
    9.1040   13.6269   24.7210 C   0  0  0  0  0  0  0  0  0  0  0  0
    8.5198   14.5717   25.6294 O   0  0  0  0  0  0  0  0  0  0  0  0
    7.6123   14.7703   25.3500 H   0  0  0  0  0  0  0  0  0  0  0  0
    8.3525   12.2826   24.7476 C   0  0  0  0  0  0  0  0  0  0  0  0
    7.6479   11.9009   25.6769 O   0  0  0  0  0  0  0  0  0  0  0  0
    8.5357   11.5008   23.6528 O   0  0  0  0  0  0  0  0  0  0  0  0
    9.4949    9.3289   23.4124 C   0  0  0  0  0  0  0  0  0  0  0  0
    9.7832   10.8037   23.5530 C   0  0  0  0  0  0  0  0  0  0  0  0
    9.1607   14.2487   23.3053 C   0  0  0  0  0  0  0  0  0  0  0  0
    9.6589   15.6400   23.3104 N   0  0  0  0  0  0  0  0  0  0  0  0
   11.0475   15.7846   23.7788 C   0  0  0  0  0  0  0  0  0  0  0  0
   12.1033   15.2906   22.7932 C   0  0  0  0  0  0  0  0  0  0  0  0
   11.9508   15.9841   21.4464 C   0  0  0  0  0  0  0  0  0  0  0  0
   10.5248   15.8321   20.9365 C   0  0  0  0  0  0  0  0  0  0  0  0
    9.5033   16.2787   21.9854 C   0  0  0  0  0  0  0  0  0  0  0  0
  7  8  1  0  0  0
  8  6  1  0  0  0
  6  4  1  0  0  0
  4  5  2  0  0  0
  4  1  1  0  0  0
  1  2  1  0  0  0
  1  9  1  0  0  0
  9 10  1  0  0  0
 10 11  1  0  0  0
 11 12  1  0  0  0
 12 13  1  0  0  0
 13 14  1  0  0  0
 14 15  1  0  0  0
 15 10  1  0  0  0
  2  3  1  0  0  0
M  END
> <minimizedAffinity>
-4.64952

> <minimizedRMSD>
0.43382

$$$$
C8163-P213


 17 17  0  0  0  0  0  0  0  0999 V2000
    8.8260   13.4831   22.9941 S   0  0  0  0  0  0  0  0  0  0  0  0
    7.5328   13.4865   22.3453 O   0  0  0  0  0  0  0  0  0  0  0  0
    9.8890   12.5815   22.6111 O   0  0  0  0  0  0  0  0  0  0  0  0
    9.3607   15.0600   22.9013 N   0  0  0  0  0  0  0  0  0  0  0  0
    9.8248   15.1542   21.9979 H   0  0  0  0  0  0  0  0  0  0  0  0
   10.2808   15.6157   23.8998 C   0  0  0  0  0  0  0  0  0  0  0  0
   11.7417   15.3710   23.5366 C   0  0  0  0  0  0  0  0  0  0  0  0
   12.3247   16.2577   21.0904 C   0  0  0  0  0  0  0  0  0  0  0  0
   12.0798   15.9086   22.2122 C   0  0  0  0  0  0  0  0  0  0  0  0
    8.5584   13.3189   24.7461 C   0  0  0  0  0  0  0  0  0  0  0  0
    7.4842   12.2841   25.0615 C   0  0  0  0  0  0  0  0  0  0  0  0
    8.0184   10.8557   25.1185 C   0  0  0  0  0  0  0  0  0  0  0  0
    6.9601    9.8701   25.5684 C   0  0  0  0  0  0  0  0  0  0  0  0
    6.1430   10.3283   26.7645 C   0  0  0  0  0  0  0  0  0  0  0  0
    5.6592   11.6949   26.6255 N   0  0  0  0  0  0  0  0  0  0  0  0
    6.7299   12.6449   26.3409 C   0  0  0  0  0  0  0  0  0  0  0  0
    5.2020   11.9693   27.4950 H   0  0  0  0  0  0  0  0  0  0  0  0
  8  9  3  0  0  0
  9  7  1  0  0  0
  7  6  1  0  0  0
  6  4  1  0  0  0
  4  1  1  0  0  0
  1  2  2  0  0  0
  1  3  2  0  0  0
  1 10  1  0  0  0
 11 10  1  0  0  0
 11 12  1  0  0  0
 12 13  1  0  0  0
 13 14  1  0  0  0
 14 15  1  0  0  0
 15 16  1  0  0  0
 16 11  1  0  0  0
  4  5  1  0  0  0
 15 17  1  0  0  0
M  END
> <minimizedAffinity>
-4.98166

> <minimizedRMSD>
0.68787

$$$$
C8173-P213


 19 19  0  0  0  0  0  0  0  0999 V2000
    8.5639   13.7317   22.0343 O   0  0  0  0  0  0  0  0  0  0  0  0
    9.4218   13.6879   22.8266 C   0  0  0  0  0  0  0  0  0  0  0  0
   10.5615   14.7063   23.1390 N   0  0  0  0  0  0  0  0  0  0  0  0
   11.1217   14.4734   23.9143 H   0  0  0  0  0  0  0  0  0  0  0  0
    9.7270   12.4996   23.7503 C   0  0  0  0  0  0  0  0  0  0  0  0
   10.9641   12.6181   24.3233 F   0  0  0  0  0  0  0  0  0  0  0  0
    8.7342   12.1078   24.8327 C   0  0  0  0  0  0  0  0  0  0  0  0
    8.0503   10.7656   24.6373 C   0  0  0  0  0  0  0  0  0  0  0  0
    7.1769   10.4283   25.8361 C   0  0  0  0  0  0  0  0  0  0  0  0
    6.2324   11.4664   26.2052 N   0  0  0  0  0  0  0  0  0  0  0  0
    6.8515   12.7749   26.3781 C   0  0  0  0  0  0  0  0  0  0  0  0
    7.7379   13.2022   25.2033 C   0  0  0  0  0  0  0  0  0  0  0  0
    5.7863   11.2009   27.0832 H   0  0  0  0  0  0  0  0  0  0  0  0
   10.9273   15.9337   22.4761 C   0  0  0  0  0  0  0  0  0  0  0  0
   11.8530   15.6139   21.3146 C   0  0  0  0  0  0  0  0  0  0  0  0
   11.1856   15.8514   19.9882 C   0  0  0  0  0  0  0  0  0  0  0  0
   10.1122   15.0707   19.8017 F   0  0  0  0  0  0  0  0  0  0  0  0
   10.7992   17.1356   19.8703 F   0  0  0  0  0  0  0  0  0  0  0  0
   12.0431   15.5773   18.9832 F   0  0  0  0  0  0  0  0  0  0  0  0
  1  2  2  0  0  0
  2  3  1  0  0  0
  3 14  1  0  0  0
 14 15  1  0  0  0
 15 16  1  0  0  0
 16 17  1  0  0  0
 16 18  1  0  0  0
 16 19  1  0  0  0
  2  5  1  0  0  0
  5  6  1  0  0  0
  5  7  1  0  0  0
  7  8  1  0  0  0
  8  9  1  0  0  0
  9 10  1  0  0  0
 10 11  1  0  0  0
 11 12  1  0  0  0
 12  7  1  0  0  0
  3  4  1  0  0  0
 10 13  1  0  0  0
M  END
> <minimizedAffinity>
-5.84212

> <minimizedRMSD>
1.40184

$$$$
C7489-P197


 14 14  0  0  0  0  0  0  0  0999 V2000
    5.6507   10.5211   27.4203 C   0  0  0  0  0  0  0  0  0  0  0  0
    6.0888    9.7423   28.1709 O   0  0  0  0  0  0  0  0  0  0  0  0
    6.2649   11.1321   26.1335 N   0  0  0  0  0  0  0  0  0  0  0  0
    5.6588   11.7185   25.6256 H   0  0  0  0  0  0  0  0  0  0  0  0
    7.5792   10.9806   25.5605 C   0  0  0  0  0  0  0  0  0  0  0  0
    7.7123    9.6757   24.8045 C   0  0  0  0  0  0  0  0  0  0  0  0
    9.0128    9.5448   24.0281 C   0  0  0  0  0  0  0  0  0  0  0  0
    9.4314   10.7640   23.3575 N   0  0  0  0  0  0  0  0  0  0  0  0
    9.3793   11.9742   24.1588 C   0  0  0  0  0  0  0  0  0  0  0  0
    7.9919   12.1897   24.7410 C   0  0  0  0  0  0  0  0  0  0  0  0
    8.8272   10.8988   22.5468 H   0  0  0  0  0  0  0  0  0  0  0  0
    4.6173   12.4630   28.4645 C   0  0  0  0  0  0  0  0  0  0  0  0
    4.3136   11.2126   27.6527 C   0  0  0  0  0  0  0  0  0  0  0  0
    3.3501   10.2973   28.4014 C   0  0  0  0  0  0  0  0  0  0  0  0
 12 13  1  0  0  0
 13 14  1  0  0  0
 13  1  1  0  0  0
  1  2  2  0  0  0
  1  3  1  0  0  0
  3  5  1  0  0  0
  5  6  1  0  0  0
  6  7  1  0  0  0
  7  8  1  0  0  0
  8  9  1  0  0  0
  9 10  1  0  0  0
 10  5  1  0  0  0
  3  4  1  0  0  0
  8 11  1  0  0  0
M  END
> <minimizedAffinity>
-3.52964

> <minimizedRMSD>
0.18091

$$$$
C7500-P197


 16 16  0  0  0  0  0  0  0  0999 V2000
    6.4385   11.1513   25.9103 N   0  0  0  0  0  0  0  0  0  0  0  0
    6.3073   11.8563   26.6358 H   0  0  0  0  0  0  0  0  0  0  0  0
    7.8246   11.2390   25.4628 C   0  0  0  0  0  0  0  0  0  0  0  0
    8.2849   10.1368   24.5254 C   0  0  0  0  0  0  0  0  0  0  0  0
    9.5996   10.4261   23.8132 C   0  0  0  0  0  0  0  0  0  0  0  0
    9.7322   11.7896   23.3361 N   0  0  0  0  0  0  0  0  0  0  0  0
    9.4166   12.8180   24.3116 C   0  0  0  0  0  0  0  0  0  0  0  0
    8.0171   12.6341   24.8675 C   0  0  0  0  0  0  0  0  0  0  0  0
    9.1066   11.9075   22.5392 H   0  0  0  0  0  0  0  0  0  0  0  0
    5.9808    9.8755   26.4538 C   0  0  0  0  0  0  0  0  0  0  0  0
    5.0986   10.0628   27.7319 C   0  0  0  0  0  0  0  0  0  0  0  0
    6.0037    9.8490   28.9557 C   0  0  0  0  0  0  0  0  0  0  0  0
    4.4639   11.4669   27.7894 C   0  0  0  0  0  0  0  0  0  0  0  0
    4.0362    9.0873   27.6568 O   0  0  0  0  0  0  0  0  0  0  0  0
    1.7864    8.3568   28.0074 C   0  0  0  0  0  0  0  0  0  0  0  0
    2.8083    9.4381   28.2940 C   0  0  0  0  0  0  0  0  0  0  0  0
 15 16  1  0  0  0
 16 14  1  0  0  0
 14 11  1  0  0  0
 11 12  1  0  0  0
 11 13  1  0  0  0
 11 10  1  0  0  0
 10  1  1  0  0  0
  1  3  1  0  0  0
  3  4  1  0  0  0
  4  5  1  0  0  0
  5  6  1  0  0  0
  6  7  1  0  0  0
  7  8  1  0  0  0
  8  3  1  0  0  0
  1  2  1  0  0  0
  6  9  1  0  0  0
M  END
> <minimizedAffinity>
-3.72934

> <minimizedRMSD>
1.25154

$$$$
C18925-P134


 14 15  0  0  0  0  0  0  0  0999 V2000
    9.1927   13.2233   23.9181 C   0  0  0  0  0  0  0  0  0  0  0  0
   10.3055   14.0386   23.6205 C   0  0  0  0  0  0  0  0  0  0  0  0
   11.5887   13.6338   23.9772 C   0  0  0  0  0  0  0  0  0  0  0  0
   11.6991   12.4119   24.6056 C   0  0  0  0  0  0  0  0  0  0  0  0
   10.6082   11.5675   24.8309 C   0  0  0  0  0  0  0  0  0  0  0  0
    9.3254   11.9633   24.5207 C   0  0  0  0  0  0  0  0  0  0  0  0
   11.0246   10.3238   25.3072 N   0  0  0  0  0  0  0  0  0  0  0  0
   12.3992   10.2704   25.3997 C   0  0  0  0  0  0  0  0  0  0  0  0
   13.1187    9.3254   25.6444 O   0  0  0  0  0  0  0  0  0  0  0  0
   12.8956   11.6765   25.0113 C   0  0  0  0  0  0  0  0  0  0  0  0
   14.0525   12.0157   24.9359 O   0  0  0  0  0  0  0  0  0  0  0  0
   10.4191    9.5849   25.5449 H   0  0  0  0  0  0  0  0  0  0  0  0
    7.5200   13.5585   22.3409 O   0  0  0  0  0  0  0  0  0  0  0  0
    7.8670   13.6927   23.5081 C   0  0  0  0  0  0  0  0  0  0  0  0
 13 14  2  0  0  0
 14  1  1  0  0  0
  1  2  2  0  0  0
  2  3  1  0  0  0
  3  4  2  0  0  0
  4  5  1  0  0  0
  5  6  2  0  0  0
  5  7  1  0  0  0
  7  8  1  0  0  0
  8  9  2  0  0  0
  8 10  1  0  0  0
 10 11  2  0  0  0
  6  1  1  0  0  0
 10  4  1  0  0  0
  7 12  1  0  0  0
M  END
> <minimizedAffinity>
-5.91320

> <minimizedRMSD>
0.32965

$$$$
C24522-P77


 15 15  0  0  0  0  0  0  0  0999 V2000
    8.7335   14.2382   23.0204 C   0  0  0  0  0  0  0  0  0  0  0  0
    7.6270   14.6090   22.0397 C   0  0  0  0  0  0  0  0  0  0  0  0
    8.3237   14.8227   24.2896 O   0  0  0  0  0  0  0  0  0  0  0  0
    8.3299   15.7899   24.2171 H   0  0  0  0  0  0  0  0  0  0  0  0
    8.7091   12.7066   23.1816 C   0  0  0  0  0  0  0  0  0  0  0  0
    8.6449   12.1000   24.6078 C   0  0  0  0  0  0  0  0  0  0  0  0
    9.5765   11.0300   24.0374 C   0  0  0  0  0  0  0  0  0  0  0  0
   10.0147   12.0059   23.0151 N   0  0  0  0  0  0  0  0  0  0  0  0
   10.1644   11.6073   22.0882 H   0  0  0  0  0  0  0  0  0  0  0  0
   10.1712   14.8010   22.7527 C   0  0  0  0  0  0  0  0  0  0  0  0
   11.0132   14.5752   23.6465 O   0  0  0  0  0  0  0  0  0  0  0  0
   10.5416   14.4231   20.3702 C   0  0  0  0  0  0  0  0  0  0  0  0
   10.6100   15.4845   21.4245 C   0  0  0  0  0  0  0  0  0  0  0  0
   12.0895   15.9102   21.5324 C   0  0  0  0  0  0  0  0  0  0  0  0
    9.8300   16.6817   20.8578 C   0  0  0  0  0  0  0  0  0  0  0  0
 12 13  1  0  0  0
 13 14  1  0  0  0
 13 15  1  0  0  0
 13 10  1  0  0  0
 10 11  2  0  0  0
 10  1  1  0  0  0
  1  2  1  0  0  0
  1  3  1  0  0  0
  1  5  1  0  0  0
  5  6  1  0  0  0
  6  7  1  0  0  0
  7  8  1  0  0  0
  8  5  1  0  0  0
  3  4  1  0  0  0
  8  9  1  0  0  0
M  END
> <minimizedAffinity>
-4.55576

> <minimizedRMSD>
1.36854

$$$$
C495-P374


 24 26  0  0  0  0  0  0  0  0999 V2000
   23.7400   23.6172   16.8937 N   0  0  0  0  0  0  0  0  0  0  0  0
   23.3456   24.7960   15.9599 C   0  0  0  0  0  0  0  0  0  0  0  0
   23.9947   25.6602   15.5165 O   0  0  0  0  0  0  0  0  0  0  0  0
   22.9868   23.0581   17.1926 H   0  0  0  0  0  0  0  0  0  0  0  0
   26.1594   21.0809   20.9247 C   0  0  0  0  0  0  0  0  0  0  0  0
   26.9896   21.6642   19.8186 C   0  0  0  0  0  0  0  0  0  0  0  0
   28.3853   21.5197   19.8662 C   0  0  0  0  0  0  0  0  0  0  0  0
   29.2022   22.0292   18.8583 C   0  0  0  0  0  0  0  0  0  0  0  0
   28.6727   22.6916   17.7613 C   0  0  0  0  0  0  0  0  0  0  0  0
   27.2860   22.8341   17.7073 C   0  0  0  0  0  0  0  0  0  0  0  0
   26.3496   23.5914   16.4842 S   0  0  0  0  0  0  0  0  0  0  0  0
   24.9486   23.2354   17.3618 C   0  0  0  0  0  0  0  0  0  0  0  0
   25.0861   22.5805   18.4864 N   0  0  0  0  0  0  0  0  0  0  0  0
   26.4373   22.3436   18.7055 C   0  0  0  0  0  0  0  0  0  0  0  0
   21.8568   24.6439   15.7207 C   0  0  0  0  0  0  0  0  0  0  0  0
   21.4678   25.1672   14.3495 C   0  0  0  0  0  0  0  0  0  0  0  0
   20.0617   24.9458   14.2007 O   0  0  0  0  0  0  0  0  0  0  0  0
   19.6001   25.1429   12.8550 C   0  0  0  0  0  0  0  0  0  0  0  0
   20.4892   24.4311   11.8218 C   0  0  0  0  0  0  0  0  0  0  0  0
   19.6985   23.8632   10.6443 C   0  0  0  0  0  0  0  0  0  0  0  0
   18.5826   24.7358   10.2983 N   0  0  0  0  0  0  0  0  0  0  0  0
   17.5903   24.8155   11.3721 C   0  0  0  0  0  0  0  0  0  0  0  0
   18.1693   24.6190   12.7732 C   0  0  0  0  0  0  0  0  0  0  0  0
   18.1302   24.3736    9.4590 H   0  0  0  0  0  0  0  0  0  0  0  0
  5  6  1  0  0  0
  6  7  2  0  0  0
  7  8  1  0  0  0
  8  9  2  0  0  0
  9 10  1  0  0  0
 10 11  1  0  0  0
 11 12  1  0  0  0
 12  1  1  0  0  0
  1  2  1  0  0  0
  2  3  2  0  0  0
  2 15  1  0  0  0
 15 16  1  0  0  0
 16 17  1  0  0  0
 17 18  1  0  0  0
 18 19  1  0  0  0
 19 20  1  0  0  0
 20 21  1  0  0  0
 21 22  1  0  0  0
 22 23  1  0  0  0
 12 13  2  0  0  0
 13 14  1  0  0  0
 14  6  1  0  0  0
 14 10  2  0  0  0
 23 18  1  0  0  0
  1  4  1  0  0  0
 21 24  1  0  0  0
M  END
> <minimizedAffinity>
-3.64441

> <minimizedRMSD>
1.43040

$$$$
C7587-P191


 14 14  0  0  0  0  0  0  0  0999 V2000
    9.7167   12.8172   22.8671 N   0  0  0  0  0  0  0  0  0  0  0  0
   10.3120   12.2824   22.2346 H   0  0  0  0  0  0  0  0  0  0  0  0
    9.1768   11.9168   23.9067 C   0  0  0  0  0  0  0  0  0  0  0  0
    9.3084   10.4501   23.5603 C   0  0  0  0  0  0  0  0  0  0  0  0
    8.0640    9.8060   24.1375 C   0  0  0  0  0  0  0  0  0  0  0  0
    7.3608   10.8409   24.8971 N   0  0  0  0  0  0  0  0  0  0  0  0
    7.7231   12.1197   24.2742 C   0  0  0  0  0  0  0  0  0  0  0  0
    7.6567   10.8262   25.8731 H   0  0  0  0  0  0  0  0  0  0  0  0
   10.6311   14.0601   23.5824 S   0  0  0  0  0  0  0  0  0  0  0  0
   11.5362   13.4187   24.5102 O   0  0  0  0  0  0  0  0  0  0  0  0
    9.6762   15.0408   24.0498 O   0  0  0  0  0  0  0  0  0  0  0  0
   11.5263   14.6863   22.1754 C   0  0  0  0  0  0  0  0  0  0  0  0
   12.7363   16.8828   21.8440 C   0  0  0  0  0  0  0  0  0  0  0  0
   11.3942   16.1945   22.0303 C   0  0  0  0  0  0  0  0  0  0  0  0
 13 14  1  0  0  0
 14 12  1  0  0  0
 12  9  1  0  0  0
  9 10  2  0  0  0
  9 11  2  0  0  0
  9  1  1  0  0  0
  3  1  1  0  0  0
  3  4  1  0  0  0
  4  5  1  0  0  0
  5  6  1  0  0  0
  6  7  1  0  0  0
  7  3  1  0  0  0
  1  2  1  0  0  0
  6  8  1  0  0  0
M  END
> <minimizedAffinity>
-4.71233

> <minimizedRMSD>
0.92919

$$$$
C7597-P191


 13 13  0  0  0  0  0  0  0  0999 V2000
   10.0340   12.7254   23.2983 N   0  0  0  0  0  0  0  0  0  0  0  0
   10.3800   12.6949   24.2573 H   0  0  0  0  0  0  0  0  0  0  0  0
    8.9121   11.7611   23.2656 C   0  0  0  0  0  0  0  0  0  0  0  0
    9.2374   10.2752   23.5133 C   0  0  0  0  0  0  0  0  0  0  0  0
    7.9638   10.1391   24.2477 N   0  0  0  0  0  0  0  0  0  0  0  0
    7.9122   11.6076   24.4177 C   0  0  0  0  0  0  0  0  0  0  0  0
    8.0399    9.6202   25.1225 H   0  0  0  0  0  0  0  0  0  0  0  0
    9.9691   14.3397   22.9166 S   0  0  0  0  0  0  0  0  0  0  0  0
    9.6303   15.0294   24.1386 O   0  0  0  0  0  0  0  0  0  0  0  0
    9.1437   14.4636   21.7348 O   0  0  0  0  0  0  0  0  0  0  0  0
   11.6736   14.6711   22.4915 C   0  0  0  0  0  0  0  0  0  0  0  0
   12.7160   16.8821   21.8380 C   0  0  0  0  0  0  0  0  0  0  0  0
   11.8117   15.7358   21.4118 C   0  0  0  0  0  0  0  0  0  0  0  0
 12 13  1  0  0  0
 13 11  1  0  0  0
 11  8  1  0  0  0
  8  9  2  0  0  0
  8 10  2  0  0  0
  8  1  1  0  0  0
  1  3  1  0  0  0
  3  4  1  0  0  0
  4  5  1  0  0  0
  5  6  1  0  0  0
  6  3  1  0  0  0
  1  2  1  0  0  0
  5  7  1  0  0  0
M  END
> <minimizedAffinity>
-4.34835

> <minimizedRMSD>
1.54295

$$$$
C7633-P191


 15 15  0  0  0  0  0  0  0  0999 V2000
    8.8662   14.2731   23.8906 C   0  0  0  0  0  0  0  0  0  0  0  0
    8.8676   12.7767   24.3703 C   0  0  0  0  0  0  0  0  0  0  0  0
    9.4852   11.7414   23.4225 C   0  0  0  0  0  0  0  0  0  0  0  0
    9.1146   10.2674   23.6573 C   0  0  0  0  0  0  0  0  0  0  0  0
    7.8083    9.9401   24.3576 C   0  0  0  0  0  0  0  0  0  0  0  0
    7.3397   10.9901   25.3361 C   0  0  0  0  0  0  0  0  0  0  0  0
    7.4572   12.3821   24.7688 C   0  0  0  0  0  0  0  0  0  0  0  0
    7.9808   14.6523   22.3470 S   0  0  0  0  0  0  0  0  0  0  0  0
    9.1570   14.5067   21.1714 N   0  0  0  0  0  0  0  0  0  0  0  0
    6.9963   13.6340   22.0688 O   0  0  0  0  0  0  0  0  0  0  0  0
    7.5964   16.0454   22.3236 O   0  0  0  0  0  0  0  0  0  0  0  0
    9.4790   13.5397   21.1305 H   0  0  0  0  0  0  0  0  0  0  0  0
    9.9420   15.1172   21.3985 H   0  0  0  0  0  0  0  0  0  0  0  0
   10.9148   14.7618   25.2735 C   0  0  0  0  0  0  0  0  0  0  0  0
   10.2770   14.8743   23.8928 C   0  0  0  0  0  0  0  0  0  0  0  0
 14 15  1  0  0  0
  1 15  1  0  0  0
  1  2  1  0  0  0
  2  3  1  0  0  0
  3  4  1  0  0  0
  4  5  1  0  0  0
  5  6  1  0  0  0
  6  7  1  0  0  0
  1  8  1  0  0  0
  8  9  1  0  0  0
  8 10  2  0  0  0
  8 11  2  0  0  0
  7  2  1  0  0  0
  9 12  1  0  0  0
  9 13  1  0  0  0
M  END
> <minimizedAffinity>
-4.62461

> <minimizedRMSD>
1.45422

$$$$
C7652-P191


 13 13  0  0  0  0  0  0  0  0999 V2000
    9.8223   13.1460   23.6681 N   0  0  0  0  0  0  0  0  0  0  0  0
    9.8409   13.3532   24.6667 H   0  0  0  0  0  0  0  0  0  0  0  0
    8.6992   12.2451   23.4582 C   0  0  0  0  0  0  0  0  0  0  0  0
    7.7546   12.1762   24.6098 C   0  0  0  0  0  0  0  0  0  0  0  0
    7.4801   10.9171   24.9680 C   0  0  0  0  0  0  0  0  0  0  0  0
    8.2633    9.9350   24.1714 C   0  0  0  0  0  0  0  0  0  0  0  0
    9.2425   10.8092   23.4101 C   0  0  0  0  0  0  0  0  0  0  0  0
    9.9282   14.6099   22.8848 S   0  0  0  0  0  0  0  0  0  0  0  0
    9.7232   15.6030   23.9146 O   0  0  0  0  0  0  0  0  0  0  0  0
    9.0857   14.5676   21.7124 O   0  0  0  0  0  0  0  0  0  0  0  0
   11.6462   14.6709   22.3817 C   0  0  0  0  0  0  0  0  0  0  0  0
   12.7394   16.9065   21.8672 C   0  0  0  0  0  0  0  0  0  0  0  0
   11.8964   15.7544   21.3348 C   0  0  0  0  0  0  0  0  0  0  0  0
 12 13  1  0  0  0
 13 11  1  0  0  0
 11  8  1  0  0  0
  8  9  2  0  0  0
  8 10  2  0  0  0
  8  1  1  0  0  0
  3  1  1  0  0  0
  3  4  1  0  0  0
  4  5  2  0  0  0
  5  6  1  0  0  0
  6  7  1  0  0  0
  7  3  1  0  0  0
  1  2  1  0  0  0
M  END
> <minimizedAffinity>
-4.65622

> <minimizedRMSD>
1.57609

$$$$
C7653-P191


 14 14  0  0  0  0  0  0  0  0999 V2000
    9.8821   12.9064   22.9752 N   0  0  0  0  0  0  0  0  0  0  0  0
   10.4468   12.4100   22.2859 H   0  0  0  0  0  0  0  0  0  0  0  0
    9.2623   11.9191   23.8896 C   0  0  0  0  0  0  0  0  0  0  0  0
    7.8968   12.3842   24.3690 C   0  0  0  0  0  0  0  0  0  0  0  0
    7.2254   11.3124   25.1529 C   0  0  0  0  0  0  0  0  0  0  0  0
    7.4541   10.0174   24.9222 C   0  0  0  0  0  0  0  0  0  0  0  0
    8.3990    9.4964   23.8890 C   0  0  0  0  0  0  0  0  0  0  0  0
    9.3262   10.5286   23.2676 C   0  0  0  0  0  0  0  0  0  0  0  0
   10.8672   13.9942   23.8087 S   0  0  0  0  0  0  0  0  0  0  0  0
   11.8177   13.1962   24.5508 O   0  0  0  0  0  0  0  0  0  0  0  0
    9.9980   14.9252   24.4899 O   0  0  0  0  0  0  0  0  0  0  0  0
   11.6973   14.7951   22.4634 C   0  0  0  0  0  0  0  0  0  0  0  0
   12.7446   16.9150   21.7316 C   0  0  0  0  0  0  0  0  0  0  0  0
   12.3286   16.0931   22.9293 C   0  0  0  0  0  0  0  0  0  0  0  0
 13 14  1  0  0  0
 14 12  1  0  0  0
 12  9  1  0  0  0
  9 10  2  0  0  0
  9 11  2  0  0  0
  9  1  1  0  0  0
  3  1  1  0  0  0
  3  4  1  0  0  0
  4  5  1  0  0  0
  5  6  2  0  0  0
  6  7  1  0  0  0
  7  8  1  0  0  0
  8  3  1  0  0  0
  1  2  1  0  0  0
M  END
> <minimizedAffinity>
-5.03977

> <minimizedRMSD>
0.66302

$$$$
C7654-P191


 13 13  0  0  0  0  0  0  0  0999 V2000
   10.0562   13.1809   22.9028 N   0  0  0  0  0  0  0  0  0  0  0  0
   10.7298   13.2619   23.6645 H   0  0  0  0  0  0  0  0  0  0  0  0
    8.9602   12.3606   23.4230 C   0  0  0  0  0  0  0  0  0  0  0  0
    9.3937   10.9069   23.4826 C   0  0  0  0  0  0  0  0  0  0  0  0
    8.2571   10.1134   24.0746 C   0  0  0  0  0  0  0  0  0  0  0  0
    7.3617   11.2411   25.1753 S   0  0  0  0  0  0  0  0  0  0  0  0
    8.3212   12.7160   24.7485 C   0  0  0  0  0  0  0  0  0  0  0  0
    9.8486   14.7195   22.3150 S   0  0  0  0  0  0  0  0  0  0  0  0
    9.6884   15.5732   23.4675 O   0  0  0  0  0  0  0  0  0  0  0  0
    8.8447   14.6764   21.2767 O   0  0  0  0  0  0  0  0  0  0  0  0
   11.4471   14.9648   21.5591 C   0  0  0  0  0  0  0  0  0  0  0  0
   12.8532   17.0229   21.8586 C   0  0  0  0  0  0  0  0  0  0  0  0
   11.6849   16.3966   21.1196 C   0  0  0  0  0  0  0  0  0  0  0  0
 12 13  1  0  0  0
 13 11  1  0  0  0
 11  8  1  0  0  0
  8  9  2  0  0  0
  8 10  2  0  0  0
  8  1  1  0  0  0
  3  1  1  0  0  0
  3  4  1  0  0  0
  4  5  1  0  0  0
  5  6  1  0  0  0
  6  7  1  0  0  0
  7  3  1  0  0  0
  1  2  1  0  0  0
M  END
> <minimizedAffinity>
-4.56317

> <minimizedRMSD>
1.86647

$$$$
C7479-P423


 24 25  0  0  0  0  0  0  0  0999 V2000
    7.2176   14.7539   22.5739 S   0  0  0  0  0  0  0  0  0  0  0  0
    6.8012   13.4820   21.9986 O   0  0  0  0  0  0  0  0  0  0  0  0
    8.3404   15.3782   21.9097 O   0  0  0  0  0  0  0  0  0  0  0  0
    7.0941   14.8880   24.0965 N   0  0  0  0  0  0  0  0  0  0  0  0
    8.3764   14.4367   24.8121 S   0  0  0  0  0  0  0  0  0  0  0  0
    8.2143   15.0113   26.4901 C   0  0  0  0  0  0  0  0  0  0  0  0
    9.7131   14.8173   24.4068 O   0  0  0  0  0  0  0  0  0  0  0  0
    8.3886   12.6481   25.0436 C   0  0  0  0  0  0  0  0  0  0  0  0
    9.3335   11.9520   24.0594 C   0  0  0  0  0  0  0  0  0  0  0  0
    9.4109   10.4533   24.3273 C   0  0  0  0  0  0  0  0  0  0  0  0
    8.0412    9.8012   24.3526 C   0  0  0  0  0  0  0  0  0  0  0  0
    7.0472   10.5281   25.2463 C   0  0  0  0  0  0  0  0  0  0  0  0
    6.9934   12.0275   25.0055 C   0  0  0  0  0  0  0  0  0  0  0  0
    5.9581   15.7808   22.1705 N   0  0  0  0  0  0  0  0  0  0  0  0
    6.1980   16.7119   22.5109 H   0  0  0  0  0  0  0  0  0  0  0  0
    4.6413   15.4445   22.6972 C   0  0  0  0  0  0  0  0  0  0  0  0
    3.0178   14.9875   20.6976 C   0  0  0  0  0  0  0  0  0  0  0  0
    2.0448   15.7374   20.0978 O   0  0  0  0  0  0  0  0  0  0  0  0
    2.1514   16.9517   20.6833 C   0  0  0  0  0  0  0  0  0  0  0  0
    3.0467   17.0406   21.6413 N   0  0  0  0  0  0  0  0  0  0  0  0
    3.6066   15.7744   21.6764 C   0  0  0  0  0  0  0  0  0  0  0  0
    3.7330   13.5376   18.7912 C   0  0  0  0  0  0  0  0  0  0  0  0
    3.1552   13.5925   20.2038 C   0  0  0  0  0  0  0  0  0  0  0  0
    1.8021   12.8778   20.2325 C   0  0  0  0  0  0  0  0  0  0  0  0
 22 23  1  0  0  0
 23 24  1  0  0  0
 23 17  1  0  0  0
 17 18  1  0  0  0
 18 19  1  0  0  0
 19 20  2  0  0  0
 20 21  1  0  0  0
 21 16  1  0  0  0
 16 14  1  0  0  0
 14  1  1  0  0  0
  1  2  2  0  0  0
  1  3  2  0  0  0
  1  4  1  0  0  0
  4  5  2  0  0  0
  5  6  1  0  0  0
  5  7  2  0  0  0
  5  8  1  0  0  0
  8  9  1  0  0  0
  9 10  1  0  0  0
 10 11  1  0  0  0
 11 12  1  0  0  0
 12 13  1  0  0  0
 21 17  2  0  0  0
 13  8  1  0  0  0
 14 15  1  0  0  0
M  END
> <minimizedAffinity>
-5.62477

> <minimizedRMSD>
0.73898

$$$$
C21692-P77


 16 16  0  0  0  0  0  0  0  0999 V2000
    7.4733   15.1261   25.1992 C   0  0  0  0  0  0  0  0  0  0  0  0
    6.3989   14.5980   24.2704 C   0  0  0  0  0  0  0  0  0  0  0  0
    5.2637   15.6727   22.1786 N   0  0  0  0  0  0  0  0  0  0  0  0
    6.6880   14.8384   22.5319 S   0  0  0  0  0  0  0  0  0  0  0  0
    7.7339   15.7984   22.2931 O   0  0  0  0  0  0  0  0  0  0  0  0
    6.5814   13.6003   21.7916 O   0  0  0  0  0  0  0  0  0  0  0  0
    5.2445   15.9076   21.1862 H   0  0  0  0  0  0  0  0  0  0  0  0
    5.2252   16.5290   22.7314 H   0  0  0  0  0  0  0  0  0  0  0  0
    8.4445   14.0521   25.6798 C   0  0  0  0  0  0  0  0  0  0  0  0
    8.9915   13.1214   24.7206 N   0  0  0  0  0  0  0  0  0  0  0  0
    8.7635   11.7043   24.8692 C   0  0  0  0  0  0  0  0  0  0  0  0
    9.5139   11.0714   23.7105 C   0  0  0  0  0  0  0  0  0  0  0  0
   10.3002   12.1419   23.1934 N   0  0  0  0  0  0  0  0  0  0  0  0
    9.9832   13.3411   23.7788 C   0  0  0  0  0  0  0  0  0  0  0  0
   10.5176   14.3886   23.4841 O   0  0  0  0  0  0  0  0  0  0  0  0
   10.9891   12.0333   22.4985 H   0  0  0  0  0  0  0  0  0  0  0  0
  3  4  1  0  0  0
  4  5  2  0  0  0
  4  6  2  0  0  0
  4  2  1  0  0  0
  2  1  1  0  0  0
  1  9  1  0  0  0
  9 10  1  0  0  0
 10 11  1  0  0  0
 11 12  1  0  0  0
 12 13  1  0  0  0
 13 14  1  0  0  0
 14 15  2  0  0  0
 14 10  1  0  0  0
  3  7  1  0  0  0
  3  8  1  0  0  0
 13 16  1  0  0  0
M  END
> <minimizedAffinity>
-4.15848

> <minimizedRMSD>
0.94876

$$$$
C9547-P384


  9  9  0  0  0  0  0  0  0  0999 V2000
    9.0406   11.0073   24.8360 C   0  0  0  0  0  0  0  0  0  0  0  0
    7.7870   10.3577   25.0616 C   0  0  0  0  0  0  0  0  0  0  0  0
    7.6514    9.1094   24.6208 N   0  0  0  0  0  0  0  0  0  0  0  0
    9.0668    8.6704   23.8674 S   0  0  0  0  0  0  0  0  0  0  0  0
    9.8686   10.1522   24.1303 C   0  0  0  0  0  0  0  0  0  0  0  0
    9.4520   12.3458   25.2530 C   0  0  0  0  0  0  0  0  0  0  0  0
   10.6429   12.6474   25.2902 O   0  0  0  0  0  0  0  0  0  0  0  0
    8.9298   14.5798   26.3176 C   0  0  0  0  0  0  0  0  0  0  0  0
    8.3667   13.3291   25.6627 C   0  0  0  0  0  0  0  0  0  0  0  0
  8  9  1  0  0  0
  9  6  1  0  0  0
  6  7  2  0  0  0
  6  1  1  0  0  0
  1  2  1  0  0  0
  2  3  2  0  0  0
  3  4  1  0  0  0
  4  5  1  0  0  0
  5  1  2  0  0  0
M  END
> <minimizedAffinity>
-3.48246

> <minimizedRMSD>
1.62010

$$$$
C9548-P384


  9  9  0  0  0  0  0  0  0  0999 V2000
    8.8754   10.7472   24.7477 C   0  0  0  0  0  0  0  0  0  0  0  0
    7.5858   10.4554   25.2486 C   0  0  0  0  0  0  0  0  0  0  0  0
    7.1929    9.2133   24.9608 N   0  0  0  0  0  0  0  0  0  0  0  0
    8.2463    8.6529   24.2594 O   0  0  0  0  0  0  0  0  0  0  0  0
    9.2370    9.5706   24.1301 C   0  0  0  0  0  0  0  0  0  0  0  0
    9.6879   11.9913   24.8851 C   0  0  0  0  0  0  0  0  0  0  0  0
    8.9511   13.2852   24.5536 C   0  0  0  0  0  0  0  0  0  0  0  0
   10.9954   14.4261   23.9176 O   0  0  0  0  0  0  0  0  0  0  0  0
    9.8508   14.4801   24.3546 C   0  0  0  0  0  0  0  0  0  0  0  0
  8  9  2  0  0  0
  9  7  1  0  0  0
  7  6  1  0  0  0
  6  1  1  0  0  0
  1  2  1  0  0  0
  2  3  2  0  0  0
  3  4  1  0  0  0
  4  5  1  0  0  0
  5  1  2  0  0  0
M  END
> <minimizedAffinity>
-3.47584

> <minimizedRMSD>
2.35109

$$$$
C11630-P384


 10 10  0  0  0  0  0  0  0  0999 V2000
    9.0516   10.8879   24.8161 C   0  0  0  0  0  0  0  0  0  0  0  0
    7.7555   10.3861   25.0643 C   0  0  0  0  0  0  0  0  0  0  0  0
    7.6031    9.1180   24.6717 N   0  0  0  0  0  0  0  0  0  0  0  0
    8.8041    8.8030   24.1482 N   0  0  0  0  0  0  0  0  0  0  0  0
    9.6945    9.8330   24.2010 C   0  0  0  0  0  0  0  0  0  0  0  0
    9.0161    7.9203   23.7672 H   0  0  0  0  0  0  0  0  0  0  0  0
    9.6378   12.1877   25.1140 C   0  0  0  0  0  0  0  0  0  0  0  0
   10.8501   12.3738   25.0160 O   0  0  0  0  0  0  0  0  0  0  0  0
    8.5830   14.3527   24.4465 C   0  0  0  0  0  0  0  0  0  0  0  0
    8.7282   13.3197   25.5486 C   0  0  0  0  0  0  0  0  0  0  0  0
  9 10  1  0  0  0
 10  7  1  0  0  0
  7  8  2  0  0  0
  7  1  1  0  0  0
  1  2  1  0  0  0
  2  3  2  0  0  0
  3  4  1  0  0  0
  4  5  1  0  0  0
  5  1  2  0  0  0
  4  6  1  0  0  0
M  END
> <minimizedAffinity>
-3.66636

> <minimizedRMSD>
1.58482

$$$$
C9539-P363


 10 10  0  0  0  0  0  0  0  0999 V2000
    8.1292   12.4400   25.9394 C   0  0  0  0  0  0  0  0  0  0  0  0
    7.8553   13.6660   26.5336 C   0  0  0  0  0  0  0  0  0  0  0  0
    6.6354   13.8314   27.1863 C   0  0  0  0  0  0  0  0  0  0  0  0
    5.7366   12.7723   27.2331 C   0  0  0  0  0  0  0  0  0  0  0  0
    6.0955   11.5854   26.6184 C   0  0  0  0  0  0  0  0  0  0  0  0
    7.2653   11.3959   25.9691 N   0  0  0  0  0  0  0  0  0  0  0  0
    9.4300   12.2348   25.2368 C   0  0  0  0  0  0  0  0  0  0  0  0
   10.4689   12.6821   25.7233 O   0  0  0  0  0  0  0  0  0  0  0  0
    9.6524   10.0368   23.9623 C   0  0  0  0  0  0  0  0  0  0  0  0
    9.4179   11.5335   23.8960 C   0  0  0  0  0  0  0  0  0  0  0  0
  9 10  1  0  0  0
 10  7  1  0  0  0
  7  8  2  0  0  0
  7  1  1  0  0  0
  1  2  2  0  0  0
  2  3  1  0  0  0
  3  4  2  0  0  0
  4  5  1  0  0  0
  5  6  2  0  0  0
  6  1  1  0  0  0
M  END
> <minimizedAffinity>
-2.92491

> <minimizedRMSD>
0.61310

$$$$
C9549-P363


 10 10  0  0  0  0  0  0  0  0999 V2000
    7.8730   12.6606   26.0630 C   0  0  0  0  0  0  0  0  0  0  0  0
    6.8148   11.7481   26.0962 C   0  0  0  0  0  0  0  0  0  0  0  0
    5.6041   12.1368   26.6570 C   0  0  0  0  0  0  0  0  0  0  0  0
    5.3771   13.3472   27.2011 N   0  0  0  0  0  0  0  0  0  0  0  0
    6.3988   14.2246   27.1500 C   0  0  0  0  0  0  0  0  0  0  0  0
    7.6430   13.9304   26.6080 C   0  0  0  0  0  0  0  0  0  0  0  0
    9.2556   12.3224   25.5502 C   0  0  0  0  0  0  0  0  0  0  0  0
    9.3391   11.8086   24.1187 C   0  0  0  0  0  0  0  0  0  0  0  0
    8.7516    9.4835   24.2545 O   0  0  0  0  0  0  0  0  0  0  0  0
    9.6155   10.3337   24.0859 C   0  0  0  0  0  0  0  0  0  0  0  0
  9 10  2  0  0  0
 10  8  1  0  0  0
  8  7  1  0  0  0
  7  1  1  0  0  0
  1  2  2  0  0  0
  2  3  1  0  0  0
  3  4  2  0  0  0
  4  5  1  0  0  0
  5  6  2  0  0  0
  6  1  1  0  0  0
M  END
> <minimizedAffinity>
-3.16075

> <minimizedRMSD>
0.84007

$$$$
C3759-P487


 14 15  0  0  0  0  0  0  0  0999 V2000
    6.3215   10.4587   26.3691 S   0  0  0  0  0  0  0  0  0  0  0  0
    7.4622   10.5008   25.1889 C   0  0  0  0  0  0  0  0  0  0  0  0
    8.0716    9.4985   24.5037 N   0  0  0  0  0  0  0  0  0  0  0  0
    8.9663   10.0125   23.6185 N   0  0  0  0  0  0  0  0  0  0  0  0
    8.8608   11.2938   23.7937 C   0  0  0  0  0  0  0  0  0  0  0  0
    7.9666   11.6727   24.7346 O   0  0  0  0  0  0  0  0  0  0  0  0
    7.8914    8.5389   24.6298 H   0  0  0  0  0  0  0  0  0  0  0  0
    9.6581   12.3455   23.0760 C   0  0  0  0  0  0  0  0  0  0  0  0
   10.8214   12.8699   23.9217 C   0  0  0  0  0  0  0  0  0  0  0  0
   10.5937   14.2871   24.4302 C   0  0  0  0  0  0  0  0  0  0  0  0
    9.1207   14.5400   24.7018 C   0  0  0  0  0  0  0  0  0  0  0  0
    8.3149   14.4397   23.4947 N   0  0  0  0  0  0  0  0  0  0  0  0
    8.7871   13.4710   22.5109 C   0  0  0  0  0  0  0  0  0  0  0  0
    8.2968   15.3576   23.0502 H   0  0  0  0  0  0  0  0  0  0  0  0
  1  2  2  0  0  0
  2  3  1  0  0  0
  3  4  1  0  0  0
  4  5  2  0  0  0
  8  5  1  0  0  0
  8  9  1  0  0  0
  9 10  1  0  0  0
 10 11  1  0  0  0
 11 12  1  0  0  0
 12 13  1  0  0  0
  5  6  1  0  0  0
  6  2  1  0  0  0
 13  8  1  0  0  0
  3  7  1  0  0  0
 12 14  1  0  0  0
M  END
> <minimizedAffinity>
-5.36231

> <minimizedRMSD>
0.41613

$$$$
C7640-P153


 13 13  0  0  0  0  0  0  0  0999 V2000
    7.7588   12.9830   23.2398 N   0  0  0  0  0  0  0  0  0  0  0  0
    7.8894   12.3047   22.4893 H   0  0  0  0  0  0  0  0  0  0  0  0
    8.4674   12.4195   24.3994 C   0  0  0  0  0  0  0  0  0  0  0  0
    7.5544   11.6614   25.3533 C   0  0  0  0  0  0  0  0  0  0  0  0
    7.9485   10.1943   25.3376 C   0  0  0  0  0  0  0  0  0  0  0  0
    8.9067   10.0044   24.1822 C   0  0  0  0  0  0  0  0  0  0  0  0
    9.4502   11.3812   23.8639 C   0  0  0  0  0  0  0  0  0  0  0  0
    8.0598   14.4767   22.5428 S   0  0  0  0  0  0  0  0  0  0  0  0
    8.9431   14.1944   21.4353 O   0  0  0  0  0  0  0  0  0  0  0  0
    6.7282   14.9918   22.3206 O   0  0  0  0  0  0  0  0  0  0  0  0
    8.9087   15.4928   23.7459 C   0  0  0  0  0  0  0  0  0  0  0  0
   11.1687   14.9981   24.7271 C   0  0  0  0  0  0  0  0  0  0  0  0
   10.4136   15.5447   23.5299 C   0  0  0  0  0  0  0  0  0  0  0  0
 12 13  1  0  0  0
 13 11  1  0  0  0
 11  8  1  0  0  0
  8  9  2  0  0  0
  8 10  2  0  0  0
  8  1  1  0  0  0
  1  3  1  0  0  0
  3  4  1  0  0  0
  4  5  1  0  0  0
  5  6  1  0  0  0
  6  7  1  0  0  0
  7  3  1  0  0  0
  1  2  1  0  0  0
M  END
> <minimizedAffinity>
-4.19310

> <minimizedRMSD>
1.92788

$$$$
C7643-P153


 14 15  0  0  0  0  0  0  0  0999 V2000
   10.2630   13.6809   24.7801 N   0  0  0  0  0  0  0  0  0  0  0  0
   10.5247   13.7624   25.7625 H   0  0  0  0  0  0  0  0  0  0  0  0
    9.3803   12.5047   24.6384 C   0  0  0  0  0  0  0  0  0  0  0  0
    8.1551   12.5710   25.5160 C   0  0  0  0  0  0  0  0  0  0  0  0
    7.6568   11.1546   25.7750 C   0  0  0  0  0  0  0  0  0  0  0  0
    8.3029   10.3108   24.6962 C   0  0  0  0  0  0  0  0  0  0  0  0
    9.5813   11.0336   24.4082 C   0  0  0  0  0  0  0  0  0  0  0  0
    9.5361   11.9000   23.2491 C   0  0  0  0  0  0  0  0  0  0  0  0
    9.5633   15.2012   24.2794 S   0  0  0  0  0  0  0  0  0  0  0  0
   10.6364   15.9444   23.6587 O   0  0  0  0  0  0  0  0  0  0  0  0
    8.3227   14.9497   23.5752 O   0  0  0  0  0  0  0  0  0  0  0  0
    9.1717   15.9554   25.8484 C   0  0  0  0  0  0  0  0  0  0  0  0
    9.2846   15.2765   28.2518 C   0  0  0  0  0  0  0  0  0  0  0  0
   10.0724   15.4745   26.9723 C   0  0  0  0  0  0  0  0  0  0  0  0
 13 14  1  0  0  0
 14 12  1  0  0  0
 12  9  1  0  0  0
  9 10  2  0  0  0
  9 11  2  0  0  0
  9  1  1  0  0  0
  3  1  1  0  0  0
  3  4  1  0  0  0
  4  5  1  0  0  0
  5  6  1  0  0  0
  7  6  1  0  0  0
  7  8  1  0  0  0
  7  3  1  0  0  0
  8  3  1  0  0  0
  1  2  1  0  0  0
M  END
> <minimizedAffinity>
-3.51216

> <minimizedRMSD>
1.87838

$$$$
C7664-P153


 12 12  0  0  0  0  0  0  0  0999 V2000
    8.1324   13.9809   23.2679 S   0  0  0  0  0  0  0  0  0  0  0  0
    7.8478   15.0350   24.2146 O   0  0  0  0  0  0  0  0  0  0  0  0
    7.2236   13.6432   22.1886 O   0  0  0  0  0  0  0  0  0  0  0  0
    9.6686   14.1950   22.5415 N   0  0  0  0  0  0  0  0  0  0  0  0
    9.5928   14.0605   21.5332 H   0  0  0  0  0  0  0  0  0  0  0  0
   10.1208   15.5008   22.8121 N   0  0  0  0  0  0  0  0  0  0  0  0
   10.5582   16.2310   21.5810 C   0  0  0  0  0  0  0  0  0  0  0  0
   11.9639   15.6488   21.7656 C   0  0  0  0  0  0  0  0  0  0  0  0
   11.5476   15.4527   23.2301 C   0  0  0  0  0  0  0  0  0  0  0  0
    8.4438   12.5068   24.2368 C   0  0  0  0  0  0  0  0  0  0  0  0
    9.2830   10.1360   24.0059 C   0  0  0  0  0  0  0  0  0  0  0  0
    9.4993   11.5914   23.6394 C   0  0  0  0  0  0  0  0  0  0  0  0
 11 12  1  0  0  0
 12 10  1  0  0  0
 10  1  1  0  0  0
  1  2  2  0  0  0
  1  3  2  0  0  0
  1  4  1  0  0  0
  4  6  1  0  0  0
  6  7  1  0  0  0
  7  8  1  0  0  0
  8  9  1  0  0  0
  9  6  1  0  0  0
  4  5  1  0  0  0
M  END
> <minimizedAffinity>
-4.02319

> <minimizedRMSD>
0.88317

$$$$
C7678-P153


 15 15  0  0  0  0  0  0  0  0999 V2000
    8.9278   14.5761   22.7768 C   0  0  0  0  0  0  0  0  0  0  0  0
    9.7909   15.8158   22.9244 C   0  0  0  0  0  0  0  0  0  0  0  0
   12.0198   16.6522   21.7806 N   0  0  0  0  0  0  0  0  0  0  0  0
   10.4145   16.3715   21.3552 S   0  0  0  0  0  0  0  0  0  0  0  0
    9.8447   17.6599   21.0535 O   0  0  0  0  0  0  0  0  0  0  0  0
   10.4434   15.2935   20.3996 O   0  0  0  0  0  0  0  0  0  0  0  0
   12.5339   16.9870   20.9657 H   0  0  0  0  0  0  0  0  0  0  0  0
   12.4397   15.7847   22.1146 H   0  0  0  0  0  0  0  0  0  0  0  0
    8.3900   14.0948   24.1218 C   0  0  0  0  0  0  0  0  0  0  0  0
    8.1953   12.5792   24.1721 C   0  0  0  0  0  0  0  0  0  0  0  0
    9.3943   11.8224   23.6128 C   0  0  0  0  0  0  0  0  0  0  0  0
    9.4439   10.3345   23.9218 C   0  0  0  0  0  0  0  0  0  0  0  0
    8.3098    9.7615   24.7281 C   0  0  0  0  0  0  0  0  0  0  0  0
    7.5298   10.6743   25.6667 C   0  0  0  0  0  0  0  0  0  0  0  0
    7.8801   12.1410   25.5849 C   0  0  0  0  0  0  0  0  0  0  0  0
  3  4  1  0  0  0
  4  5  2  0  0  0
  4  6  2  0  0  0
  4  2  1  0  0  0
  2  1  1  0  0  0
  1  9  1  0  0  0
  9 10  1  0  0  0
 10 11  1  0  0  0
 11 12  1  0  0  0
 12 13  1  0  0  0
 13 14  1  0  0  0
 14 15  1  0  0  0
 15 10  1  0  0  0
  3  7  1  0  0  0
  3  8  1  0  0  0
M  END
> <minimizedAffinity>
-4.87660

> <minimizedRMSD>
0.90434

$$$$
C6703-P174


 16 16  0  0  0  0  0  0  0  0999 V2000
   10.5252   14.7945   22.1569 C   0  0  0  0  0  0  0  0  0  0  0  0
   10.2451   12.5068   23.2760 C   0  0  0  0  0  0  0  0  0  0  0  0
    9.8599   13.9783   23.3139 C   0  0  0  0  0  0  0  0  0  0  0  0
   10.1647   14.5016   24.7287 C   0  0  0  0  0  0  0  0  0  0  0  0
    8.3530   14.0733   23.1499 C   0  0  0  0  0  0  0  0  0  0  0  0
    7.9152   15.2970   23.5173 F   0  0  0  0  0  0  0  0  0  0  0  0
    7.7190   13.1599   23.9215 F   0  0  0  0  0  0  0  0  0  0  0  0
    7.9406   13.8684   21.8819 F   0  0  0  0  0  0  0  0  0  0  0  0
   12.0469   14.7588   22.0987 C   0  0  0  0  0  0  0  0  0  0  0  0
   12.6756   14.1362   22.9516 O   0  0  0  0  0  0  0  0  0  0  0  0
   12.7054   15.5552   21.0842 C   0  0  0  0  0  0  0  0  0  0  0  0
   13.4517   16.7031   21.2779 C   0  0  0  0  0  0  0  0  0  0  0  0
   13.9059   17.2276   20.0991 N   0  0  0  0  0  0  0  0  0  0  0  0
   13.5322   16.3598   19.1900 C   0  0  0  0  0  0  0  0  0  0  0  0
   12.7771   15.3492   19.7246 N   0  0  0  0  0  0  0  0  0  0  0  0
   12.3609   14.6091   19.2264 H   0  0  0  0  0  0  0  0  0  0  0  0
  2  3  1  0  0  0
  3  4  1  0  0  0
  3  1  1  0  0  0
  1  9  1  0  0  0
  9 10  2  0  0  0
  9 11  1  0  0  0
 11 12  2  0  0  0
 12 13  1  0  0  0
 13 14  2  0  0  0
 14 15  1  0  0  0
  3  5  1  0  0  0
  5  6  1  0  0  0
  5  7  1  0  0  0
  5  8  1  0  0  0
 15 11  1  0  0  0
 15 16  1  0  0  0
M  END
> <minimizedAffinity>
-5.35959

> <minimizedRMSD>
0.55717

$$$$
C8169-P291


 15 15  0  0  0  0  0  0  0  0999 V2000
    7.5635   13.4488   22.6752 O   0  0  0  0  0  0  0  0  0  0  0  0
    8.9498   13.5576   23.0657 S   0  0  0  0  0  0  0  0  0  0  0  0
    9.9219   12.5379   22.7640 O   0  0  0  0  0  0  0  0  0  0  0  0
    9.5242   15.0765   22.6964 N   0  0  0  0  0  0  0  0  0  0  0  0
   10.6761   15.6065   23.4377 C   0  0  0  0  0  0  0  0  0  0  0  0
   11.9676   15.3659   22.6719 C   0  0  0  0  0  0  0  0  0  0  0  0
   11.8923   15.9472   21.2639 C   0  0  0  0  0  0  0  0  0  0  0  0
   10.6913   15.3718   20.5247 C   0  0  0  0  0  0  0  0  0  0  0  0
    9.4042   15.5857   21.3074 C   0  0  0  0  0  0  0  0  0  0  0  0
    8.9252   13.6624   24.7457 N   0  0  0  0  0  0  0  0  0  0  0  0
    9.7433   14.1948   25.0419 H   0  0  0  0  0  0  0  0  0  0  0  0
    7.7265   14.3119   25.3108 C   0  0  0  0  0  0  0  0  0  0  0  0
    7.0947   13.4150   26.3722 C   0  0  0  0  0  0  0  0  0  0  0  0
    6.2597   12.2683   25.7958 C   0  0  0  0  0  0  0  0  0  0  0  0
    7.1223   10.7149   25.7627 Cl  0  0  0  0  0  0  0  0  0  0  0  0
  1  2  2  0  0  0
  2  3  2  0  0  0
  2 10  1  0  0  0
 10 12  1  0  0  0
 12 13  1  0  0  0
 13 14  1  0  0  0
 14 15  1  0  0  0
  2  4  1  0  0  0
  4  5  1  0  0  0
  5  6  1  0  0  0
  6  7  1  0  0  0
  7  8  1  0  0  0
  8  9  1  0  0  0
  9  4  1  0  0  0
 10 11  1  0  0  0
M  END
> <minimizedAffinity>
-4.77856

> <minimizedRMSD>
0.85983

$$$$
C6269-P487


 13 14  0  0  0  0  0  0  0  0999 V2000
    9.3723   13.4113   23.7148 C   0  0  0  0  0  0  0  0  0  0  0  0
    8.0761   14.0945   24.2039 C   0  0  0  0  0  0  0  0  0  0  0  0
    7.2622   13.2025   25.5778 S   0  0  0  0  0  0  0  0  0  0  0  0
    7.2804   11.5613   24.8150 C   0  0  0  0  0  0  0  0  0  0  0  0
    8.6408   11.1429   24.2640 C   0  0  0  0  0  0  0  0  0  0  0  0
    9.1564   12.0295   23.2305 N   0  0  0  0  0  0  0  0  0  0  0  0
    8.4883   12.0550   22.4601 H   0  0  0  0  0  0  0  0  0  0  0  0
   11.0608   15.7339   20.5652 C   0  0  0  0  0  0  0  0  0  0  0  0
   11.7620   15.6312   21.7569 C   0  0  0  0  0  0  0  0  0  0  0  0
   11.2241   14.8875   22.8027 C   0  0  0  0  0  0  0  0  0  0  0  0
    9.9807   14.2788   22.6223 C   0  0  0  0  0  0  0  0  0  0  0  0
    9.2744   14.3885   21.4698 N   0  0  0  0  0  0  0  0  0  0  0  0
    9.8326   15.1094   20.4746 C   0  0  0  0  0  0  0  0  0  0  0  0
  8  9  2  0  0  0
  9 10  1  0  0  0
 10 11  2  0  0  0
  1 11  1  0  0  0
  1  2  1  0  0  0
  2  3  1  0  0  0
  3  4  1  0  0  0
  4  5  1  0  0  0
  5  6  1  0  0  0
 11 12  1  0  0  0
 12 13  2  0  0  0
 13  8  1  0  0  0
  6  1  1  0  0  0
  6  7  1  0  0  0
M  END
> <minimizedAffinity>
-5.13943

> <minimizedRMSD>
0.80478

$$$$
C725-P487


 12 13  0  0  0  0  0  0  0  0999 V2000
   11.0567   15.7986   20.5918 C   0  0  0  0  0  0  0  0  0  0  0  0
   11.7858   15.6533   21.7617 C   0  0  0  0  0  0  0  0  0  0  0  0
   11.2797   14.8594   22.7882 C   0  0  0  0  0  0  0  0  0  0  0  0
   10.0427   14.2406   22.6158 C   0  0  0  0  0  0  0  0  0  0  0  0
    9.3187   14.3811   21.4836 N   0  0  0  0  0  0  0  0  0  0  0  0
    9.8378   15.1567   20.5050 C   0  0  0  0  0  0  0  0  0  0  0  0
    9.5588   13.3776   23.6526 N   0  0  0  0  0  0  0  0  0  0  0  0
    8.2580   13.9294   24.1031 C   0  0  0  0  0  0  0  0  0  0  0  0
    7.7008   13.1631   25.2998 C   0  0  0  0  0  0  0  0  0  0  0  0
    7.4386   11.3856   24.9980 S   0  0  0  0  0  0  0  0  0  0  0  0
    8.9250   11.0001   24.0251 C   0  0  0  0  0  0  0  0  0  0  0  0
    9.3882   12.0494   23.0212 C   0  0  0  0  0  0  0  0  0  0  0  0
  1  2  2  0  0  0
  2  3  1  0  0  0
  3  4  2  0  0  0
  4  7  1  0  0  0
  7  8  1  0  0  0
  8  9  1  0  0  0
  9 10  1  0  0  0
 10 11  1  0  0  0
 11 12  1  0  0  0
  4  5  1  0  0  0
  5  6  2  0  0  0
  6  1  1  0  0  0
 12  7  1  0  0  0
M  END
> <minimizedAffinity>
-5.27652

> <minimizedRMSD>
1.07304

$$$$
C744-P219


 12 13  0  0  0  0  0  0  0  0999 V2000
    7.4606   10.9658   25.6004 C   0  0  0  0  0  0  0  0  0  0  0  0
    8.3293   10.5057   24.6864 C   0  0  0  0  0  0  0  0  0  0  0  0
    9.3853   11.3397   24.0103 C   0  0  0  0  0  0  0  0  0  0  0  0
    9.5609   12.6188   24.7151 N   0  0  0  0  0  0  0  0  0  0  0  0
    8.2745   13.2729   25.0425 C   0  0  0  0  0  0  0  0  0  0  0  0
    7.4814   12.4056   26.0252 C   0  0  0  0  0  0  0  0  0  0  0  0
   10.3144   13.4794   23.8655 C   0  0  0  0  0  0  0  0  0  0  0  0
   11.6942   13.2993   23.7800 C   0  0  0  0  0  0  0  0  0  0  0  0
   12.4366   14.1040   22.9184 C   0  0  0  0  0  0  0  0  0  0  0  0
   11.7859   15.0673   22.1617 C   0  0  0  0  0  0  0  0  0  0  0  0
   10.4190   15.1941   22.3106 C   0  0  0  0  0  0  0  0  0  0  0  0
    9.6785   14.4147   23.1267 N   0  0  0  0  0  0  0  0  0  0  0  0
  1  2  2  0  0  0
  2  3  1  0  0  0
  3  4  1  0  0  0
  4  7  1  0  0  0
  7  8  2  0  0  0
  8  9  1  0  0  0
  9 10  2  0  0  0
 10 11  1  0  0  0
 11 12  2  0  0  0
  4  5  1  0  0  0
  5  6  1  0  0  0
  6  1  1  0  0  0
 12  7  1  0  0  0
M  END
> <minimizedAffinity>
-5.80207

> <minimizedRMSD>
0.84361

$$$$
C7137-P423


 21 22  0  0  0  0  0  0  0  0999 V2000
    4.3566   10.9402   27.9004 C   0  0  0  0  0  0  0  0  0  0  0  0
    5.0454   10.2380   28.5268 O   0  0  0  0  0  0  0  0  0  0  0  0
    4.6130   11.6542   26.5500 N   0  0  0  0  0  0  0  0  0  0  0  0
    3.8367   12.1372   26.1850 H   0  0  0  0  0  0  0  0  0  0  0  0
    5.7303   11.7219   25.7910 C   0  0  0  0  0  0  0  0  0  0  0  0
    6.2390   12.8329   25.3233 N   0  0  0  0  0  0  0  0  0  0  0  0
    7.3806   12.5376   24.6004 C   0  0  0  0  0  0  0  0  0  0  0  0
    7.6944   11.2005   24.5315 C   0  0  0  0  0  0  0  0  0  0  0  0
    6.5440   10.2887   25.3854 S   0  0  0  0  0  0  0  0  0  0  0  0
    8.9792   10.6474   23.8619 C   0  0  0  0  0  0  0  0  0  0  0  0
    9.3184    9.1527   24.0200 C   0  0  0  0  0  0  0  0  0  0  0  0
   10.7261    9.5426   24.3023 N   0  0  0  0  0  0  0  0  0  0  0  0
   10.2113   10.8486   24.7531 C   0  0  0  0  0  0  0  0  0  0  0  0
   11.3283    9.5843   23.4801 H   0  0  0  0  0  0  0  0  0  0  0  0
    2.9200   11.2296   28.3059 C   0  0  0  0  0  0  0  0  0  0  0  0
    1.7950   11.1394   30.5393 C   0  0  0  0  0  0  0  0  0  0  0  0
    2.4769   10.3048   29.4574 C   0  0  0  0  0  0  0  0  0  0  0  0
    1.5573    9.2203   28.9308 C   0  0  0  0  0  0  0  0  0  0  0  0
    1.3372    8.2654   29.8562 F   0  0  0  0  0  0  0  0  0  0  0  0
    2.0923    8.6266   27.8406 F   0  0  0  0  0  0  0  0  0  0  0  0
    0.3666    9.7418   28.5689 F   0  0  0  0  0  0  0  0  0  0  0  0
 17 16  1  0  0  0
 17 15  1  0  0  0
 15  1  1  0  0  0
  1  2  2  0  0  0
  1  3  1  0  0  0
  3  5  1  0  0  0
  5  6  2  0  0  0
  6  7  1  0  0  0
  7  8  2  0  0  0
  8 10  1  0  0  0
 10 11  1  0  0  0
 11 12  1  0  0  0
 12 13  1  0  0  0
  8  9  1  0  0  0
 17 18  1  0  0  0
 18 19  1  0  0  0
 18 20  1  0  0  0
 18 21  1  0  0  0
  9  5  1  0  0  0
 13 10  1  0  0  0
  3  4  1  0  0  0
 12 14  1  0  0  0
M  END
> <minimizedAffinity>
-4.41007

> <minimizedRMSD>
1.18512

$$$$
C38801-P76


 13 14  0  0  0  0  0  0  0  0999 V2000
    5.5912   13.1430    1.9315 O   0  0  0  0  0  0  0  0  0  0  0  0
    5.8603   12.4276    2.8922 C   0  0  0  0  0  0  0  0  0  0  0  0
    6.5294   11.0964    2.7578 C   0  0  0  0  0  0  0  0  0  0  0  0
    7.8128   11.1840    3.5607 C   0  0  0  0  0  0  0  0  0  0  0  0
    7.6261   11.7061    4.8890 O   0  0  0  0  0  0  0  0  0  0  0  0
    6.9463   12.9727    4.9631 C   0  0  0  0  0  0  0  0  0  0  0  0
    5.5799   12.8529    4.3025 C   0  0  0  0  0  0  0  0  0  0  0  0
    7.7382   14.1473    4.4599 C   0  0  0  0  0  0  0  0  0  0  0  0
    8.4827   14.2702    3.2641 C   0  0  0  0  0  0  0  0  0  0  0  0
    9.0599   15.4661    3.1292 N   0  0  0  0  0  0  0  0  0  0  0  0
    8.6452   16.1406    4.2084 N   0  0  0  0  0  0  0  0  0  0  0  0
    7.9042   15.3806    5.0646 C   0  0  0  0  0  0  0  0  0  0  0  0
    8.8540   17.0894    4.3679 H   0  0  0  0  0  0  0  0  0  0  0  0
  1  2  2  0  0  0
  2  3  1  0  0  0
  3  4  1  0  0  0
  4  5  1  0  0  0
  5  6  1  0  0  0
  6  8  1  0  0  0
  8  9  1  0  0  0
  9 10  2  0  0  0
 10 11  1  0  0  0
 11 12  1  0  0  0
  6  7  1  0  0  0
  7  2  1  0  0  0
 12  8  2  0  0  0
 11 13  1  0  0  0
M  END
> <minimizedAffinity>
-3.25474

> <minimizedRMSD>
1.84926

$$$$
C3256-P185


 17 19  0  0  0  0  0  0  0  0999 V2000
    8.3995   11.6236   24.4029 C   0  0  0  0  0  0  0  0  0  0  0  0
    9.0537   12.6140   23.7522 N   0  0  0  0  0  0  0  0  0  0  0  0
    8.6810   13.8721   24.0559 C   0  0  0  0  0  0  0  0  0  0  0  0
    7.6955   14.1675   24.9239 N   0  0  0  0  0  0  0  0  0  0  0  0
    7.0488   13.1639   25.5273 C   0  0  0  0  0  0  0  0  0  0  0  0
    7.3899   11.8430   25.3269 C   0  0  0  0  0  0  0  0  0  0  0  0
    6.6915   10.7379   26.0464 C   0  0  0  0  0  0  0  0  0  0  0  0
    5.7738   11.1905   27.1866 C   0  0  0  0  0  0  0  0  0  0  0  0
    5.0262   12.4697   26.8448 C   0  0  0  0  0  0  0  0  0  0  0  0
    6.0071   13.5837   26.5228 C   0  0  0  0  0  0  0  0  0  0  0  0
    9.4932   15.0893   23.6169 C   0  0  0  0  0  0  0  0  0  0  0  0
   10.9580   14.9826   24.0557 C   0  0  0  0  0  0  0  0  0  0  0  0
   11.8552   14.3878   22.9887 C   0  0  0  0  0  0  0  0  0  0  0  0
   11.6407   15.1067   21.6653 C   0  0  0  0  0  0  0  0  0  0  0  0
   10.1749   15.0345   21.2603 C   0  0  0  0  0  0  0  0  0  0  0  0
    9.2967   15.6125   22.2604 N   0  0  0  0  0  0  0  0  0  0  0  0
    8.3327   15.4266   21.9837 H   0  0  0  0  0  0  0  0  0  0  0  0
  1  2  2  0  0  0
  2  3  1  0  0  0
 11  3  1  0  0  0
 11 12  1  0  0  0
 12 13  1  0  0  0
 13 14  1  0  0  0
 14 15  1  0  0  0
 15 16  1  0  0  0
  3  4  2  0  0  0
  4  5  1  0  0  0
  5  6  2  0  0  0
  6  7  1  0  0  0
  7  8  1  0  0  0
  8  9  1  0  0  0
  9 10  1  0  0  0
  6  1  1  0  0  0
 16 11  1  0  0  0
 10  5  1  0  0  0
 16 17  1  0  0  0
M  END
> <minimizedAffinity>
-5.98255

> <minimizedRMSD>
0.32487

$$$$
C3266-P185


 16 18  0  0  0  0  0  0  0  0999 V2000
    9.2433   11.8463   23.4834 C   0  0  0  0  0  0  0  0  0  0  0  0
    8.5513   11.0784   24.3626 N   0  0  0  0  0  0  0  0  0  0  0  0
    7.5788   11.7277   25.0419 C   0  0  0  0  0  0  0  0  0  0  0  0
    7.3153   13.0841   24.8379 C   0  0  0  0  0  0  0  0  0  0  0  0
    8.0404   13.8375   23.9721 N   0  0  0  0  0  0  0  0  0  0  0  0
    9.0072   13.2109   23.2778 C   0  0  0  0  0  0  0  0  0  0  0  0
    6.2811   13.8145   25.6466 C   0  0  0  0  0  0  0  0  0  0  0  0
    5.2980   12.8956   26.3665 C   0  0  0  0  0  0  0  0  0  0  0  0
    6.0260   11.7408   27.0387 C   0  0  0  0  0  0  0  0  0  0  0  0
    6.7703   10.9117   26.0024 C   0  0  0  0  0  0  0  0  0  0  0  0
    9.8443   13.9283   22.4144 N   0  0  0  0  0  0  0  0  0  0  0  0
   10.7305   14.7926   23.1971 C   0  0  0  0  0  0  0  0  0  0  0  0
   11.8295   15.3052   22.2819 C   0  0  0  0  0  0  0  0  0  0  0  0
   11.2687   16.0255   21.0655 C   0  0  0  0  0  0  0  0  0  0  0  0
   10.1946   15.1975   20.3648 C   0  0  0  0  0  0  0  0  0  0  0  0
    9.1468   14.6644   21.3487 C   0  0  0  0  0  0  0  0  0  0  0  0
  1  2  2  0  0  0
  2  3  1  0  0  0
  3  4  2  0  0  0
  4  5  1  0  0  0
  5  6  2  0  0  0
  6 11  1  0  0  0
 11 12  1  0  0  0
 12 13  1  0  0  0
 13 14  1  0  0  0
 14 15  1  0  0  0
 15 16  1  0  0  0
  4  7  1  0  0  0
  7  8  1  0  0  0
  8  9  1  0  0  0
  9 10  1  0  0  0
  6  1  1  0  0  0
 16 11  1  0  0  0
 10  3  1  0  0  0
M  END
> <minimizedAffinity>
-6.70849

> <minimizedRMSD>
0.58643

$$$$
C3292-P185


 17 19  0  0  0  0  0  0  0  0999 V2000
    8.3181   11.1127   24.5181 C   0  0  0  0  0  0  0  0  0  0  0  0
    9.0843   11.7486   23.6239 N   0  0  0  0  0  0  0  0  0  0  0  0
    8.9447   13.0820   23.5338 C   0  0  0  0  0  0  0  0  0  0  0  0
    8.1226   13.8058   24.3030 N   0  0  0  0  0  0  0  0  0  0  0  0
    7.3501   13.1352   25.1901 C   0  0  0  0  0  0  0  0  0  0  0  0
    7.3938   11.7510   25.3181 C   0  0  0  0  0  0  0  0  0  0  0  0
    6.5724   10.9597   26.2890 C   0  0  0  0  0  0  0  0  0  0  0  0
    5.4779   11.7080   27.0364 C   0  0  0  0  0  0  0  0  0  0  0  0
    6.0705   13.2924   27.6564 S   0  0  0  0  0  0  0  0  0  0  0  0
    6.4294   13.9962   26.0178 C   0  0  0  0  0  0  0  0  0  0  0  0
    9.8436   13.7665   22.5524 C   0  0  0  0  0  0  0  0  0  0  0  0
   10.7701   14.7782   23.2234 C   0  0  0  0  0  0  0  0  0  0  0  0
   11.7615   15.2476   22.1700 C   0  0  0  0  0  0  0  0  0  0  0  0
   11.0727   15.7821   20.9199 C   0  0  0  0  0  0  0  0  0  0  0  0
   10.0988   14.8454   20.3551 N   0  0  0  0  0  0  0  0  0  0  0  0
    9.1198   14.4326   21.3776 C   0  0  0  0  0  0  0  0  0  0  0  0
   10.5891   14.0208   20.0086 H   0  0  0  0  0  0  0  0  0  0  0  0
  1  2  2  0  0  0
  2  3  1  0  0  0
 11  3  1  0  0  0
 11 12  1  0  0  0
 12 13  1  0  0  0
 13 14  1  0  0  0
 14 15  1  0  0  0
 15 16  1  0  0  0
  3  4  2  0  0  0
  4  5  1  0  0  0
  5  6  2  0  0  0
  6  7  1  0  0  0
  7  8  1  0  0  0
  8  9  1  0  0  0
  9 10  1  0  0  0
  6  1  1  0  0  0
 16 11  1  0  0  0
 10  5  1  0  0  0
 15 17  1  0  0  0
M  END
> <minimizedAffinity>
-6.49921

> <minimizedRMSD>
0.31355

$$$$
C727-P384


 12 13  0  0  0  0  0  0  0  0999 V2000
    6.2689   14.1688   22.0778 C   0  0  0  0  0  0  0  0  0  0  0  0
    7.5946   14.3785   21.7148 C   0  0  0  0  0  0  0  0  0  0  0  0
    8.4235   15.1816   22.5105 C   0  0  0  0  0  0  0  0  0  0  0  0
    7.8338   15.7270   23.6558 C   0  0  0  0  0  0  0  0  0  0  0  0
    6.4995   15.4633   23.9423 C   0  0  0  0  0  0  0  0  0  0  0  0
    5.7027   14.6874   23.1847 N   0  0  0  0  0  0  0  0  0  0  0  0
    9.7804   15.3714   22.1704 N   0  0  0  0  0  0  0  0  0  0  0  0
   10.6562   15.9670   23.1933 C   0  0  0  0  0  0  0  0  0  0  0  0
   12.1225   15.8412   22.7900 C   0  0  0  0  0  0  0  0  0  0  0  0
   12.3735   16.4740   21.4288 C   0  0  0  0  0  0  0  0  0  0  0  0
   11.4505   15.8491   20.3935 C   0  0  0  0  0  0  0  0  0  0  0  0
    9.9852   15.9439   20.8167 C   0  0  0  0  0  0  0  0  0  0  0  0
  1  2  2  0  0  0
  2  3  1  0  0  0
  3  7  1  0  0  0
  7  8  1  0  0  0
  8  9  1  0  0  0
  9 10  1  0  0  0
 10 11  1  0  0  0
 11 12  1  0  0  0
  3  4  2  0  0  0
  4  5  1  0  0  0
  5  6  2  0  0  0
  6  1  1  0  0  0
 12  7  1  0  0  0
M  END
> <minimizedAffinity>
-4.63071

> <minimizedRMSD>
1.17588

$$$$
C11373-P23


 20 22  0  0  0  0  0  0  0  0999 V2000
   20.4875   14.6789    2.6142 N   0  0  0  0  0  0  0  0  0  0  0  0
   19.7476   13.6900    3.1752 N   0  0  0  0  0  0  0  0  0  0  0  0
   18.4911   14.1101    3.0178 C   0  0  0  0  0  0  0  0  0  0  0  0
   18.4085   15.3411    2.3348 C   0  0  0  0  0  0  0  0  0  0  0  0
   17.3761   16.1942    1.9142 C   0  0  0  0  0  0  0  0  0  0  0  0
   17.7086   17.3707    1.2279 C   0  0  0  0  0  0  0  0  0  0  0  0
   19.0401   17.7017    0.9677 C   0  0  0  0  0  0  0  0  0  0  0  0
   20.0779   16.8651    1.3883 C   0  0  0  0  0  0  0  0  0  0  0  0
   19.7288   15.6891    2.0700 C   0  0  0  0  0  0  0  0  0  0  0  0
   19.3048   18.8828    0.2790 N   0  0  0  0  0  0  0  0  0  0  0  0
   20.6565   19.5315   -0.1300 C   0  0  0  0  0  0  0  0  0  0  0  0
   21.7537   19.1346   -0.0187 O   0  0  0  0  0  0  0  0  0  0  0  0
   18.5056   19.3892    0.0070 H   0  0  0  0  0  0  0  0  0  0  0  0
   20.3604   20.9138   -0.8068 C   0  0  0  0  0  0  0  0  0  0  0  0
   21.2968   22.0969   -0.4013 C   0  0  0  0  0  0  0  0  0  0  0  0
   21.3621   22.4448   -1.8989 C   0  0  0  0  0  0  0  0  0  0  0  0
   21.6758   23.4348   -2.5227 O   0  0  0  0  0  0  0  0  0  0  0  0
   20.8187   21.0597   -2.2916 C   0  0  0  0  0  0  0  0  0  0  0  0
   22.5442   13.9741    1.4362 C   0  0  0  0  0  0  0  0  0  0  0  0
   21.9384   14.6286    2.6622 C   0  0  0  0  0  0  0  0  0  0  0  0
 19 20  1  0  0  0
 20  1  1  0  0  0
  1  2  1  0  0  0
  2  3  2  0  0  0
  3  4  1  0  0  0
  4  5  2  0  0  0
  5  6  1  0  0  0
  6  7  2  0  0  0
  7 10  1  0  0  0
 10 11  1  0  0  0
 11 12  2  0  0  0
 11 14  1  0  0  0
 14 15  1  0  0  0
 15 16  1  0  0  0
 16 17  2  0  0  0
 16 18  1  0  0  0
  7  8  1  0  0  0
  8  9  2  0  0  0
  9  1  1  0  0  0
  9  4  1  0  0  0
 18 14  1  0  0  0
 10 13  1  0  0  0
M  END
> <minimizedAffinity>
-2.32845

> <minimizedRMSD>
1.43840

$$$$
C961-P617


 20 22  0  0  0  0  0  0  0  0999 V2000
   27.1539    9.5346   -0.2139 O   0  0  0  0  0  0  0  0  0  0  0  0
   26.4956   10.4591   -0.4972 C   0  0  0  0  0  0  0  0  0  0  0  0
   25.2680   10.5693   -1.4484 N   0  0  0  0  0  0  0  0  0  0  0  0
   24.8342   11.4530   -1.4613 H   0  0  0  0  0  0  0  0  0  0  0  0
   26.7762   11.8649    0.0730 C   0  0  0  0  0  0  0  0  0  0  0  0
   27.9142   11.8212    1.1157 C   0  0  0  0  0  0  0  0  0  0  0  0
   27.4291   11.3016    2.4783 C   0  0  0  0  0  0  0  0  0  0  0  0
   26.3296   12.1964    3.0456 C   0  0  0  0  0  0  0  0  0  0  0  0
   25.3780   12.5922    2.0346 N   0  0  0  0  0  0  0  0  0  0  0  0
   24.2265   13.2867    2.2115 C   0  0  0  0  0  0  0  0  0  0  0  0
   23.6743   13.5117    1.0403 N   0  0  0  0  0  0  0  0  0  0  0  0
   24.5082   12.9884    0.0727 N   0  0  0  0  0  0  0  0  0  0  0  0
   25.5468   12.4553    0.6833 C   0  0  0  0  0  0  0  0  0  0  0  0
   24.6916    9.6326   -2.2733 N   0  0  0  0  0  0  0  0  0  0  0  0
   25.2376    8.9228   -2.6823 H   0  0  0  0  0  0  0  0  0  0  0  0
   23.3460    9.7026   -2.5172 C   0  0  0  0  0  0  0  0  0  0  0  0
   22.7624    9.1024   -3.5058 N   0  0  0  0  0  0  0  0  0  0  0  0
   21.3247    9.4326   -3.5160 C   0  0  0  0  0  0  0  0  0  0  0  0
   20.8622    9.7690   -2.1109 C   0  0  0  0  0  0  0  0  0  0  0  0
   22.3003   10.5991   -1.4226 S   0  0  0  0  0  0  0  0  0  0  0  0
  1  2  2  0  0  0
  2  3  1  0  0  0
  3 14  1  0  0  0
 14 16  1  0  0  0
 16 17  2  0  0  0
 17 18  1  0  0  0
 18 19  1  0  0  0
 19 20  1  0  0  0
  5  2  1  0  0  0
  5  6  1  0  0  0
  6  7  1  0  0  0
  7  8  1  0  0  0
  8  9  1  0  0  0
  9 10  1  0  0  0
 10 11  2  0  0  0
 11 12  1  0  0  0
 12 13  2  0  0  0
 20 16  1  0  0  0
 13  5  1  0  0  0
 13  9  1  0  0  0
  3  4  1  0  0  0
 14 15  1  0  0  0
M  END
> <minimizedAffinity>
-3.24486

> <minimizedRMSD>
1.79298

$$$$
C37900-P28


 16 16  0  0  0  0  0  0  0  0999 V2000
    8.1532   12.9734   24.3066 C   0  0  0  0  0  0  0  0  0  0  0  0
    8.5591   11.7385   23.7867 O   0  0  0  0  0  0  0  0  0  0  0  0
    7.8020   11.1325   23.7644 H   0  0  0  0  0  0  0  0  0  0  0  0
    7.6342   12.7720   25.6612 C   0  0  0  0  0  0  0  0  0  0  0  0
    7.0185   11.5899   26.0986 C   0  0  0  0  0  0  0  0  0  0  0  0
    6.6039   11.7057   27.3512 N   0  0  0  0  0  0  0  0  0  0  0  0
    6.9103   12.9671   27.6973 N   0  0  0  0  0  0  0  0  0  0  0  0
    7.6006   13.6275   26.7409 C   0  0  0  0  0  0  0  0  0  0  0  0
    6.6578   13.3696   28.5595 H   0  0  0  0  0  0  0  0  0  0  0  0
    7.1882   13.8182   23.4771 C   0  0  0  0  0  0  0  0  0  0  0  0
    6.1761   14.2752   24.0385 O   0  0  0  0  0  0  0  0  0  0  0  0
    7.3995   14.0432   21.9881 C   0  0  0  0  0  0  0  0  0  0  0  0
    8.7997   14.0007   21.3856 C   0  0  0  0  0  0  0  0  0  0  0  0
    9.1176   17.0768   18.7410 C   0  0  0  0  0  0  0  0  0  0  0  0
    9.3027   16.0467   19.7592 C   0  0  0  0  0  0  0  0  0  0  0  0
    9.1980   15.1307   20.5323 C   0  0  0  0  0  0  0  0  0  0  0  0
 14 15  1  0  0  0
 15 16  3  0  0  0
 16 13  1  0  0  0
 13 12  1  0  0  0
 12 10  1  0  0  0
 10 11  2  0  0  0
 10  1  1  0  0  0
  1  2  1  0  0  0
  1  4  1  0  0  0
  4  5  1  0  0  0
  5  6  2  0  0  0
  6  7  1  0  0  0
  7  8  1  0  0  0
  8  4  2  0  0  0
  2  3  1  0  0  0
  7  9  1  0  0  0
M  END
> <minimizedAffinity>
-4.89856

> <minimizedRMSD>
2.34059

$$$$
C2408-P196


 15 15  0  0  0  0  0  0  0  0999 V2000
    8.2102   15.5206   23.7834 C   0  0  0  0  0  0  0  0  0  0  0  0
    6.8626   15.4483   23.0360 C   0  0  0  0  0  0  0  0  0  0  0  0
    8.1195   16.7974   24.6516 C   0  0  0  0  0  0  0  0  0  0  0  0
    9.3776   15.4815   22.8438 N   0  0  0  0  0  0  0  0  0  0  0  0
   10.6817   15.7201   23.4977 C   0  0  0  0  0  0  0  0  0  0  0  0
   11.8467   15.4581   22.5403 C   0  0  0  0  0  0  0  0  0  0  0  0
   11.7537   16.3463   21.3095 C   0  0  0  0  0  0  0  0  0  0  0  0
   10.3836   16.1996   20.6674 C   0  0  0  0  0  0  0  0  0  0  0  0
    9.2499   16.3902   21.6802 C   0  0  0  0  0  0  0  0  0  0  0  0
    8.3281   14.3255   24.7946 C   0  0  0  0  0  0  0  0  0  0  0  0
    8.9661   14.4441   25.8503 O   0  0  0  0  0  0  0  0  0  0  0  0
    7.6490   12.9828   24.4808 C   0  0  0  0  0  0  0  0  0  0  0  0
    6.6213   12.6625   25.5740 C   0  0  0  0  0  0  0  0  0  0  0  0
    9.7984   12.0972   23.4175 C   0  0  0  0  0  0  0  0  0  0  0  0
    8.6195   11.8084   24.3224 C   0  0  0  0  0  0  0  0  0  0  0  0
 14 15  1  0  0  0
 15 12  1  0  0  0
 12 13  1  0  0  0
 12 10  1  0  0  0
 10 11  2  0  0  0
 10  1  1  0  0  0
  1  2  1  0  0  0
  1  3  1  0  0  0
  1  4  1  0  0  0
  4  5  1  0  0  0
  5  6  1  0  0  0
  6  7  1  0  0  0
  7  8  1  0  0  0
  8  9  1  0  0  0
  9  4  1  0  0  0
M  END
> <minimizedAffinity>
-4.59172

> <minimizedRMSD>
0.56786

$$$$
C3803-P358


 13 14  0  0  0  0  0  0  0  0999 V2000
    8.4356   13.0606   24.4470 C   0  0  0  0  0  0  0  0  0  0  0  0
    7.9614   13.8117   23.1955 C   0  0  0  0  0  0  0  0  0  0  0  0
    8.9829   13.8392   22.0604 C   0  0  0  0  0  0  0  0  0  0  0  0
   10.3588   14.2314   22.5672 C   0  0  0  0  0  0  0  0  0  0  0  0
   10.7589   13.4122   23.7776 C   0  0  0  0  0  0  0  0  0  0  0  0
    9.7816   13.4866   24.8651 N   0  0  0  0  0  0  0  0  0  0  0  0
    9.7317   14.4509   25.1939 H   0  0  0  0  0  0  0  0  0  0  0  0
    7.4112   10.7525   25.0476 C   0  0  0  0  0  0  0  0  0  0  0  0
    7.5224    9.4566   24.7527 N   0  0  0  0  0  0  0  0  0  0  0  0
    8.5627    9.4175   23.8992 N   0  0  0  0  0  0  0  0  0  0  0  0
    9.0927   10.6510   23.6467 C   0  0  0  0  0  0  0  0  0  0  0  0
    8.3574   11.5648   24.3754 C   0  0  0  0  0  0  0  0  0  0  0  0
    8.9060    8.5863   23.4986 H   0  0  0  0  0  0  0  0  0  0  0  0
  8  9  2  0  0  0
  9 10  1  0  0  0
 10 11  1  0  0  0
 11 12  2  0  0  0
  1 12  1  0  0  0
  1  2  1  0  0  0
  2  3  1  0  0  0
  3  4  1  0  0  0
  4  5  1  0  0  0
  5  6  1  0  0  0
 12  8  1  0  0  0
  6  1  1  0  0  0
 10 13  1  0  0  0
  6  7  1  0  0  0
M  END
> <minimizedAffinity>
-5.12825

> <minimizedRMSD>
0.92835

$$$$
C3806-P358


 13 14  0  0  0  0  0  0  0  0999 V2000
    8.6927   13.2150   24.4874 C   0  0  0  0  0  0  0  0  0  0  0  0
    8.0301   13.9932   23.3437 C   0  0  0  0  0  0  0  0  0  0  0  0
    8.8548   13.9420   22.0580 C   0  0  0  0  0  0  0  0  0  0  0  0
   10.2941   14.3676   22.3026 C   0  0  0  0  0  0  0  0  0  0  0  0
   10.9299   13.6556   23.4072 N   0  0  0  0  0  0  0  0  0  0  0  0
   10.1381   13.7251   24.6429 C   0  0  0  0  0  0  0  0  0  0  0  0
   11.8459   14.0695   23.5806 H   0  0  0  0  0  0  0  0  0  0  0  0
    7.5730   10.8938   24.9311 C   0  0  0  0  0  0  0  0  0  0  0  0
    7.6853    9.6095   24.5877 N   0  0  0  0  0  0  0  0  0  0  0  0
    8.7749    9.5897   23.7970 N   0  0  0  0  0  0  0  0  0  0  0  0
    9.3324   10.8229   23.6295 C   0  0  0  0  0  0  0  0  0  0  0  0
    8.5764   11.7157   24.3626 C   0  0  0  0  0  0  0  0  0  0  0  0
    9.1318    8.7707   23.3832 H   0  0  0  0  0  0  0  0  0  0  0  0
  8  9  2  0  0  0
  9 10  1  0  0  0
 10 11  1  0  0  0
 11 12  2  0  0  0
  1 12  1  0  0  0
  1  2  1  0  0  0
  2  3  1  0  0  0
  3  4  1  0  0  0
  4  5  1  0  0  0
  5  6  1  0  0  0
 12  8  1  0  0  0
  6  1  1  0  0  0
 10 13  1  0  0  0
  5  7  1  0  0  0
M  END
> <minimizedAffinity>
-5.12010

> <minimizedRMSD>
1.47801

$$$$
C4761-P358


 13 14  0  0  0  0  0  0  0  0999 V2000
    8.2389   13.0056   24.0066 C   0  0  0  0  0  0  0  0  0  0  0  0
    8.0290   13.6624   25.3912 C   0  0  0  0  0  0  0  0  0  0  0  0
    6.2859   13.9363   25.8395 S   0  0  0  0  0  0  0  0  0  0  0  0
    5.8140   14.9095   24.3547 C   0  0  0  0  0  0  0  0  0  0  0  0
    6.7657   14.7362   23.1530 C   0  0  0  0  0  0  0  0  0  0  0  0
    7.2249   13.3459   22.9800 N   0  0  0  0  0  0  0  0  0  0  0  0
    7.6368   13.2408   22.0528 H   0  0  0  0  0  0  0  0  0  0  0  0
    7.4951   10.6090   24.7917 C   0  0  0  0  0  0  0  0  0  0  0  0
    7.8423    9.3350   24.6223 N   0  0  0  0  0  0  0  0  0  0  0  0
    8.9091    9.4015   23.8016 N   0  0  0  0  0  0  0  0  0  0  0  0
    9.2418   10.6805   23.4621 C   0  0  0  0  0  0  0  0  0  0  0  0
    8.3265   11.5077   24.0817 C   0  0  0  0  0  0  0  0  0  0  0  0
    9.3977    8.6095   23.4804 H   0  0  0  0  0  0  0  0  0  0  0  0
  8  9  2  0  0  0
  9 10  1  0  0  0
 10 11  1  0  0  0
 11 12  2  0  0  0
  1 12  1  0  0  0
  1  2  1  0  0  0
  2  3  1  0  0  0
  3  4  1  0  0  0
  4  5  1  0  0  0
  5  6  1  0  0  0
 12  8  1  0  0  0
  6  1  1  0  0  0
 10 13  1  0  0  0
  6  7  1  0  0  0
M  END
> <minimizedAffinity>
-4.61612

> <minimizedRMSD>
0.57912

$$$$
C715-P235


 12 13  0  0  0  0  0  0  0  0999 V2000
    7.8094   12.1718   25.4624 C   0  0  0  0  0  0  0  0  0  0  0  0
    8.0509   10.9093   24.9536 C   0  0  0  0  0  0  0  0  0  0  0  0
    8.9219   10.6653   23.9557 N   0  0  0  0  0  0  0  0  0  0  0  0
    9.5815   11.7406   23.4510 C   0  0  0  0  0  0  0  0  0  0  0  0
    9.4378   13.0539   23.8989 C   0  0  0  0  0  0  0  0  0  0  0  0
    8.5135   13.2486   24.9254 C   0  0  0  0  0  0  0  0  0  0  0  0
   10.1407   14.1711   23.4103 N   0  0  0  0  0  0  0  0  0  0  0  0
    9.7973   14.5069   22.0127 C   0  0  0  0  0  0  0  0  0  0  0  0
   10.4216   15.8499   21.6263 C   0  0  0  0  0  0  0  0  0  0  0  0
   11.9285   15.8576   21.8758 C   0  0  0  0  0  0  0  0  0  0  0  0
   12.2324   15.4309   23.3096 C   0  0  0  0  0  0  0  0  0  0  0  0
   11.5934   14.0798   23.6264 C   0  0  0  0  0  0  0  0  0  0  0  0
  1  2  2  0  0  0
  2  3  1  0  0  0
  3  4  2  0  0  0
  4  5  1  0  0  0
  5  7  1  0  0  0
  7  8  1  0  0  0
  8  9  1  0  0  0
  9 10  1  0  0  0
 10 11  1  0  0  0
 11 12  1  0  0  0
  5  6  2  0  0  0
  6  1  1  0  0  0
 12  7  1  0  0  0
M  END
> <minimizedAffinity>
-5.30614

> <minimizedRMSD>
0.27897

$$$$
C688-P168


 29 32  0  0  0  0  0  0  0  0999 V2000
   21.8247   20.1637   22.1936 N   0  0  0  0  0  0  0  0  0  0  0  0
   22.3946   20.8013   21.1012 C   0  0  0  0  0  0  0  0  0  0  0  0
   21.7662   21.6225   20.4458 O   0  0  0  0  0  0  0  0  0  0  0  0
   21.1041   18.9101   22.0501 C   0  0  0  0  0  0  0  0  0  0  0  0
   18.3251   18.6142   18.1779 O   0  0  0  0  0  0  0  0  0  0  0  0
   18.7009   19.0621   19.2477 C   0  0  0  0  0  0  0  0  0  0  0  0
   17.8375   19.7741   20.2555 C   0  0  0  0  0  0  0  0  0  0  0  0
   18.7792   19.9702   21.4447 C   0  0  0  0  0  0  0  0  0  0  0  0
   19.8164   18.8847   21.2252 C   0  0  0  0  0  0  0  0  0  0  0  0
   19.9553   18.8599   19.7979 N   0  0  0  0  0  0  0  0  0  0  0  0
   20.7928   18.7235   19.2987 H   0  0  0  0  0  0  0  0  0  0  0  0
   21.9609   20.7767   23.5021 C   0  0  0  0  0  0  0  0  0  0  0  0
   20.6640   21.3599   23.9857 C   0  0  0  0  0  0  0  0  0  0  0  0
   19.8122   20.6580   24.8435 C   0  0  0  0  0  0  0  0  0  0  0  0
   18.5976   21.2223   25.2187 C   0  0  0  0  0  0  0  0  0  0  0  0
   18.2791   22.4804   24.7351 C   0  0  0  0  0  0  0  0  0  0  0  0
   19.0839   23.1972   23.9243 N   0  0  0  0  0  0  0  0  0  0  0  0
   20.2441   22.6143   23.5495 C   0  0  0  0  0  0  0  0  0  0  0  0
   23.7850   20.2703   20.8134 C   0  0  0  0  0  0  0  0  0  0  0  0
   24.5275   20.9690   19.7376 C   0  0  0  0  0  0  0  0  0  0  0  0
   23.9062   21.5204   18.6886 N   0  0  0  0  0  0  0  0  0  0  0  0
   24.9059   22.0169   17.9421 N   0  0  0  0  0  0  0  0  0  0  0  0
   26.1538   21.7447   18.4329 C   0  0  0  0  0  0  0  0  0  0  0  0
   27.4267   22.0163   17.9274 C   0  0  0  0  0  0  0  0  0  0  0  0
   28.5147   21.5062   18.6426 C   0  0  0  0  0  0  0  0  0  0  0  0
   28.3311   20.7710   19.8137 C   0  0  0  0  0  0  0  0  0  0  0  0
   27.0469   20.5313   20.3139 C   0  0  0  0  0  0  0  0  0  0  0  0
   25.9402   21.0290   19.6025 C   0  0  0  0  0  0  0  0  0  0  0  0
   24.7546   22.5306   17.1160 H   0  0  0  0  0  0  0  0  0  0  0  0
  5  6  2  0  0  0
  6  7  1  0  0  0
  7  8  1  0  0  0
  8  9  1  0  0  0
  9  4  1  0  0  0
  4  1  1  0  0  0
  1 12  1  0  0  0
 12 13  1  0  0  0
 13 14  2  0  0  0
 14 15  1  0  0  0
 15 16  2  0  0  0
 16 17  1  0  0  0
 17 18  2  0  0  0
  1  2  1  0  0  0
  2  3  2  0  0  0
  2 19  1  0  0  0
 19 20  1  0  0  0
 20 21  2  0  0  0
 21 22  1  0  0  0
 22 23  1  0  0  0
 23 24  2  0  0  0
 24 25  1  0  0  0
 25 26  2  0  0  0
 26 27  1  0  0  0
 27 28  2  0  0  0
  9 10  1  0  0  0
 10  6  1  0  0  0
 18 13  1  0  0  0
 28 20  1  0  0  0
 28 23  1  0  0  0
 22 29  1  0  0  0
 10 11  1  0  0  0
M  END
> <minimizedAffinity>
-5.83447

> <minimizedRMSD>
0.87950

$$$$
C10642-P176


 14 14  0  0  0  0  0  0  0  0999 V2000
   10.4959   13.8385   23.0705 O   0  0  0  0  0  0  0  0  0  0  0  0
   11.8313   14.1225   22.7780 N   0  0  0  0  0  0  0  0  0  0  0  0
   11.9501   14.8449   21.6998 C   0  0  0  0  0  0  0  0  0  0  0  0
   10.8845   15.3817   20.8820 C   0  0  0  0  0  0  0  0  0  0  0  0
   10.5603   14.9536   19.6133 C   0  0  0  0  0  0  0  0  0  0  0  0
    9.5978   15.7811   19.1185 O   0  0  0  0  0  0  0  0  0  0  0  0
    9.3854   16.6755   20.1212 C   0  0  0  0  0  0  0  0  0  0  0  0
   10.0796   16.4523   21.2094 N   0  0  0  0  0  0  0  0  0  0  0  0
   10.3970   12.6244   23.8062 C   0  0  0  0  0  0  0  0  0  0  0  0
    9.1595   11.8816   23.3384 C   0  0  0  0  0  0  0  0  0  0  0  0
    8.5512   10.8770   25.3812 F   0  0  0  0  0  0  0  0  0  0  0  0
    8.9664   10.6174   24.1201 C   0  0  0  0  0  0  0  0  0  0  0  0
    8.0485    9.8076   23.5576 F   0  0  0  0  0  0  0  0  0  0  0  0
   10.1109    9.9093   24.1868 F   0  0  0  0  0  0  0  0  0  0  0  0
 11 12  1  0  0  0
 12 13  1  0  0  0
 12 14  1  0  0  0
 12 10  1  0  0  0
 10  9  1  0  0  0
  9  1  1  0  0  0
  1  2  1  0  0  0
  2  3  2  0  0  0
  3  4  1  0  0  0
  4  5  2  0  0  0
  5  6  1  0  0  0
  6  7  1  0  0  0
  7  8  2  0  0  0
  8  4  1  0  0  0
M  END
> <minimizedAffinity>
-5.69417

> <minimizedRMSD>
0.79319

$$$$
C11338-P54


 18 20  0  0  0  0  0  0  0  0999 V2000
   16.2713   -4.1916   17.8300 C   0  0  0  0  0  0  0  0  0  0  0  0
   15.1449   -3.6377   17.2018 C   0  0  0  0  0  0  0  0  0  0  0  0
   14.0098   -4.4089   16.9547 C   0  0  0  0  0  0  0  0  0  0  0  0
   13.9491   -5.7504   17.3363 C   0  0  0  0  0  0  0  0  0  0  0  0
   15.0822   -6.2881   17.9506 C   0  0  0  0  0  0  0  0  0  0  0  0
   15.3398   -7.5428   18.4325 N   0  0  0  0  0  0  0  0  0  0  0  0
   16.5885   -7.7060   18.9030 N   0  0  0  0  0  0  0  0  0  0  0  0
   17.1286   -6.4920   18.7680 C   0  0  0  0  0  0  0  0  0  0  0  0
   16.2396   -5.5529   18.1938 C   0  0  0  0  0  0  0  0  0  0  0  0
   14.6689   -8.2633   18.4344 H   0  0  0  0  0  0  0  0  0  0  0  0
   16.5173   -1.6223   19.3282 O   0  0  0  0  0  0  0  0  0  0  0  0
   17.4699   -2.3845   19.1921 C   0  0  0  0  0  0  0  0  0  0  0  0
   18.6269   -2.3400   20.1521 C   0  0  0  0  0  0  0  0  0  0  0  0
   19.8317   -1.6340   19.5668 C   0  0  0  0  0  0  0  0  0  0  0  0
   20.5670   -2.5106   18.5641 C   0  0  0  0  0  0  0  0  0  0  0  0
   19.8111   -2.7358   17.2630 C   0  0  0  0  0  0  0  0  0  0  0  0
   18.5400   -3.5328   17.2898 C   0  0  0  0  0  0  0  0  0  0  0  0
   17.4800   -3.4044   18.1060 C   0  0  0  0  0  0  0  0  0  0  0  0
 11 12  2  0  0  0
 12 13  1  0  0  0
 13 14  1  0  0  0
 14 15  1  0  0  0
 15 16  1  0  0  0
 16 17  1  0  0  0
 17 18  2  0  0  0
 18  1  1  0  0  0
  1  2  2  0  0  0
  2  3  1  0  0  0
  3  4  2  0  0  0
  4  5  1  0  0  0
  5  6  1  0  0  0
  6  7  1  0  0  0
  7  8  2  0  0  0
  8  9  1  0  0  0
 18 12  1  0  0  0
  9  1  1  0  0  0
  9  5  2  0  0  0
  6 10  1  0  0  0
M  END
> <minimizedAffinity>
-5.77537

> <minimizedRMSD>
1.41337

$$$$
C1791-P191


 16 18  0  0  0  0  0  0  0  0999 V2000
    7.1757   11.0959   25.4915 C   0  0  0  0  0  0  0  0  0  0  0  0
    7.7287   10.0747   24.4751 C   0  0  0  0  0  0  0  0  0  0  0  0
    9.0419   10.4107   23.7600 C   0  0  0  0  0  0  0  0  0  0  0  0
    9.1932   11.8648   23.7135 C   0  0  0  0  0  0  0  0  0  0  0  0
   10.1780   12.4368   23.0020 O   0  0  0  0  0  0  0  0  0  0  0  0
    9.9940   13.7718   23.2213 C   0  0  0  0  0  0  0  0  0  0  0  0
    9.0113   14.0668   24.0559 N   0  0  0  0  0  0  0  0  0  0  0  0
    8.4636   12.8462   24.3217 C   0  0  0  0  0  0  0  0  0  0  0  0
    7.2428   12.5810   25.0932 C   0  0  0  0  0  0  0  0  0  0  0  0
   10.9082   14.6527   22.4668 C   0  0  0  0  0  0  0  0  0  0  0  0
   11.6379   15.6117   23.3976 C   0  0  0  0  0  0  0  0  0  0  0  0
   12.5431   16.5141   22.5810 C   0  0  0  0  0  0  0  0  0  0  0  0
   11.7978   17.2044   21.5485 N   0  0  0  0  0  0  0  0  0  0  0  0
   11.1328   16.3047   20.6138 C   0  0  0  0  0  0  0  0  0  0  0  0
   10.1599   15.4143   21.3726 C   0  0  0  0  0  0  0  0  0  0  0  0
   12.4430   17.7956   21.0245 H   0  0  0  0  0  0  0  0  0  0  0  0
  1  2  1  0  0  0
  2  3  1  0  0  0
  3  4  1  0  0  0
  4  5  1  0  0  0
  5  6  1  0  0  0
  6 10  1  0  0  0
 10 11  1  0  0  0
 11 12  1  0  0  0
 12 13  1  0  0  0
 13 14  1  0  0  0
 14 15  1  0  0  0
  6  7  2  0  0  0
  7  8  1  0  0  0
  8  9  1  0  0  0
  9  1  1  0  0  0
  8  4  2  0  0  0
 15 10  1  0  0  0
 13 16  1  0  0  0
M  END
> <minimizedAffinity>
-5.84141

> <minimizedRMSD>
0.34180

$$$$
C1795-P191


 15 17  0  0  0  0  0  0  0  0999 V2000
    9.7275   14.2435   23.5408 C   0  0  0  0  0  0  0  0  0  0  0  0
   10.0444   13.0221   23.1744 N   0  0  0  0  0  0  0  0  0  0  0  0
    9.2305   12.1061   23.7926 C   0  0  0  0  0  0  0  0  0  0  0  0
    8.2759   12.6504   24.6161 C   0  0  0  0  0  0  0  0  0  0  0  0
    8.4876   14.3274   24.7482 S   0  0  0  0  0  0  0  0  0  0  0  0
    7.1635   11.9291   25.2614 C   0  0  0  0  0  0  0  0  0  0  0  0
    7.3602   10.4174   25.1887 C   0  0  0  0  0  0  0  0  0  0  0  0
    8.1664    9.8523   24.0128 C   0  0  0  0  0  0  0  0  0  0  0  0
    9.3725   10.6538   23.5247 C   0  0  0  0  0  0  0  0  0  0  0  0
   12.5542   16.4972   21.7825 C   0  0  0  0  0  0  0  0  0  0  0  0
   12.4772   16.2366   23.2822 C   0  0  0  0  0  0  0  0  0  0  0  0
   11.0313   16.2826   23.7605 C   0  0  0  0  0  0  0  0  0  0  0  0
   10.2165   15.3727   22.9851 N   0  0  0  0  0  0  0  0  0  0  0  0
   10.2763   15.4880   21.5301 C   0  0  0  0  0  0  0  0  0  0  0  0
   11.7158   15.4673   21.0328 C   0  0  0  0  0  0  0  0  0  0  0  0
 10 11  1  0  0  0
 11 12  1  0  0  0
 12 13  1  0  0  0
 13  1  1  0  0  0
  1  2  2  0  0  0
  2  3  1  0  0  0
  3  4  2  0  0  0
  4  5  1  0  0  0
  4  6  1  0  0  0
  6  7  1  0  0  0
  7  8  1  0  0  0
  8  9  1  0  0  0
 13 14  1  0  0  0
 14 15  1  0  0  0
 15 10  1  0  0  0
  5  1  1  0  0  0
  9  3  1  0  0  0
M  END
> <minimizedAffinity>
-6.11336

> <minimizedRMSD>
0.29530

$$$$
C1805-P191


 16 18  0  0  0  0  0  0  0  0999 V2000
    9.4277   14.6723   23.3018 C   0  0  0  0  0  0  0  0  0  0  0  0
    9.8660   13.4487   23.0912 N   0  0  0  0  0  0  0  0  0  0  0  0
    9.0379   12.5283   23.7136 C   0  0  0  0  0  0  0  0  0  0  0  0
    8.0097   13.0808   24.4423 C   0  0  0  0  0  0  0  0  0  0  0  0
    8.0709   14.7817   24.3562 S   0  0  0  0  0  0  0  0  0  0  0  0
    6.9250   12.4255   25.1934 C   0  0  0  0  0  0  0  0  0  0  0  0
    7.1301   10.6494   25.4324 S   0  0  0  0  0  0  0  0  0  0  0  0
    8.2028   10.1516   24.0460 C   0  0  0  0  0  0  0  0  0  0  0  0
    9.3114   11.0761   23.5666 C   0  0  0  0  0  0  0  0  0  0  0  0
   12.4823   15.9519   23.1817 C   0  0  0  0  0  0  0  0  0  0  0  0
   11.1248   16.4999   23.5794 C   0  0  0  0  0  0  0  0  0  0  0  0
    9.9814   15.9503   22.7223 C   0  0  0  0  0  0  0  0  0  0  0  0
   10.3361   15.8252   21.2349 C   0  0  0  0  0  0  0  0  0  0  0  0
   11.7651   15.3622   20.9842 C   0  0  0  0  0  0  0  0  0  0  0  0
   12.7033   16.1745   21.7602 N   0  0  0  0  0  0  0  0  0  0  0  0
   12.5574   17.1607   21.5444 H   0  0  0  0  0  0  0  0  0  0  0  0
 10 11  1  0  0  0
 11 12  1  0  0  0
 12  1  1  0  0  0
  1  2  2  0  0  0
  2  3  1  0  0  0
  3  4  2  0  0  0
  4  5  1  0  0  0
  4  6  1  0  0  0
  6  7  1  0  0  0
  7  8  1  0  0  0
  8  9  1  0  0  0
 12 13  1  0  0  0
 13 14  1  0  0  0
 14 15  1  0  0  0
 15 10  1  0  0  0
  5  1  1  0  0  0
  9  3  1  0  0  0
 15 16  1  0  0  0
M  END
> <minimizedAffinity>
-5.14977

> <minimizedRMSD>
0.35930

$$$$
C1814-P191


 17 19  0  0  0  0  0  0  0  0999 V2000
    8.0954   14.4893   24.2055 C   0  0  0  0  0  0  0  0  0  0  0  0
    7.5469   13.4434   24.8556 N   0  0  0  0  0  0  0  0  0  0  0  0
    7.9480   12.2105   24.4829 C   0  0  0  0  0  0  0  0  0  0  0  0
    8.9272   11.9879   23.5235 C   0  0  0  0  0  0  0  0  0  0  0  0
    9.4845   13.1047   22.8787 C   0  0  0  0  0  0  0  0  0  0  0  0
    9.0541   14.3904   23.2012 C   0  0  0  0  0  0  0  0  0  0  0  0
    9.4537   10.6137   23.2427 C   0  0  0  0  0  0  0  0  0  0  0  0
    8.7290    9.4267   23.8534 C   0  0  0  0  0  0  0  0  0  0  0  0
    7.4513    9.7466   24.5912 C   0  0  0  0  0  0  0  0  0  0  0  0
    7.3474   11.0901   25.2586 C   0  0  0  0  0  0  0  0  0  0  0  0
    9.5463   15.6588   22.5316 C   0  0  0  0  0  0  0  0  0  0  0  0
   10.8196   16.2138   23.1908 C   0  0  0  0  0  0  0  0  0  0  0  0
   12.1047   15.7486   22.5192 C   0  0  0  0  0  0  0  0  0  0  0  0
   12.0312   15.9149   21.0062 C   0  0  0  0  0  0  0  0  0  0  0  0
   10.9297   15.1161   20.4854 N   0  0  0  0  0  0  0  0  0  0  0  0
    9.6438   15.5919   20.9903 C   0  0  0  0  0  0  0  0  0  0  0  0
   11.0597   14.1453   20.7699 H   0  0  0  0  0  0  0  0  0  0  0  0
  1  2  2  0  0  0
  2  3  1  0  0  0
  3  4  2  0  0  0
  4  5  1  0  0  0
  5  6  2  0  0  0
 11  6  1  0  0  0
 11 12  1  0  0  0
 12 13  1  0  0  0
 13 14  1  0  0  0
 14 15  1  0  0  0
 15 16  1  0  0  0
  4  7  1  0  0  0
  7  8  1  0  0  0
  8  9  1  0  0  0
  9 10  1  0  0  0
  6  1  1  0  0  0
 16 11  1  0  0  0
 10  3  1  0  0  0
 15 17  1  0  0  0
M  END
> <minimizedAffinity>
-6.11230

> <minimizedRMSD>
0.40456

$$$$
C3508-P195


 26 28  0  0  0  0  0  0  0  0999 V2000
    3.3767   14.8603    1.9613 C   0  0  0  0  0  0  0  0  0  0  0  0
    0.9586   14.8955    2.8086 C   0  0  0  0  0  0  0  0  0  0  0  0
    2.3594   15.5176    2.9458 C   0  0  0  0  0  0  0  0  0  0  0  0
    2.8227   15.3552    4.4204 C   0  0  0  0  0  0  0  0  0  0  0  0
    2.2565   17.0293    2.6556 C   0  0  0  0  0  0  0  0  0  0  0  0
    4.4458   14.2958    2.7526 N   0  0  0  0  0  0  0  0  0  0  0  0
    5.9326   14.1552    2.4523 C   0  0  0  0  0  0  0  0  0  0  0  0
    6.5327   14.3996    1.4891 O   0  0  0  0  0  0  0  0  0  0  0  0
    4.1678   13.9446    3.6293 H   0  0  0  0  0  0  0  0  0  0  0  0
    6.5711   13.7279    3.6688 C   0  0  0  0  0  0  0  0  0  0  0  0
    6.6628   14.4813    4.8474 C   0  0  0  0  0  0  0  0  0  0  0  0
    7.1003   13.7524    5.8719 N   0  0  0  0  0  0  0  0  0  0  0  0
    7.3922   12.5057    5.3360 O   0  0  0  0  0  0  0  0  0  0  0  0
    7.0583   12.4855    4.0174 C   0  0  0  0  0  0  0  0  0  0  0  0
    7.1009   11.2035    3.1329 C   0  0  0  0  0  0  0  0  0  0  0  0
    8.0241   10.0653    3.4533 C   0  0  0  0  0  0  0  0  0  0  0  0
    8.3159   10.9429    2.2753 C   0  0  0  0  0  0  0  0  0  0  0  0
    2.7837   13.8108    0.9988 C   0  0  0  0  0  0  0  0  0  0  0  0
    3.7355   13.3527    0.0119 N   0  0  0  0  0  0  0  0  0  0  0  0
    4.4888   12.0102   -0.1077 C   0  0  0  0  0  0  0  0  0  0  0  0
    4.4017   11.0328    0.5291 O   0  0  0  0  0  0  0  0  0  0  0  0
    3.9360   14.0025   -0.6999 H   0  0  0  0  0  0  0  0  0  0  0  0
    5.5006   12.0789   -1.2942 C   0  0  0  0  0  0  0  0  0  0  0  0
    7.0061   11.8145   -1.0327 C   0  0  0  0  0  0  0  0  0  0  0  0
    7.3190   12.8543   -2.1253 C   0  0  0  0  0  0  0  0  0  0  0  0
    5.9169   13.4486   -1.8894 C   0  0  0  0  0  0  0  0  0  0  0  0
  2  3  1  0  0  0
  3  4  1  0  0  0
  3  5  1  0  0  0
  3  1  1  0  0  0
  1 18  1  0  0  0
 18 19  1  0  0  0
 19 20  1  0  0  0
 20 21  2  0  0  0
 20 23  1  0  0  0
 23 24  1  0  0  0
 24 25  1  0  0  0
 25 26  1  0  0  0
  1  6  1  0  0  0
  6  7  1  0  0  0
  7  8  2  0  0  0
  7 10  1  0  0  0
 10 11  1  0  0  0
 11 12  2  0  0  0
 12 13  1  0  0  0
 13 14  1  0  0  0
 14 15  1  0  0  0
 15 16  1  0  0  0
 16 17  1  0  0  0
 26 23  1  0  0  0
 14 10  2  0  0  0
 17 15  1  0  0  0
 19 22  1  0  0  0
  6  9  1  0  0  0
M  END
> <minimizedAffinity>
-3.02873

> <minimizedRMSD>
3.44855

$$$$
C29723-P77


 12 12  0  0  0  0  0  0  0  0999 V2000
    7.3294   14.7022   24.1221 C   0  0  0  0  0  0  0  0  0  0  0  0
    7.0726   15.7438   25.0736 O   0  0  0  0  0  0  0  0  0  0  0  0
    7.7682   16.4171   25.0116 H   0  0  0  0  0  0  0  0  0  0  0  0
    7.3227   15.2437   22.6928 C   0  0  0  0  0  0  0  0  0  0  0  0
    5.0447   15.1117   22.0971 C   0  0  0  0  0  0  0  0  0  0  0  0
    6.3448   14.5736   21.8954 O   0  0  0  0  0  0  0  0  0  0  0  0
    8.6932   14.0689   24.4256 C   0  0  0  0  0  0  0  0  0  0  0  0
    8.6567   12.6277   24.5393 N   0  0  0  0  0  0  0  0  0  0  0  0
    7.8347   11.8705   25.3205 C   0  0  0  0  0  0  0  0  0  0  0  0
    8.1180   10.5809   24.9687 C   0  0  0  0  0  0  0  0  0  0  0  0
    9.1499   10.5346   24.0716 N   0  0  0  0  0  0  0  0  0  0  0  0
    9.4521   11.7835   23.8218 C   0  0  0  0  0  0  0  0  0  0  0  0
  5  6  1  0  0  0
  6  4  1  0  0  0
  4  1  1  0  0  0
  1  2  1  0  0  0
  1  7  1  0  0  0
  7  8  1  0  0  0
  8  9  1  0  0  0
  9 10  2  0  0  0
 10 11  1  0  0  0
 11 12  2  0  0  0
 12  8  1  0  0  0
  2  3  1  0  0  0
M  END
> <minimizedAffinity>
-3.49267

> <minimizedRMSD>
1.11597

$$$$
C14594-P391


 27 28  0  0  0  0  0  0  0  0999 V2000
    8.7852   -8.1657   11.6584 N   0  0  0  0  0  0  0  0  0  0  0  0
   10.1473   -8.9098   11.7364 C   0  0  0  0  0  0  0  0  0  0  0  0
   10.5673   -9.7475   11.0866 O   0  0  0  0  0  0  0  0  0  0  0  0
   10.8085   -8.1099   12.8988 N   0  0  0  0  0  0  0  0  0  0  0  0
    8.6220   -7.5248   12.3876 H   0  0  0  0  0  0  0  0  0  0  0  0
   10.2091   -7.4804   13.3610 H   0  0  0  0  0  0  0  0  0  0  0  0
   12.1094   -8.1429   13.3876 C   0  0  0  0  0  0  0  0  0  0  0  0
   13.1341   -8.7441   12.6690 C   0  0  0  0  0  0  0  0  0  0  0  0
   14.4010   -8.7437   13.2225 C   0  0  0  0  0  0  0  0  0  0  0  0
   14.6867   -8.2427   14.4431 N   0  0  0  0  0  0  0  0  0  0  0  0
   13.6579   -7.7066   15.1295 C   0  0  0  0  0  0  0  0  0  0  0  0
   12.3762   -7.5791   14.6266 C   0  0  0  0  0  0  0  0  0  0  0  0
   13.8318   -7.2961   16.4366 O   0  0  0  0  0  0  0  0  0  0  0  0
   14.1405   -8.3436   17.3698 C   0  0  0  0  0  0  0  0  0  0  0  0
   12.8685   -8.8261   18.0864 C   0  0  0  0  0  0  0  0  0  0  0  0
   13.1834   -9.8084   19.2103 C   0  0  0  0  0  0  0  0  0  0  0  0
   14.1698   -9.2185   20.2125 C   0  0  0  0  0  0  0  0  0  0  0  0
   15.4363   -8.7235   19.5232 C   0  0  0  0  0  0  0  0  0  0  0  0
   15.1145   -7.7462   18.3984 C   0  0  0  0  0  0  0  0  0  0  0  0
    6.3906   -7.8524   11.3487 C   0  0  0  0  0  0  0  0  0  0  0  0
    7.7011   -8.2654   10.6698 C   0  0  0  0  0  0  0  0  0  0  0  0
    7.5192   -9.6736   10.0779 C   0  0  0  0  0  0  0  0  0  0  0  0
    8.2913   -9.7669    8.8913 O   0  0  0  0  0  0  0  0  0  0  0  0
    7.9937   -9.0949    8.2582 H   0  0  0  0  0  0  0  0  0  0  0  0
    8.0552   -7.2946    9.5200 C   0  0  0  0  0  0  0  0  0  0  0  0
    7.0068   -7.1470    8.5737 O   0  0  0  0  0  0  0  0  0  0  0  0
    6.8231   -8.0041    8.1583 H   0  0  0  0  0  0  0  0  0  0  0  0
 20 21  1  0  0  0
 21 22  1  0  0  0
 22 23  1  0  0  0
 21 25  1  0  0  0
 25 26  1  0  0  0
 21  1  1  0  0  0
  1  2  1  0  0  0
  2  3  2  0  0  0
  2  4  1  0  0  0
  4  7  1  0  0  0
  7  8  2  0  0  0
  8  9  1  0  0  0
  9 10  2  0  0  0
 10 11  1  0  0  0
 11 13  1  0  0  0
 13 14  1  0  0  0
 14 15  1  0  0  0
 15 16  1  0  0  0
 16 17  1  0  0  0
 17 18  1  0  0  0
 18 19  1  0  0  0
 11 12  2  0  0  0
 12  7  1  0  0  0
 19 14  1  0  0  0
 23 24  1  0  0  0
 26 27  1  0  0  0
  1  5  1  0  0  0
  4  6  1  0  0  0
M  END
> <minimizedAffinity>
-4.70310

> <minimizedRMSD>
1.34503

$$$$
C2912-P404


 14 15  0  0  0  0  0  0  0  0999 V2000
    6.2645   12.2915   25.7308 O   0  0  0  0  0  0  0  0  0  0  0  0
    7.1459   12.4965   24.8996 C   0  0  0  0  0  0  0  0  0  0  0  0
    8.3885   11.6800   24.9088 C   0  0  0  0  0  0  0  0  0  0  0  0
    9.4760   11.8929   23.5341 S   0  0  0  0  0  0  0  0  0  0  0  0
    9.1816   13.5728   23.2087 C   0  0  0  0  0  0  0  0  0  0  0  0
    8.0563   14.1761   23.4385 N   0  0  0  0  0  0  0  0  0  0  0  0
    7.0229   13.5304   24.0264 N   0  0  0  0  0  0  0  0  0  0  0  0
    6.1125   13.8325   23.8046 H   0  0  0  0  0  0  0  0  0  0  0  0
   10.2667   14.2231   22.6807 N   0  0  0  0  0  0  0  0  0  0  0  0
   11.0204   15.0319   23.6339 C   0  0  0  0  0  0  0  0  0  0  0  0
   12.3688   15.4008   23.0476 C   0  0  0  0  0  0  0  0  0  0  0  0
   12.2469   16.0683   21.6825 C   0  0  0  0  0  0  0  0  0  0  0  0
   11.3505   15.2640   20.7491 C   0  0  0  0  0  0  0  0  0  0  0  0
   10.0194   14.9639   21.4273 C   0  0  0  0  0  0  0  0  0  0  0  0
  1  2  2  0  0  0
  2  3  1  0  0  0
  3  4  1  0  0  0
  4  5  1  0  0  0
  5  9  1  0  0  0
  9 10  1  0  0  0
 10 11  1  0  0  0
 11 12  1  0  0  0
 12 13  1  0  0  0
 13 14  1  0  0  0
  5  6  2  0  0  0
  6  7  1  0  0  0
  7  2  1  0  0  0
 14  9  1  0  0  0
  7  8  1  0  0  0
M  END
> <minimizedAffinity>
-5.43278

> <minimizedRMSD>
0.50829

$$$$
C2865-P404


 12 13  0  0  0  0  0  0  0  0999 V2000
    7.2110   11.6977   25.7835 O   0  0  0  0  0  0  0  0  0  0  0  0
    8.0487   11.9047   24.9232 C   0  0  0  0  0  0  0  0  0  0  0  0
    8.4555   13.2551   24.5522 C   0  0  0  0  0  0  0  0  0  0  0  0
    9.4914   13.1000   23.7250 C   0  0  0  0  0  0  0  0  0  0  0  0
    9.8561   11.6717   23.4675 C   0  0  0  0  0  0  0  0  0  0  0  0
    8.7979   10.8571   24.1705 C   0  0  0  0  0  0  0  0  0  0  0  0
   10.3529   14.0637   23.2516 N   0  0  0  0  0  0  0  0  0  0  0  0
   11.0325   14.9577   24.1821 C   0  0  0  0  0  0  0  0  0  0  0  0
   12.3967   15.3372   23.6290 C   0  0  0  0  0  0  0  0  0  0  0  0
   12.3152   15.8996   22.2143 C   0  0  0  0  0  0  0  0  0  0  0  0
   11.5201   14.9753   21.3008 C   0  0  0  0  0  0  0  0  0  0  0  0
   10.1609   14.6594   21.9158 C   0  0  0  0  0  0  0  0  0  0  0  0
  1  2  2  0  0  0
  2  3  1  0  0  0
  3  4  2  0  0  0
  4  7  1  0  0  0
  7  8  1  0  0  0
  8  9  1  0  0  0
  9 10  1  0  0  0
 10 11  1  0  0  0
 11 12  1  0  0  0
  4  5  1  0  0  0
  5  6  1  0  0  0
  6  2  1  0  0  0
 12  7  1  0  0  0
M  END
> <minimizedAffinity>
-5.20938

> <minimizedRMSD>
0.36889

$$$$
C9947-P234


 12 12  0  0  0  0  0  0  0  0999 V2000
    8.7788   13.0340   23.6326 C   0  0  0  0  0  0  0  0  0  0  0  0
    9.9829   12.0963   23.5518 C   0  0  0  0  0  0  0  0  0  0  0  0
    9.5604   10.6415   23.4940 C   0  0  0  0  0  0  0  0  0  0  0  0
    8.6042   10.3055   24.5054 N   0  0  0  0  0  0  0  0  0  0  0  0
    7.7391   11.1613   25.0949 C   0  0  0  0  0  0  0  0  0  0  0  0
    6.9660   10.7342   25.9472 O   0  0  0  0  0  0  0  0  0  0  0  0
    7.8128   12.6294   24.7561 C   0  0  0  0  0  0  0  0  0  0  0  0
    8.5738    9.3660   24.7981 H   0  0  0  0  0  0  0  0  0  0  0  0
    9.2114   14.5006   23.8558 C   0  0  0  0  0  0  0  0  0  0  0  0
   10.2565   15.0366   22.8821 C   0  0  0  0  0  0  0  0  0  0  0  0
    9.5064   14.8725   20.6095 O   0  0  0  0  0  0  0  0  0  0  0  0
    9.6425   15.5608   21.6154 C   0  0  0  0  0  0  0  0  0  0  0  0
 11 12  2  0  0  0
 12 10  1  0  0  0
 10  9  1  0  0  0
  1  9  1  0  0  0
  1  2  1  0  0  0
  2  3  1  0  0  0
  3  4  1  0  0  0
  4  5  1  0  0  0
  5  6  2  0  0  0
  5  7  1  0  0  0
  7  1  1  0  0  0
  4  8  1  0  0  0
M  END
> <minimizedAffinity>
-4.27086

> <minimizedRMSD>
0.30775

$$$$
C11200-P153


 13 13  0  0  0  0  0  0  0  0999 V2000
    9.3357   13.0922   24.7151 C   0  0  0  0  0  0  0  0  0  0  0  0
    9.0607   13.7944   25.6832 O   0  0  0  0  0  0  0  0  0  0  0  0
    8.8235   11.7114   24.6904 C   0  0  0  0  0  0  0  0  0  0  0  0
    9.4166   10.7372   23.8932 C   0  0  0  0  0  0  0  0  0  0  0  0
    8.9681    9.4382   24.0499 C   0  0  0  0  0  0  0  0  0  0  0  0
    7.9705    9.0885   24.8998 N   0  0  0  0  0  0  0  0  0  0  0  0
    7.4004   10.0641   25.6336 C   0  0  0  0  0  0  0  0  0  0  0  0
    7.7984   11.3815   25.5756 C   0  0  0  0  0  0  0  0  0  0  0  0
   12.3578   13.3834   24.7221 C   0  0  0  0  0  0  0  0  0  0  0  0
   11.4462   13.7254   23.5914 C   0  0  0  0  0  0  0  0  0  0  0  0
   10.1078   13.5904   23.5369 C   0  0  0  0  0  0  0  0  0  0  0  0
    9.3278   14.0634   22.3412 C   0  0  0  0  0  0  0  0  0  0  0  0
    9.5304   15.5480   22.0543 C   0  0  0  0  0  0  0  0  0  0  0  0
  9 10  1  0  0  0
 10 11  2  0  0  0
 11 12  1  0  0  0
 12 13  1  0  0  0
 11  1  1  0  0  0
  1  2  2  0  0  0
  1  3  1  0  0  0
  3  4  2  0  0  0
  4  5  1  0  0  0
  5  6  2  0  0  0
  6  7  1  0  0  0
  7  8  2  0  0  0
  8  3  1  0  0  0
M  END
> <minimizedAffinity>
-5.04983

> <minimizedRMSD>
1.35862

$$$$
C11228-P153


 17 17  0  0  0  0  0  0  0  0999 V2000
    8.3627   14.1604   23.4428 C   0  0  0  0  0  0  0  0  0  0  0  0
    7.4286   13.7449   22.7489 O   0  0  0  0  0  0  0  0  0  0  0  0
    9.8736   13.9531   25.5254 C   0  0  0  0  0  0  0  0  0  0  0  0
    8.6368   13.4746   24.7799 C   0  0  0  0  0  0  0  0  0  0  0  0
    8.6066   11.9535   24.7015 C   0  0  0  0  0  0  0  0  0  0  0  0
    9.4604   11.2084   23.8780 C   0  0  0  0  0  0  0  0  0  0  0  0
    9.3157    9.8289   23.8424 C   0  0  0  0  0  0  0  0  0  0  0  0
    8.4038    9.1543   24.5794 N   0  0  0  0  0  0  0  0  0  0  0  0
    7.5975    9.8832   25.3722 C   0  0  0  0  0  0  0  0  0  0  0  0
    7.6638   11.2605   25.4697 C   0  0  0  0  0  0  0  0  0  0  0  0
    9.1446   15.4437   23.1130 C   0  0  0  0  0  0  0  0  0  0  0  0
    9.7585   15.5946   21.7073 C   0  0  0  0  0  0  0  0  0  0  0  0
    8.9575   14.8336   20.6873 C   0  0  0  0  0  0  0  0  0  0  0  0
   11.2850   15.2852   21.5988 C   0  0  0  0  0  0  0  0  0  0  0  0
   11.7471   15.0656   20.1375 C   0  0  0  0  0  0  0  0  0  0  0  0
   12.0575   16.4980   22.1252 C   0  0  0  0  0  0  0  0  0  0  0  0
   11.6628   14.0820   22.4708 C   0  0  0  0  0  0  0  0  0  0  0  0
  4  3  1  0  0  0
  4  1  1  0  0  0
  1  2  2  0  0  0
  1 11  1  0  0  0
 11 12  1  0  0  0
 12 13  1  0  0  0
 12 14  1  0  0  0
 14 15  1  0  0  0
 14 16  1  0  0  0
 14 17  1  0  0  0
  4  5  1  0  0  0
  5  6  2  0  0  0
  6  7  1  0  0  0
  7  8  2  0  0  0
  8  9  1  0  0  0
  9 10  2  0  0  0
 10  5  1  0  0  0
M  END
> <minimizedAffinity>
-5.88595

> <minimizedRMSD>
0.59947

$$$$
C2393-P153


 12 12  0  0  0  0  0  0  0  0999 V2000
    9.3298   12.0870   24.7772 C   0  0  0  0  0  0  0  0  0  0  0  0
    9.5857   11.1790   23.5906 C   0  0  0  0  0  0  0  0  0  0  0  0
    9.2460    9.7250   23.8753 C   0  0  0  0  0  0  0  0  0  0  0  0
    8.0551    9.4910   24.6694 N   0  0  0  0  0  0  0  0  0  0  0  0
    7.5656   10.5159   25.5702 C   0  0  0  0  0  0  0  0  0  0  0  0
    7.8957   11.9580   25.2238 C   0  0  0  0  0  0  0  0  0  0  0  0
    8.2393    8.6643   25.2379 H   0  0  0  0  0  0  0  0  0  0  0  0
    9.7485   13.5215   24.5773 C   0  0  0  0  0  0  0  0  0  0  0  0
   10.0327   14.2268   25.5420 O   0  0  0  0  0  0  0  0  0  0  0  0
    9.7432   14.1545   22.9405 S   0  0  0  0  0  0  0  0  0  0  0  0
   11.9320   15.6805   22.1946 C   0  0  0  0  0  0  0  0  0  0  0  0
   11.5319   14.3022   22.6807 C   0  0  0  0  0  0  0  0  0  0  0  0
 11 12  1  0  0  0
 12 10  1  0  0  0
 10  8  1  0  0  0
  8  9  2  0  0  0
  8  1  1  0  0  0
  1  2  1  0  0  0
  2  3  1  0  0  0
  3  4  1  0  0  0
  4  5  1  0  0  0
  5  6  1  0  0  0
  6  1  1  0  0  0
  4  7  1  0  0  0
M  END
> <minimizedAffinity>
-4.39499

> <minimizedRMSD>
1.01173

$$$$
C2408-P153


 15 15  0  0  0  0  0  0  0  0999 V2000
    8.4856   14.6348   23.5320 C   0  0  0  0  0  0  0  0  0  0  0  0
    7.4518   13.9083   22.6675 C   0  0  0  0  0  0  0  0  0  0  0  0
    7.8424   16.0038   23.8877 C   0  0  0  0  0  0  0  0  0  0  0  0
    9.7893   14.7657   22.8180 N   0  0  0  0  0  0  0  0  0  0  0  0
   10.7755   15.5657   23.5636 C   0  0  0  0  0  0  0  0  0  0  0  0
   12.1400   15.4851   22.8959 C   0  0  0  0  0  0  0  0  0  0  0  0
   12.0893   16.0072   21.4715 C   0  0  0  0  0  0  0  0  0  0  0  0
   11.0077   15.2781   20.6930 C   0  0  0  0  0  0  0  0  0  0  0  0
    9.6701   15.2954   21.4379 C   0  0  0  0  0  0  0  0  0  0  0  0
    8.7186   13.8877   24.8905 C   0  0  0  0  0  0  0  0  0  0  0  0
    8.7453   14.5250   25.9601 O   0  0  0  0  0  0  0  0  0  0  0  0
    8.9157   12.3759   25.0160 C   0  0  0  0  0  0  0  0  0  0  0  0
    7.6888   11.7180   25.6236 C   0  0  0  0  0  0  0  0  0  0  0  0
    9.3937   10.1224   23.8730 C   0  0  0  0  0  0  0  0  0  0  0  0
    9.5488   11.6406   23.8443 C   0  0  0  0  0  0  0  0  0  0  0  0
 14 15  1  0  0  0
 15 12  1  0  0  0
 12 13  1  0  0  0
 12 10  1  0  0  0
 10 11  2  0  0  0
 10  1  1  0  0  0
  1  2  1  0  0  0
  1  3  1  0  0  0
  1  4  1  0  0  0
  4  5  1  0  0  0
  5  6  1  0  0  0
  6  7  1  0  0  0
  7  8  1  0  0  0
  8  9  1  0  0  0
  9  4  1  0  0  0
M  END
> <minimizedAffinity>
-5.19852

> <minimizedRMSD>
0.47565

$$$$
C2040-P496


 16 18  0  0  0  0  0  0  0  0999 V2000
    8.0241   13.2998   23.6052 C   0  0  0  0  0  0  0  0  0  0  0  0
    6.8794   13.4120   24.2417 N   0  0  0  0  0  0  0  0  0  0  0  0
    6.4781   14.6942   24.0077 C   0  0  0  0  0  0  0  0  0  0  0  0
    7.4047   15.3791   23.2499 C   0  0  0  0  0  0  0  0  0  0  0  0
    8.3948   14.4741   22.9880 N   0  0  0  0  0  0  0  0  0  0  0  0
    7.2852   16.8041   22.8485 C   0  0  0  0  0  0  0  0  0  0  0  0
    6.2495   17.5067   23.7481 C   0  0  0  0  0  0  0  0  0  0  0  0
    4.9643   16.6714   23.9118 C   0  0  0  0  0  0  0  0  0  0  0  0
    5.2397   15.2996   24.5605 C   0  0  0  0  0  0  0  0  0  0  0  0
    9.6761   14.6497   22.3269 C   0  0  0  0  0  0  0  0  0  0  0  0
   10.5594   15.6492   23.0808 C   0  0  0  0  0  0  0  0  0  0  0  0
   11.9311   15.6972   22.4211 C   0  0  0  0  0  0  0  0  0  0  0  0
   11.8323   15.9984   20.9279 C   0  0  0  0  0  0  0  0  0  0  0  0
   10.9581   15.0568   20.2220 N   0  0  0  0  0  0  0  0  0  0  0  0
    9.6211   15.0124   20.8322 C   0  0  0  0  0  0  0  0  0  0  0  0
   11.3724   14.1255   20.2603 H   0  0  0  0  0  0  0  0  0  0  0  0
  1  2  2  0  0  0
  2  3  1  0  0  0
  3  4  2  0  0  0
  4  5  1  0  0  0
 10  5  1  0  0  0
 10 11  1  0  0  0
 11 12  1  0  0  0
 12 13  1  0  0  0
 13 14  1  0  0  0
 14 15  1  0  0  0
  4  6  1  0  0  0
  6  7  1  0  0  0
  7  8  1  0  0  0
  8  9  1  0  0  0
  5  1  1  0  0  0
 15 10  1  0  0  0
  9  3  1  0  0  0
 14 16  1  0  0  0
M  END
> <minimizedAffinity>
-5.10417

> <minimizedRMSD>
0.89486

$$$$
C2059-P496


 16 18  0  0  0  0  0  0  0  0999 V2000
    8.2561   13.2245   23.0820 C   0  0  0  0  0  0  0  0  0  0  0  0
    7.0742   13.1238   23.6464 N   0  0  0  0  0  0  0  0  0  0  0  0
    6.5490   14.3784   23.5628 C   0  0  0  0  0  0  0  0  0  0  0  0
    7.4213   15.2553   22.9511 C   0  0  0  0  0  0  0  0  0  0  0  0
    8.5328   14.5111   22.6650 N   0  0  0  0  0  0  0  0  0  0  0  0
    7.1752   16.7095   22.7662 C   0  0  0  0  0  0  0  0  0  0  0  0
    5.7091   17.0587   23.0982 C   0  0  0  0  0  0  0  0  0  0  0  0
    5.1527   16.2828   24.3061 C   0  0  0  0  0  0  0  0  0  0  0  0
    5.2160   14.7608   24.0877 C   0  0  0  0  0  0  0  0  0  0  0  0
    9.8514   14.9026   22.1891 C   0  0  0  0  0  0  0  0  0  0  0  0
   10.6129   15.6554   23.2844 C   0  0  0  0  0  0  0  0  0  0  0  0
   12.0462   15.8781   22.8319 C   0  0  0  0  0  0  0  0  0  0  0  0
   12.0977   16.6265   21.5866 N   0  0  0  0  0  0  0  0  0  0  0  0
   11.3878   15.9501   20.4996 C   0  0  0  0  0  0  0  0  0  0  0  0
    9.9274   15.6863   20.8743 C   0  0  0  0  0  0  0  0  0  0  0  0
   13.0740   16.7456   21.3161 H   0  0  0  0  0  0  0  0  0  0  0  0
  1  2  2  0  0  0
  2  3  1  0  0  0
  3  4  2  0  0  0
  4  5  1  0  0  0
  5 10  1  0  0  0
 10 11  1  0  0  0
 11 12  1  0  0  0
 12 13  1  0  0  0
 13 14  1  0  0  0
 14 15  1  0  0  0
  4  6  1  0  0  0
  6  7  1  0  0  0
  7  8  1  0  0  0
  8  9  1  0  0  0
  5  1  1  0  0  0
 15 10  1  0  0  0
  9  3  1  0  0  0
 13 16  1  0  0  0
M  END
> <minimizedAffinity>
-5.00794

> <minimizedRMSD>
1.12356

$$$$
C16466-P174


 17 17  0  0  0  0  0  0  0  0999 V2000
    6.2149   10.3147   26.4913 C   0  0  0  0  0  0  0  0  0  0  0  0
    5.5196    9.5087   28.9942 C   0  0  0  0  0  0  0  0  0  0  0  0
    6.4171    9.7746   29.6938 O   0  0  0  0  0  0  0  0  0  0  0  0
    5.3171    9.7654   27.4748 N   0  0  0  0  0  0  0  0  0  0  0  0
    4.4314    9.5113   27.1282 H   0  0  0  0  0  0  0  0  0  0  0  0
    4.2460    8.7982   29.4904 C   0  0  0  0  0  0  0  0  0  0  0  0
    2.7356    9.9016   28.8922 Br  0  0  0  0  0  0  0  0  0  0  0  0
    4.5263    7.2413   31.4861 C   0  0  0  0  0  0  0  0  0  0  0  0
    4.2209    8.6560   31.0119 C   0  0  0  0  0  0  0  0  0  0  0  0
    6.6840   11.7280   26.7979 C   0  0  0  0  0  0  0  0  0  0  0  0
    7.0009   12.5718   25.5638 C   0  0  0  0  0  0  0  0  0  0  0  0
    8.2442   12.2314   24.8151 C   0  0  0  0  0  0  0  0  0  0  0  0
    9.4580   12.9522   24.8304 C   0  0  0  0  0  0  0  0  0  0  0  0
   10.3788   12.4277   24.0255 N   0  0  0  0  0  0  0  0  0  0  0  0
    9.7556   11.3926   23.4438 N   0  0  0  0  0  0  0  0  0  0  0  0
    8.4761   11.2300   23.8918 C   0  0  0  0  0  0  0  0  0  0  0  0
   10.1750   10.8130   22.7675 H   0  0  0  0  0  0  0  0  0  0  0  0
  8  9  1  0  0  0
  9  6  1  0  0  0
  6  7  1  0  0  0
  6  2  1  0  0  0
  2  3  2  0  0  0
  2  4  1  0  0  0
  4  1  1  0  0  0
  1 10  1  0  0  0
 10 11  1  0  0  0
 11 12  1  0  0  0
 12 13  1  0  0  0
 13 14  2  0  0  0
 14 15  1  0  0  0
 15 16  1  0  0  0
 16 12  2  0  0  0
  4  5  1  0  0  0
 15 17  1  0  0  0
M  END
> <minimizedAffinity>
-3.88491

> <minimizedRMSD>
0.64300

$$$$
C7135-P290


 24 25  0  0  0  0  0  0  0  0999 V2000
    6.4984   11.9211   25.2765 C   0  0  0  0  0  0  0  0  0  0  0  0
    7.3298   10.8175   25.1654 C   0  0  0  0  0  0  0  0  0  0  0  0
    8.5066   10.9673   24.4533 C   0  0  0  0  0  0  0  0  0  0  0  0
    8.9126   12.1319   23.8910 N   0  0  0  0  0  0  0  0  0  0  0  0
    8.1247   13.2114   24.0329 C   0  0  0  0  0  0  0  0  0  0  0  0
    6.8910   13.1227   24.6913 C   0  0  0  0  0  0  0  0  0  0  0  0
    8.5549   14.4783   23.6053 N   0  0  0  0  0  0  0  0  0  0  0  0
    9.0605   14.5778   22.2180 C   0  0  0  0  0  0  0  0  0  0  0  0
   10.5756   14.3061   22.0671 C   0  0  0  0  0  0  0  0  0  0  0  0
   11.4126   15.0987   22.9954 N   0  0  0  0  0  0  0  0  0  0  0  0
   10.9537   14.7976   24.3617 C   0  0  0  0  0  0  0  0  0  0  0  0
    9.4568   15.1042   24.5963 C   0  0  0  0  0  0  0  0  0  0  0  0
   11.3029   16.0941   22.8014 H   0  0  0  0  0  0  0  0  0  0  0  0
    4.8337   10.8810   27.1088 C   0  0  0  0  0  0  0  0  0  0  0  0
    5.3879    9.9793   27.6032 O   0  0  0  0  0  0  0  0  0  0  0  0
    5.2813   11.8327   25.9593 N   0  0  0  0  0  0  0  0  0  0  0  0
    4.5962   12.4761   25.6662 H   0  0  0  0  0  0  0  0  0  0  0  0
    3.3980   11.2385   27.5027 C   0  0  0  0  0  0  0  0  0  0  0  0
    3.6057   12.0518   29.8713 C   0  0  0  0  0  0  0  0  0  0  0  0
    3.1286   10.8961   28.9879 C   0  0  0  0  0  0  0  0  0  0  0  0
    1.6570   10.6092   29.2365 C   0  0  0  0  0  0  0  0  0  0  0  0
    1.4094   10.4197   30.5529 F   0  0  0  0  0  0  0  0  0  0  0  0
    1.2412    9.5066   28.5848 F   0  0  0  0  0  0  0  0  0  0  0  0
    0.8841   11.6409   28.8247 F   0  0  0  0  0  0  0  0  0  0  0  0
 20 19  1  0  0  0
 20 18  1  0  0  0
 18 14  1  0  0  0
 14 15  2  0  0  0
 14 16  1  0  0  0
 16  1  1  0  0  0
  1  2  2  0  0  0
  2  3  1  0  0  0
  3  4  2  0  0  0
  4  5  1  0  0  0
  5  7  1  0  0  0
  7  8  1  0  0  0
  8  9  1  0  0  0
  9 10  1  0  0  0
 10 11  1  0  0  0
 11 12  1  0  0  0
  5  6  2  0  0  0
 20 21  1  0  0  0
 21 22  1  0  0  0
 21 23  1  0  0  0
 21 24  1  0  0  0
  6  1  1  0  0  0
 12  7  1  0  0  0
 16 17  1  0  0  0
 10 13  1  0  0  0
M  END
> <minimizedAffinity>
-4.87174

> <minimizedRMSD>
0.20928

$$$$
C2382-P465


 15 15  0  0  0  0  0  0  0  0999 V2000
    8.0891   14.5939   23.2837 C   0  0  0  0  0  0  0  0  0  0  0  0
    7.2295   13.5833   22.5130 C   0  0  0  0  0  0  0  0  0  0  0  0
    7.2818   15.9003   23.4129 C   0  0  0  0  0  0  0  0  0  0  0  0
    9.4029   14.7779   22.6197 N   0  0  0  0  0  0  0  0  0  0  0  0
   10.3766   15.5565   23.3969 C   0  0  0  0  0  0  0  0  0  0  0  0
   11.7613   15.3581   22.7905 C   0  0  0  0  0  0  0  0  0  0  0  0
   11.7941   15.8631   21.3580 C   0  0  0  0  0  0  0  0  0  0  0  0
   10.6924   15.2100   20.5406 C   0  0  0  0  0  0  0  0  0  0  0  0
    9.3347   15.3084   21.2403 C   0  0  0  0  0  0  0  0  0  0  0  0
    8.2850   14.0060   24.7102 C   0  0  0  0  0  0  0  0  0  0  0  0
    7.6527   14.4469   25.6799 O   0  0  0  0  0  0  0  0  0  0  0  0
    9.1735   12.7874   24.9283 C   0  0  0  0  0  0  0  0  0  0  0  0
    7.4297   11.1976   25.8333 C   0  0  0  0  0  0  0  0  0  0  0  0
    8.4129   11.4841   24.7073 C   0  0  0  0  0  0  0  0  0  0  0  0
    9.3669   10.3159   24.5053 C   0  0  0  0  0  0  0  0  0  0  0  0
 13 14  1  0  0  0
 14 15  1  0  0  0
 14 12  1  0  0  0
 12 10  1  0  0  0
 10 11  2  0  0  0
 10  1  1  0  0  0
  1  2  1  0  0  0
  1  3  1  0  0  0
  1  4  1  0  0  0
  4  5  1  0  0  0
  5  6  1  0  0  0
  6  7  1  0  0  0
  7  8  1  0  0  0
  8  9  1  0  0  0
  9  4  1  0  0  0
M  END
> <minimizedAffinity>
-5.22776

> <minimizedRMSD>
0.66052

$$$$
C18170-P495


 13 13  0  0  0  0  0  0  0  0999 V2000
    9.0295   14.1593   22.0074 C   0  0  0  0  0  0  0  0  0  0  0  0
    7.9783   14.4421   21.4362 O   0  0  0  0  0  0  0  0  0  0  0  0
    9.0136   13.1359   23.0292 C   0  0  0  0  0  0  0  0  0  0  0  0
    8.1704   13.0677   24.1224 C   0  0  0  0  0  0  0  0  0  0  0  0
    8.3794   11.7994   24.6718 C   0  0  0  0  0  0  0  0  0  0  0  0
    9.3039   11.1124   24.0034 N   0  0  0  0  0  0  0  0  0  0  0  0
    9.6731   11.9357   23.0041 N   0  0  0  0  0  0  0  0  0  0  0  0
   10.3468   11.6997   22.3261 H   0  0  0  0  0  0  0  0  0  0  0  0
   10.3575   14.8228   21.6159 C   0  0  0  0  0  0  0  0  0  0  0  0
   11.2787   15.2806   19.2508 C   0  0  0  0  0  0  0  0  0  0  0  0
   10.1839   15.5556   20.2674 C   0  0  0  0  0  0  0  0  0  0  0  0
   10.8462   15.7698   22.7243 C   0  0  0  0  0  0  0  0  0  0  0  0
   11.9127   15.1320   23.6023 C   0  0  0  0  0  0  0  0  0  0  0  0
 10 11  1  0  0  0
 11  9  1  0  0  0
  9 12  1  0  0  0
 12 13  1  0  0  0
  9  1  1  0  0  0
  1  2  2  0  0  0
  1  3  1  0  0  0
  3  4  2  0  0  0
  4  5  1  0  0  0
  5  6  2  0  0  0
  6  7  1  0  0  0
  7  3  1  0  0  0
  7  8  1  0  0  0
M  END
> <minimizedAffinity>
-4.69626

> <minimizedRMSD>
1.45095

$$$$
C18171-P495


 16 16  0  0  0  0  0  0  0  0999 V2000
    8.9141   14.3417   23.5171 C   0  0  0  0  0  0  0  0  0  0  0  0
   10.8425   15.6865   24.3984 C   0  0  0  0  0  0  0  0  0  0  0  0
   10.2407   15.0467   23.1406 C   0  0  0  0  0  0  0  0  0  0  0  0
   11.3106   14.0994   22.5746 C   0  0  0  0  0  0  0  0  0  0  0  0
    9.8579   16.1447   22.1003 C   0  0  0  0  0  0  0  0  0  0  0  0
   10.8236   16.3518   20.9464 C   0  0  0  0  0  0  0  0  0  0  0  0
   11.9251   17.0083   21.3798 F   0  0  0  0  0  0  0  0  0  0  0  0
   10.2297   17.1290   20.0115 F   0  0  0  0  0  0  0  0  0  0  0  0
    8.9175   13.4319   24.7321 C   0  0  0  0  0  0  0  0  0  0  0  0
    8.8621   13.8815   25.8746 O   0  0  0  0  0  0  0  0  0  0  0  0
    8.9345   12.0010   24.5157 C   0  0  0  0  0  0  0  0  0  0  0  0
    8.0546   11.0527   25.0642 C   0  0  0  0  0  0  0  0  0  0  0  0
    8.3388    9.8142   24.6671 N   0  0  0  0  0  0  0  0  0  0  0  0
    9.4045    9.9558   23.8685 N   0  0  0  0  0  0  0  0  0  0  0  0
    9.7821   11.2532   23.7273 C   0  0  0  0  0  0  0  0  0  0  0  0
    9.8638    9.2025   23.4316 H   0  0  0  0  0  0  0  0  0  0  0  0
  2  3  1  0  0  0
  3  4  1  0  0  0
  3  1  1  0  0  0
  1  9  1  0  0  0
  9 10  2  0  0  0
  9 11  1  0  0  0
 11 12  1  0  0  0
 12 13  2  0  0  0
 13 14  1  0  0  0
 14 15  1  0  0  0
  3  5  1  0  0  0
  5  6  1  0  0  0
  6  7  1  0  0  0
  6  8  1  0  0  0
 15 11  2  0  0  0
 14 16  1  0  0  0
M  END
> <minimizedAffinity>
-5.39390

> <minimizedRMSD>
0.90868

$$$$
C18173-P495


 14 14  0  0  0  0  0  0  0  0999 V2000
    8.9536   14.0804   24.5454 C   0  0  0  0  0  0  0  0  0  0  0  0
    9.1935   14.6105   25.6288 O   0  0  0  0  0  0  0  0  0  0  0  0
    9.0177   12.6368   24.4139 C   0  0  0  0  0  0  0  0  0  0  0  0
    8.1608   11.6977   25.0190 C   0  0  0  0  0  0  0  0  0  0  0  0
    8.4464   10.4453   24.6645 N   0  0  0  0  0  0  0  0  0  0  0  0
    9.4940   10.5672   23.8352 N   0  0  0  0  0  0  0  0  0  0  0  0
    9.8885   11.8644   23.6737 C   0  0  0  0  0  0  0  0  0  0  0  0
    9.9306    9.8045   23.3915 H   0  0  0  0  0  0  0  0  0  0  0  0
    8.5059   14.9018   23.3524 C   0  0  0  0  0  0  0  0  0  0  0  0
    9.6267   15.7019   22.7011 C   0  0  0  0  0  0  0  0  0  0  0  0
    9.8984   15.1872   21.2838 C   0  0  0  0  0  0  0  0  0  0  0  0
   12.1729   16.2739   21.5958 C   0  0  0  0  0  0  0  0  0  0  0  0
   11.3932   15.1449   20.9307 C   0  0  0  0  0  0  0  0  0  0  0  0
   11.5735   15.1938   19.4132 C   0  0  0  0  0  0  0  0  0  0  0  0
 12 13  1  0  0  0
 13 14  1  0  0  0
 13 11  1  0  0  0
 11 10  1  0  0  0
 10  9  1  0  0  0
  9  1  1  0  0  0
  1  2  2  0  0  0
  1  3  1  0  0  0
  3  4  1  0  0  0
  4  5  2  0  0  0
  5  6  1  0  0  0
  6  7  1  0  0  0
  7  3  2  0  0  0
  6  8  1  0  0  0
M  END
> <minimizedAffinity>
-5.00996

> <minimizedRMSD>
0.97605

$$$$
C3508-P489


 26 28  0  0  0  0  0  0  0  0999 V2000
    5.2771   14.4185    0.5761 C   0  0  0  0  0  0  0  0  0  0  0  0
    4.3130   12.2031    1.3320 C   0  0  0  0  0  0  0  0  0  0  0  0
    4.0305   13.4778    0.5099 C   0  0  0  0  0  0  0  0  0  0  0  0
    2.7474   14.1390    1.0722 C   0  0  0  0  0  0  0  0  0  0  0  0
    3.7498   13.0321   -0.9383 C   0  0  0  0  0  0  0  0  0  0  0  0
    6.0310   14.1047    1.7700 N   0  0  0  0  0  0  0  0  0  0  0  0
    7.5347   14.1382    2.0317 C   0  0  0  0  0  0  0  0  0  0  0  0
    8.4089   14.4961    1.3565 O   0  0  0  0  0  0  0  0  0  0  0  0
    5.4852   13.8235    2.5397 H   0  0  0  0  0  0  0  0  0  0  0  0
    7.7143   13.7125    3.3917 C   0  0  0  0  0  0  0  0  0  0  0  0
    7.6996   14.5251    4.5331 C   0  0  0  0  0  0  0  0  0  0  0  0
    7.6313   13.8058    5.6529 N   0  0  0  0  0  0  0  0  0  0  0  0
    7.6922   12.4805    5.2420 O   0  0  0  0  0  0  0  0  0  0  0  0
    7.7262   12.4263    3.8834 C   0  0  0  0  0  0  0  0  0  0  0  0
    7.6412   11.1102    3.0623 C   0  0  0  0  0  0  0  0  0  0  0  0
    8.8350   10.6540    2.2612 C   0  0  0  0  0  0  0  0  0  0  0  0
    8.4166    9.8946    3.4835 C   0  0  0  0  0  0  0  0  0  0  0  0
    4.9828   15.9389    0.5357 C   0  0  0  0  0  0  0  0  0  0  0  0
    4.9110   16.4669   -0.8059 N   0  0  0  0  0  0  0  0  0  0  0  0
    3.6983   16.6790   -1.7363 C   0  0  0  0  0  0  0  0  0  0  0  0
    2.5569   16.5322   -1.5371 O   0  0  0  0  0  0  0  0  0  0  0  0
    5.7768   16.7354   -1.1900 H   0  0  0  0  0  0  0  0  0  0  0  0
    4.2610   17.1965   -3.1104 C   0  0  0  0  0  0  0  0  0  0  0  0
    3.6847   16.5695   -4.4113 C   0  0  0  0  0  0  0  0  0  0  0  0
    4.8778   15.5975   -4.4043 C   0  0  0  0  0  0  0  0  0  0  0  0
    5.6393   16.6393   -3.5660 C   0  0  0  0  0  0  0  0  0  0  0  0
  2  3  1  0  0  0
  3  4  1  0  0  0
  3  5  1  0  0  0
  3  1  1  0  0  0
  1 18  1  0  0  0
 18 19  1  0  0  0
 19 20  1  0  0  0
 20 21  2  0  0  0
 20 23  1  0  0  0
 23 24  1  0  0  0
 24 25  1  0  0  0
 25 26  1  0  0  0
  1  6  1  0  0  0
  6  7  1  0  0  0
  7  8  2  0  0  0
  7 10  1  0  0  0
 10 11  1  0  0  0
 11 12  2  0  0  0
 12 13  1  0  0  0
 13 14  1  0  0  0
 14 15  1  0  0  0
 15 16  1  0  0  0
 16 17  1  0  0  0
 26 23  1  0  0  0
 14 10  2  0  0  0
 17 15  1  0  0  0
 19 22  1  0  0  0
  6  9  1  0  0  0
M  END
> <minimizedAffinity>
-2.63709

> <minimizedRMSD>
0.74790

$$$$
C7529-P323


 14 14  0  0  0  0  0  0  0  0999 V2000
   11.6706   13.6090   23.7126 O   0  0  0  0  0  0  0  0  0  0  0  0
   10.6012   13.7985   23.2569 C   0  0  0  0  0  0  0  0  0  0  0  0
   10.0876   14.9414   22.2986 N   0  0  0  0  0  0  0  0  0  0  0  0
    9.1575   14.8369   21.9933 H   0  0  0  0  0  0  0  0  0  0  0  0
   10.7349   16.0705   21.8162 N   0  0  0  0  0  0  0  0  0  0  0  0
   12.0514   15.7916   21.2336 C   0  0  0  0  0  0  0  0  0  0  0  0
   11.9968   15.0375   19.9086 C   0  0  0  0  0  0  0  0  0  0  0  0
   11.1306   15.7759   18.8979 C   0  0  0  0  0  0  0  0  0  0  0  0
    9.7681   16.1031   19.4953 C   0  0  0  0  0  0  0  0  0  0  0  0
    9.9012   16.8111   20.8450 C   0  0  0  0  0  0  0  0  0  0  0  0
    9.4214   12.8183   23.5537 C   0  0  0  0  0  0  0  0  0  0  0  0
    9.6417   11.5880   23.0121 F   0  0  0  0  0  0  0  0  0  0  0  0
    9.2570   12.6178   24.8928 F   0  0  0  0  0  0  0  0  0  0  0  0
    7.8840   13.4028   22.9514 Cl  0  0  0  0  0  0  0  0  0  0  0  0
  1  2  2  0  0  0
  2  3  1  0  0  0
  3  5  1  0  0  0
  5  6  1  0  0  0
  6  7  1  0  0  0
  7  8  1  0  0  0
  8  9  1  0  0  0
  9 10  1  0  0  0
  2 11  1  0  0  0
 11 12  1  0  0  0
 11 13  1  0  0  0
 11 14  1  0  0  0
 10  5  1  0  0  0
  3  4  1  0  0  0
M  END
> <minimizedAffinity>
-5.13366

> <minimizedRMSD>
1.80052

$$$$
C41823-P124


 17 19  0  0  0  0  0  0  0  0999 V2000
   10.5389    8.2042   22.9785 Br  0  0  0  0  0  0  0  0  0  0  0  0
   10.3012    9.9772   23.4762 C   0  0  0  0  0  0  0  0  0  0  0  0
   11.1867   10.9245   22.9799 C   0  0  0  0  0  0  0  0  0  0  0  0
   11.0802   12.2347   23.4023 C   0  0  0  0  0  0  0  0  0  0  0  0
   10.0033   12.5824   24.1893 C   0  0  0  0  0  0  0  0  0  0  0  0
    9.1339   11.6275   24.7160 C   0  0  0  0  0  0  0  0  0  0  0  0
    9.2918   10.3069   24.3721 C   0  0  0  0  0  0  0  0  0  0  0  0
    8.2400   12.1785   25.6379 N   0  0  0  0  0  0  0  0  0  0  0  0
    8.2739   13.6097   25.3389 C   0  0  0  0  0  0  0  0  0  0  0  0
    9.6009   13.9366   24.6492 C   0  0  0  0  0  0  0  0  0  0  0  0
    6.9406   11.5607   25.8457 C   0  0  0  0  0  0  0  0  0  0  0  0
    5.8809   12.4314   26.4595 C   0  0  0  0  0  0  0  0  0  0  0  0
    5.5939   12.5805   27.7391 N   0  0  0  0  0  0  0  0  0  0  0  0
    4.5702   13.4911   27.7875 C   0  0  0  0  0  0  0  0  0  0  0  0
    4.2227   13.9007   26.5238 C   0  0  0  0  0  0  0  0  0  0  0  0
    5.0536   13.2134   25.6843 N   0  0  0  0  0  0  0  0  0  0  0  0
    5.0597   13.2676   24.7013 H   0  0  0  0  0  0  0  0  0  0  0  0
  1  2  1  0  0  0
  2  3  2  0  0  0
  3  4  1  0  0  0
  4  5  2  0  0  0
  5  6  1  0  0  0
  6  7  2  0  0  0
  6  8  1  0  0  0
  8 11  1  0  0  0
 11 12  1  0  0  0
 12 13  2  0  0  0
 13 14  1  0  0  0
 14 15  2  0  0  0
 15 16  1  0  0  0
  8  9  1  0  0  0
  9 10  1  0  0  0
  7  2  1  0  0  0
 16 12  1  0  0  0
 10  5  1  0  0  0
 16 17  1  0  0  0
M  END
> <minimizedAffinity>
-5.15254

> <minimizedRMSD>
0.52260

$$$$
C41834-P137


 19 21  0  0  0  0  0  0  0  0999 V2000
    8.4415   13.4697   26.4787 N   0  0  0  0  0  0  0  0  0  0  0  0
    9.4955   14.5438   26.4102 C   0  0  0  0  0  0  0  0  0  0  0  0
   10.4140   14.1878   25.2307 C   0  0  0  0  0  0  0  0  0  0  0  0
    9.9766   12.8100   24.8789 C   0  0  0  0  0  0  0  0  0  0  0  0
   10.5369   11.9635   23.9475 C   0  0  0  0  0  0  0  0  0  0  0  0
    9.9205   10.7288   23.7406 C   0  0  0  0  0  0  0  0  0  0  0  0
    8.8096   10.3448   24.4812 C   0  0  0  0  0  0  0  0  0  0  0  0
    8.2855    9.1306   24.2818 F   0  0  0  0  0  0  0  0  0  0  0  0
    8.2349   11.2073   25.3976 C   0  0  0  0  0  0  0  0  0  0  0  0
    8.8195   12.4504   25.5586 C   0  0  0  0  0  0  0  0  0  0  0  0
    6.7653   15.2473   27.1738 O   0  0  0  0  0  0  0  0  0  0  0  0
    6.8356   14.0192   26.4047 S   0  0  0  0  0  0  0  0  0  0  0  0
    5.9139   12.9466   26.7187 O   0  0  0  0  0  0  0  0  0  0  0  0
    6.5054   14.5839   24.7504 C   0  0  0  0  0  0  0  0  0  0  0  0
    7.3741   15.1128   23.8966 N   0  0  0  0  0  0  0  0  0  0  0  0
    6.6292   15.5078   22.8125 C   0  0  0  0  0  0  0  0  0  0  0  0
    5.2983   15.2265   23.0095 C   0  0  0  0  0  0  0  0  0  0  0  0
    5.2341   14.6411   24.2414 N   0  0  0  0  0  0  0  0  0  0  0  0
    4.4177   14.3168   24.6860 H   0  0  0  0  0  0  0  0  0  0  0  0
 11 12  2  0  0  0
 12 13  2  0  0  0
 12 14  1  0  0  0
 14 15  2  0  0  0
 15 16  1  0  0  0
 16 17  2  0  0  0
 17 18  1  0  0  0
 12  1  1  0  0  0
  1  2  1  0  0  0
  2  3  1  0  0  0
  3  4  1  0  0  0
  4  5  2  0  0  0
  5  6  1  0  0  0
  6  7  2  0  0  0
  7  8  1  0  0  0
  7  9  1  0  0  0
  9 10  2  0  0  0
 18 14  1  0  0  0
 10  1  1  0  0  0
 10  4  1  0  0  0
 18 19  1  0  0  0
M  END
> <minimizedAffinity>
-5.66278

> <minimizedRMSD>
1.19399

$$$$
C8138-P440


 17 17  0  0  0  0  0  0  0  0999 V2000
    7.9312   13.4640   23.8149 C   0  0  0  0  0  0  0  0  0  0  0  0
    8.6805   14.0299   24.8770 O   0  0  0  0  0  0  0  0  0  0  0  0
    9.6260   13.8775   24.7228 H   0  0  0  0  0  0  0  0  0  0  0  0
    8.0914   11.9457   23.6992 C   0  0  0  0  0  0  0  0  0  0  0  0
    7.5655   11.1919   24.9226 C   0  0  0  0  0  0  0  0  0  0  0  0
    8.2294    9.8285   25.0486 C   0  0  0  0  0  0  0  0  0  0  0  0
    8.4835    9.2193   23.7644 N   0  0  0  0  0  0  0  0  0  0  0  0
    9.4297    9.9572   22.9652 C   0  0  0  0  0  0  0  0  0  0  0  0
    9.4964   11.4299   23.3465 C   0  0  0  0  0  0  0  0  0  0  0  0
    7.6029    9.1606   23.2530 H   0  0  0  0  0  0  0  0  0  0  0  0
    8.1780   14.0913   22.4388 C   0  0  0  0  0  0  0  0  0  0  0  0
    7.4850   13.7593   21.4712 O   0  0  0  0  0  0  0  0  0  0  0  0
    9.2593   15.1493   22.2974 C   0  0  0  0  0  0  0  0  0  0  0  0
   10.5256   14.6695   21.5644 C   0  0  0  0  0  0  0  0  0  0  0  0
   11.7847   15.2286   22.2143 C   0  0  0  0  0  0  0  0  0  0  0  0
    9.9387   16.2308   19.5778 C   0  0  0  0  0  0  0  0  0  0  0  0
   10.5284   14.9115   20.0447 C   0  0  0  0  0  0  0  0  0  0  0  0
 16 17  1  0  0  0
 17 14  1  0  0  0
 14 15  1  0  0  0
 14 13  1  0  0  0
 13 11  1  0  0  0
 11 12  2  0  0  0
 11  1  1  0  0  0
  1  2  1  0  0  0
  1  4  1  0  0  0
  4  5  1  0  0  0
  5  6  1  0  0  0
  6  7  1  0  0  0
  7  8  1  0  0  0
  8  9  1  0  0  0
  9  4  1  0  0  0
  2  3  1  0  0  0
  7 10  1  0  0  0
M  END
> <minimizedAffinity>
-5.17640

> <minimizedRMSD>
1.50698

$$$$
C8155-P440


 17 17  0  0  0  0  0  0  0  0999 V2000
    8.6405   13.7396   22.7817 S   0  0  0  0  0  0  0  0  0  0  0  0
    7.4047   13.7614   22.0314 O   0  0  0  0  0  0  0  0  0  0  0  0
    9.6253   12.7041   22.6349 O   0  0  0  0  0  0  0  0  0  0  0  0
    9.3920   15.2371   22.6759 N   0  0  0  0  0  0  0  0  0  0  0  0
   10.6614   15.3864   23.4204 C   0  0  0  0  0  0  0  0  0  0  0  0
   11.8600   14.9015   22.6107 C   0  0  0  0  0  0  0  0  0  0  0  0
   11.9019   15.5209   21.2188 C   0  0  0  0  0  0  0  0  0  0  0  0
   10.5777   15.3215   20.4958 C   0  0  0  0  0  0  0  0  0  0  0  0
    9.4301   15.8581   21.3328 C   0  0  0  0  0  0  0  0  0  0  0  0
    8.1675   13.8536   24.3886 N   0  0  0  0  0  0  0  0  0  0  0  0
    8.9883   13.7338   24.9822 H   0  0  0  0  0  0  0  0  0  0  0  0
    7.1696   12.8324   24.7473 C   0  0  0  0  0  0  0  0  0  0  0  0
    8.5540   11.2243   26.1215 C   0  0  0  0  0  0  0  0  0  0  0  0
    7.6555   12.2075   25.9987 C   0  0  0  0  0  0  0  0  0  0  0  0
    9.2689    8.8497   23.2933 C   0  0  0  0  0  0  0  0  0  0  0  0
    8.5670    9.5752   24.3617 C   0  0  0  0  0  0  0  0  0  0  0  0
    9.1993   10.4897   25.0912 C   0  0  0  0  0  0  0  0  0  0  0  0
 15 16  1  0  0  0
 16 17  2  0  0  0
 17 13  1  0  0  0
 13 14  2  0  0  0
 14 12  1  0  0  0
 12 10  1  0  0  0
 10  1  1  0  0  0
  1  2  2  0  0  0
  1  3  2  0  0  0
  1  4  1  0  0  0
  4  5  1  0  0  0
  5  6  1  0  0  0
  6  7  1  0  0  0
  7  8  1  0  0  0
  8  9  1  0  0  0
  9  4  1  0  0  0
 10 11  1  0  0  0
M  END
> <minimizedAffinity>
-5.33796

> <minimizedRMSD>
0.72530

$$$$
C8172-P440


 16 16  0  0  0  0  0  0  0  0999 V2000
    8.6429   12.9621   23.1697 S   0  0  0  0  0  0  0  0  0  0  0  0
    7.3636   12.7964   22.5225 O   0  0  0  0  0  0  0  0  0  0  0  0
    9.8412   12.3072   22.7191 O   0  0  0  0  0  0  0  0  0  0  0  0
    8.9423   14.6031   23.3723 N   0  0  0  0  0  0  0  0  0  0  0  0
   10.2386   14.9938   23.9711 C   0  0  0  0  0  0  0  0  0  0  0  0
   11.3767   14.9954   22.9584 C   0  0  0  0  0  0  0  0  0  0  0  0
   11.0413   15.8086   21.7174 C   0  0  0  0  0  0  0  0  0  0  0  0
    9.7038   15.3812   21.1293 C   0  0  0  0  0  0  0  0  0  0  0  0
    8.6081   15.4453   22.1854 C   0  0  0  0  0  0  0  0  0  0  0  0
    8.4622   12.4920   24.7615 N   0  0  0  0  0  0  0  0  0  0  0  0
    9.1476   13.0034   25.3175 H   0  0  0  0  0  0  0  0  0  0  0  0
    8.6431   11.0403   25.0387 C   0  0  0  0  0  0  0  0  0  0  0  0
    8.4320   10.1258   23.8533 C   0  0  0  0  0  0  0  0  0  0  0  0
    7.6337   10.6735   26.1276 C   0  0  0  0  0  0  0  0  0  0  0  0
   11.2078   10.6977   25.6003 C   0  0  0  0  0  0  0  0  0  0  0  0
   10.0209   10.7983   25.4707 C   0  0  0  0  0  0  0  0  0  0  0  0
 15 16  3  0  0  0
 16 12  1  0  0  0
 12 13  1  0  0  0
 12 14  1  0  0  0
 12 10  1  0  0  0
 10  1  1  0  0  0
  1  2  2  0  0  0
  1  3  2  0  0  0
  1  4  1  0  0  0
  4  5  1  0  0  0
  5  6  1  0  0  0
  6  7  1  0  0  0
  7  8  1  0  0  0
  8  9  1  0  0  0
  9  4  1  0  0  0
 10 11  1  0  0  0
M  END
> <minimizedAffinity>
-5.18344

> <minimizedRMSD>
0.48041

$$$$
C2375-P494


 13 13  0  0  0  0  0  0  0  0999 V2000
   10.2044   14.6223   23.0523 C   0  0  0  0  0  0  0  0  0  0  0  0
   11.6036   15.2206   22.7975 C   0  0  0  0  0  0  0  0  0  0  0  0
   11.5928   16.2363   21.6563 C   0  0  0  0  0  0  0  0  0  0  0  0
   10.9113   15.6693   20.4188 C   0  0  0  0  0  0  0  0  0  0  0  0
    9.5505   15.0922   20.7808 C   0  0  0  0  0  0  0  0  0  0  0  0
    9.6886   14.0391   21.7927 N   0  0  0  0  0  0  0  0  0  0  0  0
   10.3390   13.3290   21.4565 H   0  0  0  0  0  0  0  0  0  0  0  0
   10.2249   13.6195   24.2708 C   0  0  0  0  0  0  0  0  0  0  0  0
   10.3268   14.4365   25.5700 C   0  0  0  0  0  0  0  0  0  0  0  0
   11.3798   12.8761   24.1955 F   0  0  0  0  0  0  0  0  0  0  0  0
    7.7874   13.0383   24.6875 C   0  0  0  0  0  0  0  0  0  0  0  0
    9.0268   12.6583   24.3288 C   0  0  0  0  0  0  0  0  0  0  0  0
    9.2722   11.2422   23.8920 C   0  0  0  0  0  0  0  0  0  0  0  0
 11 12  2  0  0  0
 12 13  1  0  0  0
 12  8  1  0  0  0
  8  9  1  0  0  0
  8 10  1  0  0  0
  8  1  1  0  0  0
  1  2  1  0  0  0
  2  3  1  0  0  0
  3  4  1  0  0  0
  4  5  1  0  0  0
  5  6  1  0  0  0
  6  1  1  0  0  0
  6  7  1  0  0  0
M  END
> <minimizedAffinity>
-5.20962

> <minimizedRMSD>
0.77809

$$$$
C1791-P217


 16 18  0  0  0  0  0  0  0  0999 V2000
    7.5355   10.9597   25.4114 C   0  0  0  0  0  0  0  0  0  0  0  0
    8.4610   10.2171   24.4173 C   0  0  0  0  0  0  0  0  0  0  0  0
    9.5513   11.0438   23.7358 C   0  0  0  0  0  0  0  0  0  0  0  0
    9.1661   12.4526   23.6918 C   0  0  0  0  0  0  0  0  0  0  0  0
    9.9316   13.3781   23.0765 O   0  0  0  0  0  0  0  0  0  0  0  0
    9.2388   14.5431   23.2741 C   0  0  0  0  0  0  0  0  0  0  0  0
    8.1056   14.3998   23.9403 N   0  0  0  0  0  0  0  0  0  0  0  0
    8.0892   13.0749   24.2509 C   0  0  0  0  0  0  0  0  0  0  0  0
    7.0854   12.3895   25.0702 C   0  0  0  0  0  0  0  0  0  0  0  0
    9.8830   15.8132   22.8332 C   0  0  0  0  0  0  0  0  0  0  0  0
   11.4109   15.6881   22.8262 C   0  0  0  0  0  0  0  0  0  0  0  0
   11.9581   15.0831   21.5402 C   0  0  0  0  0  0  0  0  0  0  0  0
   11.4530   15.7842   20.3691 N   0  0  0  0  0  0  0  0  0  0  0  0
    9.9988   15.6967   20.2914 C   0  0  0  0  0  0  0  0  0  0  0  0
    9.3322   16.3361   21.5041 C   0  0  0  0  0  0  0  0  0  0  0  0
   11.8571   15.3667   19.5308 H   0  0  0  0  0  0  0  0  0  0  0  0
  1  2  1  0  0  0
  2  3  1  0  0  0
  3  4  1  0  0  0
  4  5  1  0  0  0
  5  6  1  0  0  0
  6 10  1  0  0  0
 10 11  1  0  0  0
 11 12  1  0  0  0
 12 13  1  0  0  0
 13 14  1  0  0  0
 14 15  1  0  0  0
  6  7  2  0  0  0
  7  8  1  0  0  0
  8  9  1  0  0  0
  9  1  1  0  0  0
  8  4  2  0  0  0
 15 10  1  0  0  0
 13 16  1  0  0  0
M  END
> <minimizedAffinity>
-5.69147

> <minimizedRMSD>
0.72200

$$$$
C8131-P618


 15 15  0  0  0  0  0  0  0  0999 V2000
    9.4479   13.9431   24.1106 C   0  0  0  0  0  0  0  0  0  0  0  0
    8.6880   14.7404   25.0158 O   0  0  0  0  0  0  0  0  0  0  0  0
    7.7511   14.7086   24.7665 H   0  0  0  0  0  0  0  0  0  0  0  0
    9.0235   12.4746   24.1325 C   0  0  0  0  0  0  0  0  0  0  0  0
    8.0911   12.1463   25.2771 C   0  0  0  0  0  0  0  0  0  0  0  0
    7.8857   10.6626   25.4599 C   0  0  0  0  0  0  0  0  0  0  0  0
    8.4238    9.7503   24.4850 N   0  0  0  0  0  0  0  0  0  0  0  0
    9.7432   10.0523   23.9730 C   0  0  0  0  0  0  0  0  0  0  0  0
   10.2016   11.5134   24.0570 C   0  0  0  0  0  0  0  0  0  0  0  0
    7.7817    9.7301   23.6928 H   0  0  0  0  0  0  0  0  0  0  0  0
    9.1812   14.5022   22.7139 C   0  0  0  0  0  0  0  0  0  0  0  0
    8.5348   13.8446   21.8874 O   0  0  0  0  0  0  0  0  0  0  0  0
    9.6138   15.9178   22.4383 C   0  0  0  0  0  0  0  0  0  0  0  0
   12.1830   16.0671   21.7412 C   0  0  0  0  0  0  0  0  0  0  0  0
   11.0304   16.0004   22.0675 C   0  0  0  0  0  0  0  0  0  0  0  0
 14 15  3  0  0  0
 15 13  1  0  0  0
 13 11  1  0  0  0
 11 12  2  0  0  0
 11  1  1  0  0  0
  1  2  1  0  0  0
  1  4  1  0  0  0
  4  5  1  0  0  0
  5  6  1  0  0  0
  6  7  1  0  0  0
  7  8  1  0  0  0
  8  9  1  0  0  0
  9  4  1  0  0  0
  2  3  1  0  0  0
  7 10  1  0  0  0
M  END
> <minimizedAffinity>
-5.01636

> <minimizedRMSD>
0.95136

$$$$
C8160-P618


 15 15  0  0  0  0  0  0  0  0999 V2000
    8.1432   14.4144   23.0159 S   0  0  0  0  0  0  0  0  0  0  0  0
    7.3946   13.7164   21.9950 O   0  0  0  0  0  0  0  0  0  0  0  0
    7.5991   15.5364   23.7359 O   0  0  0  0  0  0  0  0  0  0  0  0
    9.6662   14.7852   22.4246 N   0  0  0  0  0  0  0  0  0  0  0  0
   10.5272   15.6069   23.3040 C   0  0  0  0  0  0  0  0  0  0  0  0
   11.9560   15.5247   22.7787 C   0  0  0  0  0  0  0  0  0  0  0  0
   12.0330   16.0758   21.3591 C   0  0  0  0  0  0  0  0  0  0  0  0
   11.0505   15.3427   20.4524 C   0  0  0  0  0  0  0  0  0  0  0  0
    9.6415   15.3427   21.0386 C   0  0  0  0  0  0  0  0  0  0  0  0
    8.5277   13.2660   24.1828 N   0  0  0  0  0  0  0  0  0  0  0  0
    9.0626   13.7253   24.9199 H   0  0  0  0  0  0  0  0  0  0  0  0
    9.3172   12.1360   23.6767 C   0  0  0  0  0  0  0  0  0  0  0  0
    9.7218    9.7077   23.8572 C   0  0  0  0  0  0  0  0  0  0  0  0
    9.2648   10.9422   24.6182 C   0  0  0  0  0  0  0  0  0  0  0  0
    7.9523   10.6993   25.3453 C   0  0  0  0  0  0  0  0  0  0  0  0
 13 14  1  0  0  0
 14 15  1  0  0  0
 14 12  1  0  0  0
 12 10  1  0  0  0
 10  1  1  0  0  0
  1  2  2  0  0  0
  1  3  2  0  0  0
  1  4  1  0  0  0
  4  5  1  0  0  0
  5  6  1  0  0  0
  6  7  1  0  0  0
  7  8  1  0  0  0
  8  9  1  0  0  0
  9  4  1  0  0  0
 10 11  1  0  0  0
M  END
> <minimizedAffinity>
-5.17636

> <minimizedRMSD>
0.58345

$$$$
C8169-P618


 15 15  0  0  0  0  0  0  0  0999 V2000
    7.6364   13.4602   22.4084 O   0  0  0  0  0  0  0  0  0  0  0  0
    8.2174   14.5765   23.1200 S   0  0  0  0  0  0  0  0  0  0  0  0
    7.4975   15.8027   23.3474 O   0  0  0  0  0  0  0  0  0  0  0  0
    9.7350   14.9039   22.4900 N   0  0  0  0  0  0  0  0  0  0  0  0
   10.6316   15.7304   23.3274 C   0  0  0  0  0  0  0  0  0  0  0  0
   12.0490   15.5846   22.7851 C   0  0  0  0  0  0  0  0  0  0  0  0
   12.1224   16.0860   21.3469 C   0  0  0  0  0  0  0  0  0  0  0  0
   11.0988   15.3615   20.4787 C   0  0  0  0  0  0  0  0  0  0  0  0
    9.7004   15.4200   21.0889 C   0  0  0  0  0  0  0  0  0  0  0  0
    8.6319   13.9967   24.6407 N   0  0  0  0  0  0  0  0  0  0  0  0
    7.7991   14.0271   25.2288 H   0  0  0  0  0  0  0  0  0  0  0  0
    9.1552   12.6201   24.6604 C   0  0  0  0  0  0  0  0  0  0  0  0
    8.1469   11.7278   25.3498 C   0  0  0  0  0  0  0  0  0  0  0  0
    8.3195   10.2678   25.0147 C   0  0  0  0  0  0  0  0  0  0  0  0
    9.6578    9.8707   23.9618 Cl  0  0  0  0  0  0  0  0  0  0  0  0
  1  2  2  0  0  0
  2  3  2  0  0  0
  2 10  1  0  0  0
 10 12  1  0  0  0
 12 13  1  0  0  0
 13 14  1  0  0  0
 14 15  1  0  0  0
  2  4  1  0  0  0
  4  5  1  0  0  0
  5  6  1  0  0  0
  6  7  1  0  0  0
  7  8  1  0  0  0
  8  9  1  0  0  0
  9  4  1  0  0  0
 10 11  1  0  0  0
M  END
> <minimizedAffinity>
-4.94844

> <minimizedRMSD>
0.73503

$$$$
C8178-P618


 22 22  0  0  0  0  0  0  0  0999 V2000
    8.2314   14.8464   23.3506 C   0  0  0  0  0  0  0  0  0  0  0  0
    9.5575   15.0297   22.6218 N   0  0  0  0  0  0  0  0  0  0  0  0
   10.6880   15.3273   23.5214 C   0  0  0  0  0  0  0  0  0  0  0  0
   12.0245   15.3524   22.7789 C   0  0  0  0  0  0  0  0  0  0  0  0
   12.0110   16.3152   21.6037 C   0  0  0  0  0  0  0  0  0  0  0  0
   10.7956   16.0517   20.7286 C   0  0  0  0  0  0  0  0  0  0  0  0
    9.5095   16.0606   21.5600 C   0  0  0  0  0  0  0  0  0  0  0  0
    5.8282   14.4696   22.1613 C   0  0  0  0  0  0  0  0  0  0  0  0
    5.0290   14.7083   22.9632 O   0  0  0  0  0  0  0  0  0  0  0  0
    7.3415   14.4620   22.2526 N   0  0  0  0  0  0  0  0  0  0  0  0
    7.8013   14.1471   21.4410 H   0  0  0  0  0  0  0  0  0  0  0  0
    5.5652   14.0274   20.9034 O   0  0  0  0  0  0  0  0  0  0  0  0
    3.9718   13.6538   19.1365 C   0  0  0  0  0  0  0  0  0  0  0  0
    4.2002   13.6729   20.6321 C   0  0  0  0  0  0  0  0  0  0  0  0
    8.2663   13.7134   24.4379 C   0  0  0  0  0  0  0  0  0  0  0  0
    8.8932   12.5978   23.9711 F   0  0  0  0  0  0  0  0  0  0  0  0
    7.0440   13.3174   24.8463 F   0  0  0  0  0  0  0  0  0  0  0  0
    8.9374   14.0762   25.5597 F   0  0  0  0  0  0  0  0  0  0  0  0
    7.6869   16.0377   24.1908 C   0  0  0  0  0  0  0  0  0  0  0  0
    7.1921   17.0297   23.4160 F   0  0  0  0  0  0  0  0  0  0  0  0
    8.6866   16.5855   24.9280 F   0  0  0  0  0  0  0  0  0  0  0  0
    6.7266   15.7037   25.0762 F   0  0  0  0  0  0  0  0  0  0  0  0
 13 14  1  0  0  0
 14 12  1  0  0  0
 12  8  1  0  0  0
  8  9  2  0  0  0
  8 10  1  0  0  0
 10  1  1  0  0  0
  1  2  1  0  0  0
  2  3  1  0  0  0
  3  4  1  0  0  0
  4  5  1  0  0  0
  5  6  1  0  0  0
  6  7  1  0  0  0
  1 15  1  0  0  0
 15 16  1  0  0  0
 15 17  1  0  0  0
 15 18  1  0  0  0
  1 19  1  0  0  0
 19 20  1  0  0  0
 19 21  1  0  0  0
 19 22  1  0  0  0
  7  2  1  0  0  0
 10 11  1  0  0  0
M  END
> <minimizedAffinity>
-5.58813

> <minimizedRMSD>
0.82784

$$$$
C723-P344


 14 16  0  0  0  0  0  0  0  0999 V2000
    9.6729   14.7358   23.1293 N   0  0  0  0  0  0  0  0  0  0  0  0
   10.7081   15.4054   23.9006 C   0  0  0  0  0  0  0  0  0  0  0  0
   12.0192   15.3462   23.1384 C   0  0  0  0  0  0  0  0  0  0  0  0
   11.8642   16.1266   21.8455 C   0  0  0  0  0  0  0  0  0  0  0  0
   10.7666   15.5429   20.9873 C   0  0  0  0  0  0  0  0  0  0  0  0
   10.4934   16.2512   19.6698 C   0  0  0  0  0  0  0  0  0  0  0  0
   11.1888   14.9451   19.6467 C   0  0  0  0  0  0  0  0  0  0  0  0
    9.4994   15.1003   21.7149 C   0  0  0  0  0  0  0  0  0  0  0  0
    7.9138   12.1310   25.0241 C   0  0  0  0  0  0  0  0  0  0  0  0
    8.3097   13.3867   24.5872 C   0  0  0  0  0  0  0  0  0  0  0  0
    9.2784   13.4905   23.5918 C   0  0  0  0  0  0  0  0  0  0  0  0
    9.8269   12.3078   23.1193 C   0  0  0  0  0  0  0  0  0  0  0  0
    9.3784   11.0906   23.6143 C   0  0  0  0  0  0  0  0  0  0  0  0
    8.4324   10.9762   24.5664 N   0  0  0  0  0  0  0  0  0  0  0  0
  9 10  2  0  0  0
 10 11  1  0  0  0
 11  1  1  0  0  0
  1  2  1  0  0  0
  2  3  1  0  0  0
  3  4  1  0  0  0
  4  5  1  0  0  0
  5  6  1  0  0  0
  6  7  1  0  0  0
  5  8  1  0  0  0
 11 12  2  0  0  0
 12 13  1  0  0  0
 13 14  2  0  0  0
 14  9  1  0  0  0
  8  1  1  0  0  0
  7  5  1  0  0  0
M  END
> <minimizedAffinity>
-6.05977

> <minimizedRMSD>
0.32796

$$$$
C24186-P168


 11 12  0  0  0  0  0  0  0  0999 V2000
    8.1783   11.3578   25.7665 C   0  0  0  0  0  0  0  0  0  0  0  0
    8.3351   12.7997   25.2542 C   0  0  0  0  0  0  0  0  0  0  0  0
    9.6284   13.0302   24.4865 C   0  0  0  0  0  0  0  0  0  0  0  0
    9.7848   12.0379   23.3541 C   0  0  0  0  0  0  0  0  0  0  0  0
    9.6358   10.5994   23.8056 C   0  0  0  0  0  0  0  0  0  0  0  0
    8.4329   10.3041   24.6822 C   0  0  0  0  0  0  0  0  0  0  0  0
    5.1082    9.8898   27.1349 C   0  0  0  0  0  0  0  0  0  0  0  0
    4.7039   11.1283   27.5761 C   0  0  0  0  0  0  0  0  0  0  0  0
    5.8941   12.2898   27.1874 S   0  0  0  0  0  0  0  0  0  0  0  0
    6.8518   11.0670   26.4422 C   0  0  0  0  0  0  0  0  0  0  0  0
    6.3297    9.8548   26.4943 N   0  0  0  0  0  0  0  0  0  0  0  0
  7  8  2  0  0  0
  8  9  1  0  0  0
  9 10  1  0  0  0
 10  1  1  0  0  0
  1  2  1  0  0  0
  2  3  1  0  0  0
  3  4  1  0  0  0
  4  5  1  0  0  0
  5  6  1  0  0  0
 10 11  2  0  0  0
 11  7  1  0  0  0
  6  1  1  0  0  0
M  END
> <minimizedAffinity>
-3.88213

> <minimizedRMSD>
2.38890

$$$$
C2382-P185


 15 15  0  0  0  0  0  0  0  0999 V2000
    7.9012   14.9957   23.0884 C   0  0  0  0  0  0  0  0  0  0  0  0
    7.1506   14.0679   22.1416 C   0  0  0  0  0  0  0  0  0  0  0  0
    7.0966   16.3101   23.1039 C   0  0  0  0  0  0  0  0  0  0  0  0
    9.2797   14.9874   22.5089 N   0  0  0  0  0  0  0  0  0  0  0  0
   10.4319   15.0263   23.4051 C   0  0  0  0  0  0  0  0  0  0  0  0
   11.7511   14.7400   22.6844 C   0  0  0  0  0  0  0  0  0  0  0  0
   11.9477   15.6381   21.4771 C   0  0  0  0  0  0  0  0  0  0  0  0
   10.7405   15.5286   20.5648 C   0  0  0  0  0  0  0  0  0  0  0  0
    9.4588   15.8468   21.3284 C   0  0  0  0  0  0  0  0  0  0  0  0
    7.8674   14.5356   24.5805 C   0  0  0  0  0  0  0  0  0  0  0  0
    8.4551   15.1632   25.4773 O   0  0  0  0  0  0  0  0  0  0  0  0
    6.9647   13.3975   25.0177 C   0  0  0  0  0  0  0  0  0  0  0  0
    7.0073   11.0424   25.8522 C   0  0  0  0  0  0  0  0  0  0  0  0
    7.4940   11.9907   24.7633 C   0  0  0  0  0  0  0  0  0  0  0  0
    8.9868   11.9012   24.5307 C   0  0  0  0  0  0  0  0  0  0  0  0
 13 14  1  0  0  0
 14 15  1  0  0  0
 14 12  1  0  0  0
 12 10  1  0  0  0
 10 11  2  0  0  0
 10  1  1  0  0  0
  1  2  1  0  0  0
  1  3  1  0  0  0
  1  4  1  0  0  0
  4  5  1  0  0  0
  5  6  1  0  0  0
  6  7  1  0  0  0
  7  8  1  0  0  0
  8  9  1  0  0  0
  9  4  1  0  0  0
M  END
> <minimizedAffinity>
-5.11565

> <minimizedRMSD>
0.46493

$$$$
C7182-P317


 23 24  0  0  0  0  0  0  0  0999 V2000
    9.8551    9.4987   23.5555 C   0  0  0  0  0  0  0  0  0  0  0  0
    8.9296   10.3720   24.3132 C   0  0  0  0  0  0  0  0  0  0  0  0
    7.9246   10.0128   25.1796 C   0  0  0  0  0  0  0  0  0  0  0  0
    7.3778   11.2077   25.6649 C   0  0  0  0  0  0  0  0  0  0  0  0
    8.0459   12.2604   25.2019 N   0  0  0  0  0  0  0  0  0  0  0  0
    8.8796   11.7446   24.2681 N   0  0  0  0  0  0  0  0  0  0  0  0
    9.5794   12.6315   23.3430 C   0  0  0  0  0  0  0  0  0  0  0  0
   10.8222   13.2594   23.9814 C   0  0  0  0  0  0  0  0  0  0  0  0
   11.5804   14.1222   22.9757 C   0  0  0  0  0  0  0  0  0  0  0  0
   10.6779   15.1706   22.3327 C   0  0  0  0  0  0  0  0  0  0  0  0
    9.4214   14.5574   21.7197 C   0  0  0  0  0  0  0  0  0  0  0  0
    8.6606   13.7003   22.7297 C   0  0  0  0  0  0  0  0  0  0  0  0
    6.2798   11.2507   26.4671 N   0  0  0  0  0  0  0  0  0  0  0  0
    5.9839   12.1117   27.7273 C   0  0  0  0  0  0  0  0  0  0  0  0
    6.6667   12.8566   28.3114 O   0  0  0  0  0  0  0  0  0  0  0  0
    5.5550   10.6372   26.2074 H   0  0  0  0  0  0  0  0  0  0  0  0
    4.5017   11.8801   28.0409 C   0  0  0  0  0  0  0  0  0  0  0  0
    4.1514   11.1316   29.3340 C   0  0  0  0  0  0  0  0  0  0  0  0
    3.0265   11.7802   30.1400 C   0  0  0  0  0  0  0  0  0  0  0  0
    3.7327    9.7075   28.9780 C   0  0  0  0  0  0  0  0  0  0  0  0
    3.4201    8.9934   30.0796 F   0  0  0  0  0  0  0  0  0  0  0  0
    4.7212    9.0460   28.3354 F   0  0  0  0  0  0  0  0  0  0  0  0
    2.6572    9.7003   28.1579 F   0  0  0  0  0  0  0  0  0  0  0  0
  1  2  1  0  0  0
  2  3  2  0  0  0
  3  4  1  0  0  0
  4 13  1  0  0  0
 13 14  1  0  0  0
 14 15  2  0  0  0
 14 17  1  0  0  0
 17 18  1  0  0  0
 18 19  1  0  0  0
 18 20  1  0  0  0
 20 21  1  0  0  0
 20 22  1  0  0  0
 20 23  1  0  0  0
  4  5  2  0  0  0
  5  6  1  0  0  0
  6  7  1  0  0  0
  7  8  1  0  0  0
  8  9  1  0  0  0
  9 10  1  0  0  0
 10 11  1  0  0  0
 11 12  1  0  0  0
  6  2  1  0  0  0
 12  7  1  0  0  0
 13 16  1  0  0  0
M  END
> <minimizedAffinity>
-5.10885

> <minimizedRMSD>
1.48612

$$$$
C43276-P128


 17 19  0  0  0  0  0  0  0  0999 V2000
    7.6277   12.2777   26.2710 N   0  0  0  0  0  0  0  0  0  0  0  0
    7.9447   13.7080   26.2854 C   0  0  0  0  0  0  0  0  0  0  0  0
    9.3240   13.9543   25.7056 C   0  0  0  0  0  0  0  0  0  0  0  0
    9.4365   12.7349   24.8793 C   0  0  0  0  0  0  0  0  0  0  0  0
   10.3320   12.5404   23.8630 C   0  0  0  0  0  0  0  0  0  0  0  0
   10.2910   11.3041   23.2651 C   0  0  0  0  0  0  0  0  0  0  0  0
    9.4730   10.2828   23.7355 C   0  0  0  0  0  0  0  0  0  0  0  0
    9.6896    8.5747   23.0258 Br  0  0  0  0  0  0  0  0  0  0  0  0
    8.5382   10.5079   24.7284 C   0  0  0  0  0  0  0  0  0  0  0  0
    8.4920   11.7644   25.2829 C   0  0  0  0  0  0  0  0  0  0  0  0
    3.5014    9.8380   28.8412 S   0  0  0  0  0  0  0  0  0  0  0  0
    4.5939   10.7150   27.9622 C   0  0  0  0  0  0  0  0  0  0  0  0
    4.3539   11.9721   27.4904 N   0  0  0  0  0  0  0  0  0  0  0  0
    5.3762   12.6146   26.8650 N   0  0  0  0  0  0  0  0  0  0  0  0
    6.4334   11.8436   26.7957 C   0  0  0  0  0  0  0  0  0  0  0  0
    6.1981   10.2552   27.4971 S   0  0  0  0  0  0  0  0  0  0  0  0
    3.4732   12.3985   27.5986 H   0  0  0  0  0  0  0  0  0  0  0  0
 11 12  2  0  0  0
 12 13  1  0  0  0
 13 14  1  0  0  0
 14 15  2  0  0  0
 15  1  1  0  0  0
  1  2  1  0  0  0
  2  3  1  0  0  0
  3  4  1  0  0  0
  4  5  2  0  0  0
  5  6  1  0  0  0
  6  7  2  0  0  0
  7  8  1  0  0  0
  7  9  1  0  0  0
  9 10  2  0  0  0
 15 16  1  0  0  0
 16 12  1  0  0  0
 10  1  1  0  0  0
 10  4  1  0  0  0
 13 17  1  0  0  0
M  END
> <minimizedAffinity>
-4.80530

> <minimizedRMSD>
0.60129

$$$$
C43279-P124


 17 19  0  0  0  0  0  0  0  0999 V2000
   10.6453    8.2836   23.0376 Br  0  0  0  0  0  0  0  0  0  0  0  0
   10.2807   10.0446   23.5023 C   0  0  0  0  0  0  0  0  0  0  0  0
   11.0906   11.0426   22.9773 C   0  0  0  0  0  0  0  0  0  0  0  0
   10.8858   12.3499   23.3687 C   0  0  0  0  0  0  0  0  0  0  0  0
    9.7890   12.6350   24.1531 C   0  0  0  0  0  0  0  0  0  0  0  0
    9.0011   11.6321   24.7172 C   0  0  0  0  0  0  0  0  0  0  0  0
    9.2568   10.3196   24.4021 C   0  0  0  0  0  0  0  0  0  0  0  0
    8.0976   12.1411   25.6481 N   0  0  0  0  0  0  0  0  0  0  0  0
    8.0070   13.5622   25.3121 C   0  0  0  0  0  0  0  0  0  0  0  0
    9.2913   13.9686   24.5795 C   0  0  0  0  0  0  0  0  0  0  0  0
    6.8548   11.4485   25.9626 C   0  0  0  0  0  0  0  0  0  0  0  0
    5.9656   12.0739   27.0109 C   0  0  0  0  0  0  0  0  0  0  0  0
    4.8246   12.8873   26.7919 C   0  0  0  0  0  0  0  0  0  0  0  0
    4.3638   13.2009   28.0467 C   0  0  0  0  0  0  0  0  0  0  0  0
    5.2101   12.5894   28.9223 N   0  0  0  0  0  0  0  0  0  0  0  0
    6.1891   11.8920   28.3229 N   0  0  0  0  0  0  0  0  0  0  0  0
    5.1133   12.6527   29.9000 H   0  0  0  0  0  0  0  0  0  0  0  0
  1  2  1  0  0  0
  2  3  2  0  0  0
  3  4  1  0  0  0
  4  5  2  0  0  0
  5  6  1  0  0  0
  6  7  2  0  0  0
  6  8  1  0  0  0
  8 11  1  0  0  0
 11 12  1  0  0  0
 12 13  1  0  0  0
 13 14  2  0  0  0
 14 15  1  0  0  0
 15 16  1  0  0  0
  8  9  1  0  0  0
  9 10  1  0  0  0
  7  2  1  0  0  0
 16 12  2  0  0  0
 10  5  1  0  0  0
 15 17  1  0  0  0
M  END
> <minimizedAffinity>
-5.05969

> <minimizedRMSD>
0.58462

$$$$
C43281-P124


 17 19  0  0  0  0  0  0  0  0999 V2000
   12.1773   11.9279   22.5105 F   0  0  0  0  0  0  0  0  0  0  0  0
   11.1991   11.2348   23.1016 C   0  0  0  0  0  0  0  0  0  0  0  0
   11.0252    9.8920   22.8069 C   0  0  0  0  0  0  0  0  0  0  0  0
    9.9662    9.1950   23.3912 C   0  0  0  0  0  0  0  0  0  0  0  0
    9.0858    9.8433   24.2699 C   0  0  0  0  0  0  0  0  0  0  0  0
    9.2740   11.1774   24.5773 C   0  0  0  0  0  0  0  0  0  0  0  0
   10.3402   11.8561   23.9858 C   0  0  0  0  0  0  0  0  0  0  0  0
   10.3860   13.2474   24.4987 C   0  0  0  0  0  0  0  0  0  0  0  0
    8.9891   13.3481   25.1058 C   0  0  0  0  0  0  0  0  0  0  0  0
    8.5684   11.9862   25.4851 N   0  0  0  0  0  0  0  0  0  0  0  0
    7.1263   11.8048   25.6993 C   0  0  0  0  0  0  0  0  0  0  0  0
    6.3723   12.9381   26.3703 C   0  0  0  0  0  0  0  0  0  0  0  0
    6.4741   13.3907   27.7123 C   0  0  0  0  0  0  0  0  0  0  0  0
    5.6083   14.4516   27.8059 C   0  0  0  0  0  0  0  0  0  0  0  0
    5.0457   14.5832   26.5713 N   0  0  0  0  0  0  0  0  0  0  0  0
    5.4653   13.6594   25.6907 N   0  0  0  0  0  0  0  0  0  0  0  0
    4.3950   15.2869   26.3466 H   0  0  0  0  0  0  0  0  0  0  0  0
  1  2  1  0  0  0
  2  3  2  0  0  0
  3  4  1  0  0  0
  4  5  2  0  0  0
  5  6  1  0  0  0
  6  7  2  0  0  0
  7  8  1  0  0  0
  8  9  1  0  0  0
  9 10  1  0  0  0
 10 11  1  0  0  0
 11 12  1  0  0  0
 12 13  1  0  0  0
 13 14  2  0  0  0
 14 15  1  0  0  0
 15 16  1  0  0  0
  7  2  1  0  0  0
 16 12  2  0  0  0
 10  6  1  0  0  0
 15 17  1  0  0  0
M  END
> <minimizedAffinity>
-5.68190

> <minimizedRMSD>
1.04932

$$$$
C12323-P321


 13 13  0  0  0  0  0  0  0  0999 V2000
   10.3101   12.4144   23.9560 N   0  0  0  0  0  0  0  0  0  0  0  0
   11.2465   12.2211   24.1905 H   0  0  0  0  0  0  0  0  0  0  0  0
    9.3306   11.5016   24.3942 C   0  0  0  0  0  0  0  0  0  0  0  0
    9.2403   10.1342   23.9647 C   0  0  0  0  0  0  0  0  0  0  0  0
    8.2363    9.4069   24.4490 N   0  0  0  0  0  0  0  0  0  0  0  0
    7.3729   10.3404   25.4994 S   0  0  0  0  0  0  0  0  0  0  0  0
    8.3078   11.7441   25.2860 C   0  0  0  0  0  0  0  0  0  0  0  0
   10.0077   13.8081   23.0641 S   0  0  0  0  0  0  0  0  0  0  0  0
   11.2374   14.1053   22.3661 O   0  0  0  0  0  0  0  0  0  0  0  0
    8.7870   13.5456   22.3334 O   0  0  0  0  0  0  0  0  0  0  0  0
    9.7009   15.1129   24.2502 C   0  0  0  0  0  0  0  0  0  0  0  0
   11.4151   15.1668   26.0756 C   0  0  0  0  0  0  0  0  0  0  0  0
   10.9620   15.7880   24.7648 C   0  0  0  0  0  0  0  0  0  0  0  0
 12 13  1  0  0  0
 13 11  1  0  0  0
 11  8  1  0  0  0
  8  9  2  0  0  0
  8 10  2  0  0  0
  8  1  1  0  0  0
  1  3  1  0  0  0
  3  4  1  0  0  0
  4  5  2  0  0  0
  5  6  1  0  0  0
  6  7  1  0  0  0
  7  3  2  0  0  0
  1  2  1  0  0  0
M  END
> <minimizedAffinity>
-4.22867

> <minimizedRMSD>
2.04681

$$$$
C7587-P321


 14 14  0  0  0  0  0  0  0  0999 V2000
    9.5690   12.6350   23.1110 N   0  0  0  0  0  0  0  0  0  0  0  0
   10.5036   12.9799   23.3302 H   0  0  0  0  0  0  0  0  0  0  0  0
    9.2156   11.7889   24.2512 C   0  0  0  0  0  0  0  0  0  0  0  0
    9.3212   10.3223   23.8964 C   0  0  0  0  0  0  0  0  0  0  0  0
    8.2458    9.6004   24.6787 C   0  0  0  0  0  0  0  0  0  0  0  0
    7.6356   10.5997   25.5637 N   0  0  0  0  0  0  0  0  0  0  0  0
    7.8458   11.8942   24.8918 C   0  0  0  0  0  0  0  0  0  0  0  0
    8.0899   10.5932   26.4769 H   0  0  0  0  0  0  0  0  0  0  0  0
    8.7698   13.9589   22.5110 S   0  0  0  0  0  0  0  0  0  0  0  0
    9.5160   14.3470   21.3373 O   0  0  0  0  0  0  0  0  0  0  0  0
    7.3765   13.5918   22.4169 O   0  0  0  0  0  0  0  0  0  0  0  0
    8.9713   15.2162   23.7656 C   0  0  0  0  0  0  0  0  0  0  0  0
   10.9880   15.2683   25.2490 C   0  0  0  0  0  0  0  0  0  0  0  0
   10.4097   15.6880   23.9104 C   0  0  0  0  0  0  0  0  0  0  0  0
 13 14  1  0  0  0
 14 12  1  0  0  0
 12  9  1  0  0  0
  9 10  2  0  0  0
  9 11  2  0  0  0
  9  1  1  0  0  0
  3  1  1  0  0  0
  3  4  1  0  0  0
  4  5  1  0  0  0
  5  6  1  0  0  0
  6  7  1  0  0  0
  7  3  1  0  0  0
  1  2  1  0  0  0
  6  8  1  0  0  0
M  END
> <minimizedAffinity>
-4.16539

> <minimizedRMSD>
1.79250

$$$$
C7653-P321


 14 14  0  0  0  0  0  0  0  0999 V2000
    9.3032   14.0074   23.7820 N   0  0  0  0  0  0  0  0  0  0  0  0
    9.0600   14.7331   24.4563 H   0  0  0  0  0  0  0  0  0  0  0  0
    9.1172   12.7294   24.5056 C   0  0  0  0  0  0  0  0  0  0  0  0
    7.7706   12.5580   25.2226 C   0  0  0  0  0  0  0  0  0  0  0  0
    7.4429   11.1353   25.5640 C   0  0  0  0  0  0  0  0  0  0  0  0
    8.1049   10.0965   25.0407 C   0  0  0  0  0  0  0  0  0  0  0  0
    9.2470   10.2004   24.0877 C   0  0  0  0  0  0  0  0  0  0  0  0
    9.3982   11.6026   23.5369 C   0  0  0  0  0  0  0  0  0  0  0  0
    8.5425   14.4595   22.3595 S   0  0  0  0  0  0  0  0  0  0  0  0
    9.5543   14.3172   21.3388 O   0  0  0  0  0  0  0  0  0  0  0  0
    7.2893   13.7428   22.2739 O   0  0  0  0  0  0  0  0  0  0  0  0
    8.2332   16.2045   22.6115 C   0  0  0  0  0  0  0  0  0  0  0  0
    6.3856   17.0795   24.0668 C   0  0  0  0  0  0  0  0  0  0  0  0
    7.7986   16.5306   24.0357 C   0  0  0  0  0  0  0  0  0  0  0  0
 13 14  1  0  0  0
 14 12  1  0  0  0
 12  9  1  0  0  0
  9 10  2  0  0  0
  9 11  2  0  0  0
  9  1  1  0  0  0
  3  1  1  0  0  0
  3  4  1  0  0  0
  4  5  1  0  0  0
  5  6  2  0  0  0
  6  7  1  0  0  0
  7  8  1  0  0  0
  8  3  1  0  0  0
  1  2  1  0  0  0
M  END
> <minimizedAffinity>
-4.17813

> <minimizedRMSD>
1.48214

$$$$
C8155-P390


 17 17  0  0  0  0  0  0  0  0999 V2000
    7.3152   14.2811   23.2976 S   0  0  0  0  0  0  0  0  0  0  0  0
    6.8259   15.6277   23.1833 O   0  0  0  0  0  0  0  0  0  0  0  0
    6.6905   13.1678   22.6299 O   0  0  0  0  0  0  0  0  0  0  0  0
    7.4067   13.9588   24.9436 N   0  0  0  0  0  0  0  0  0  0  0  0
    8.5751   13.2398   25.4434 C   0  0  0  0  0  0  0  0  0  0  0  0
    8.4747   11.7917   25.0605 C   0  0  0  0  0  0  0  0  0  0  0  0
    7.2551   11.1622   25.6856 C   0  0  0  0  0  0  0  0  0  0  0  0
    6.2555   12.1667   26.2619 C   0  0  0  0  0  0  0  0  0  0  0  0
    6.1275   13.5051   25.5384 C   0  0  0  0  0  0  0  0  0  0  0  0
    8.9058   14.2130   22.8742 N   0  0  0  0  0  0  0  0  0  0  0  0
    9.4034   13.7105   23.6093 H   0  0  0  0  0  0  0  0  0  0  0  0
    9.5619   15.4803   22.6847 C   0  0  0  0  0  0  0  0  0  0  0  0
   12.0152   15.2618   22.0922 C   0  0  0  0  0  0  0  0  0  0  0  0
   11.0117   15.3554   22.9652 C   0  0  0  0  0  0  0  0  0  0  0  0
   10.9269   15.1827   18.4550 C   0  0  0  0  0  0  0  0  0  0  0  0
   10.8321   15.2483   19.9263 C   0  0  0  0  0  0  0  0  0  0  0  0
   11.9243   15.0913   20.6754 C   0  0  0  0  0  0  0  0  0  0  0  0
 15 16  1  0  0  0
 16 17  2  0  0  0
 17 13  1  0  0  0
 13 14  2  0  0  0
 14 12  1  0  0  0
 12 10  1  0  0  0
 10  1  1  0  0  0
  1  2  2  0  0  0
  1  3  2  0  0  0
  1  4  1  0  0  0
  4  5  1  0  0  0
  5  6  1  0  0  0
  6  7  1  0  0  0
  7  8  1  0  0  0
  8  9  1  0  0  0
  9  4  1  0  0  0
 10 11  1  0  0  0
M  END
> <minimizedAffinity>
-4.81378

> <minimizedRMSD>
1.08603

$$$$
C8169-P390


 15 15  0  0  0  0  0  0  0  0999 V2000
    7.1493   15.5086   23.0149 O   0  0  0  0  0  0  0  0  0  0  0  0
    7.2743   14.2075   22.4035 S   0  0  0  0  0  0  0  0  0  0  0  0
    6.2656   13.6217   21.5596 O   0  0  0  0  0  0  0  0  0  0  0  0
    7.5210   13.1075   23.6265 N   0  0  0  0  0  0  0  0  0  0  0  0
    6.7392   13.4110   24.8384 C   0  0  0  0  0  0  0  0  0  0  0  0
    7.0446   12.4270   25.9498 C   0  0  0  0  0  0  0  0  0  0  0  0
    7.6425   11.1043   25.5010 C   0  0  0  0  0  0  0  0  0  0  0  0
    8.7092   11.2069   24.4601 C   0  0  0  0  0  0  0  0  0  0  0  0
    8.8589   12.5991   23.9039 C   0  0  0  0  0  0  0  0  0  0  0  0
    8.7128   14.1383   21.6067 N   0  0  0  0  0  0  0  0  0  0  0  0
    8.5230   13.7578   20.6796 H   0  0  0  0  0  0  0  0  0  0  0  0
    9.4779   15.3714   21.4158 C   0  0  0  0  0  0  0  0  0  0  0  0
   10.7307   15.3511   22.2809 C   0  0  0  0  0  0  0  0  0  0  0  0
   11.9806   15.5899   21.4612 C   0  0  0  0  0  0  0  0  0  0  0  0
   11.8488   14.9546   19.8093 Cl  0  0  0  0  0  0  0  0  0  0  0  0
  1  2  2  0  0  0
  2  3  2  0  0  0
  2 10  1  0  0  0
 10 12  1  0  0  0
 12 13  1  0  0  0
 13 14  1  0  0  0
 14 15  1  0  0  0
  2  4  1  0  0  0
  4  5  1  0  0  0
  5  6  1  0  0  0
  6  7  1  0  0  0
  7  8  1  0  0  0
  8  9  1  0  0  0
  9  4  1  0  0  0
 10 11  1  0  0  0
M  END
> <minimizedAffinity>
-4.90397

> <minimizedRMSD>
1.38817

$$$$
C8174-P390


 20 20  0  0  0  0  0  0  0  0999 V2000
    8.8639   14.0805   22.5989 N   0  0  0  0  0  0  0  0  0  0  0  0
    9.3687   13.7806   23.4330 H   0  0  0  0  0  0  0  0  0  0  0  0
    7.2693   14.2059   22.9964 S   0  0  0  0  0  0  0  0  0  0  0  0
    6.9414   15.5253   23.4707 O   0  0  0  0  0  0  0  0  0  0  0  0
    6.5504   13.5110   21.9626 O   0  0  0  0  0  0  0  0  0  0  0  0
    7.2833   13.2012   24.3181 N   0  0  0  0  0  0  0  0  0  0  0  0
    8.4178   12.2893   24.5034 C   0  0  0  0  0  0  0  0  0  0  0  0
    7.8747   11.0591   25.1700 C   0  0  0  0  0  0  0  0  0  0  0  0
    6.9316   11.4016   26.2794 C   0  0  0  0  0  0  0  0  0  0  0  0
    6.9087   12.8710   26.7011 C   0  0  0  0  0  0  0  0  0  0  0  0
    6.9595   13.8868   25.5754 C   0  0  0  0  0  0  0  0  0  0  0  0
    9.5012   15.2800   22.1076 C   0  0  0  0  0  0  0  0  0  0  0  0
   10.9193   15.3988   22.6733 C   0  0  0  0  0  0  0  0  0  0  0  0
   11.4911   14.1630   23.3815 C   0  0  0  0  0  0  0  0  0  0  0  0
   11.5888   14.1104   24.9087 C   0  0  0  0  0  0  0  0  0  0  0  0
   11.0873   15.4658   27.0306 C   0  0  0  0  0  0  0  0  0  0  0  0
   10.6115   14.9754   25.6812 C   0  0  0  0  0  0  0  0  0  0  0  0
   11.8770   15.7504   21.5419 C   0  0  0  0  0  0  0  0  0  0  0  0
   11.7603   14.8906   20.3015 C   0  0  0  0  0  0  0  0  0  0  0  0
   10.8376   15.3087   19.1457 C   0  0  0  0  0  0  0  0  0  0  0  0
 16 17  1  0  0  0
 17 15  1  0  0  0
 15 14  1  0  0  0
 13 14  1  0  0  0
 13 18  1  0  0  0
 18 19  1  0  0  0
 19 20  1  0  0  0
 13 12  1  0  0  0
 12  1  1  0  0  0
  1  3  1  0  0  0
  3  4  2  0  0  0
  3  5  2  0  0  0
  3  6  1  0  0  0
  6  7  1  0  0  0
  7  8  1  0  0  0
  8  9  1  0  0  0
  9 10  1  0  0  0
 10 11  1  0  0  0
 11  6  1  0  0  0
  1  2  1  0  0  0
M  END
> <minimizedAffinity>
-5.66884

> <minimizedRMSD>
1.80550

$$$$
C13035-P151


 19 20  0  0  0  0  0  0  0  0999 V2000
    5.1503   10.0771   28.0408 C   0  0  0  0  0  0  0  0  0  0  0  0
    5.2314   11.0574   28.6687 O   0  0  0  0  0  0  0  0  0  0  0  0
    5.9693    9.5997   26.8072 N   0  0  0  0  0  0  0  0  0  0  0  0
    5.7581    8.6888   26.4991 H   0  0  0  0  0  0  0  0  0  0  0  0
    6.9309   10.2377   26.0846 C   0  0  0  0  0  0  0  0  0  0  0  0
    7.7531    9.6460   25.0838 C   0  0  0  0  0  0  0  0  0  0  0  0
    8.5237   10.6776   24.6276 C   0  0  0  0  0  0  0  0  0  0  0  0
    8.0930   11.7701   25.2902 N   0  0  0  0  0  0  0  0  0  0  0  0
    7.1996   11.5403   26.2359 N   0  0  0  0  0  0  0  0  0  0  0  0
    8.7527   13.0075   24.9388 C   0  0  0  0  0  0  0  0  0  0  0  0
    9.9422   12.4885   24.1080 C   0  0  0  0  0  0  0  0  0  0  0  0
    9.6176   11.0176   23.7089 C   0  0  0  0  0  0  0  0  0  0  0  0
    4.0667    9.0198   28.2574 C   0  0  0  0  0  0  0  0  0  0  0  0
    1.5397    9.5492   28.5622 C   0  0  0  0  0  0  0  0  0  0  0  0
    2.9101    9.3604   29.2171 C   0  0  0  0  0  0  0  0  0  0  0  0
    2.7824    8.2490   30.2534 C   0  0  0  0  0  0  0  0  0  0  0  0
    1.8497    8.5461   31.1815 F   0  0  0  0  0  0  0  0  0  0  0  0
    3.9492    8.0408   30.9014 F   0  0  0  0  0  0  0  0  0  0  0  0
    2.4376    7.0757   29.6739 F   0  0  0  0  0  0  0  0  0  0  0  0
 15 14  1  0  0  0
 15 13  1  0  0  0
 13  1  1  0  0  0
  1  2  2  0  0  0
  1  3  1  0  0  0
  3  5  1  0  0  0
  5  6  1  0  0  0
  6  7  2  0  0  0
  7  8  1  0  0  0
  8  9  1  0  0  0
  8 10  1  0  0  0
 10 11  1  0  0  0
 11 12  1  0  0  0
 15 16  1  0  0  0
 16 17  1  0  0  0
 16 18  1  0  0  0
 16 19  1  0  0  0
  9  5  2  0  0  0
 12  7  1  0  0  0
  3  4  1  0  0  0
M  END
> <minimizedAffinity>
-4.49459

> <minimizedRMSD>
1.82377

$$$$
C7181-P151


 22 23  0  0  0  0  0  0  0  0999 V2000
    6.4316   10.8270   26.9363 C   0  0  0  0  0  0  0  0  0  0  0  0
    6.5919   11.8199   27.5298 O   0  0  0  0  0  0  0  0  0  0  0  0
    7.2115   10.2398   25.7229 N   0  0  0  0  0  0  0  0  0  0  0  0
    6.9269    9.3388   25.4466 H   0  0  0  0  0  0  0  0  0  0  0  0
    8.2241   10.7713   24.9816 C   0  0  0  0  0  0  0  0  0  0  0  0
    9.0784   10.0803   24.0993 C   0  0  0  0  0  0  0  0  0  0  0  0
    9.8562   11.0537   23.5094 C   0  0  0  0  0  0  0  0  0  0  0  0
    9.4126   12.2406   24.0171 N   0  0  0  0  0  0  0  0  0  0  0  0
    8.4919   12.0738   24.9821 N   0  0  0  0  0  0  0  0  0  0  0  0
    9.8395   13.5984   23.6816 C   0  0  0  0  0  0  0  0  0  0  0  0
    8.8133   14.3848   22.8428 C   0  0  0  0  0  0  0  0  0  0  0  0
    9.2703   14.5880   21.4023 C   0  0  0  0  0  0  0  0  0  0  0  0
   10.6083   15.3199   21.3156 C   0  0  0  0  0  0  0  0  0  0  0  0
   11.5744   14.9553   22.4412 C   0  0  0  0  0  0  0  0  0  0  0  0
   11.2479   13.6055   23.0674 C   0  0  0  0  0  0  0  0  0  0  0  0
    5.2610    9.8729   27.1905 C   0  0  0  0  0  0  0  0  0  0  0  0
    3.2202   10.8667   28.4420 C   0  0  0  0  0  0  0  0  0  0  0  0
    4.4938   10.0202   28.5203 C   0  0  0  0  0  0  0  0  0  0  0  0
    4.0994    8.6373   29.0319 C   0  0  0  0  0  0  0  0  0  0  0  0
    3.1761    8.7199   30.0131 F   0  0  0  0  0  0  0  0  0  0  0  0
    5.1617    7.9695   29.5315 F   0  0  0  0  0  0  0  0  0  0  0  0
    3.5842    7.8742   28.0400 F   0  0  0  0  0  0  0  0  0  0  0  0
 18 17  1  0  0  0
 18 16  1  0  0  0
 16  1  1  0  0  0
  1  2  2  0  0  0
  1  3  1  0  0  0
  3  5  1  0  0  0
  5  6  1  0  0  0
  6  7  2  0  0  0
  7  8  1  0  0  0
  8 10  1  0  0  0
 10 11  1  0  0  0
 11 12  1  0  0  0
 12 13  1  0  0  0
 13 14  1  0  0  0
 14 15  1  0  0  0
  8  9  1  0  0  0
 18 19  1  0  0  0
 19 20  1  0  0  0
 19 21  1  0  0  0
 19 22  1  0  0  0
  9  5  2  0  0  0
 15 10  1  0  0  0
  3  4  1  0  0  0
M  END
> <minimizedAffinity>
-5.67377

> <minimizedRMSD>
2.10045

$$$$
C7182-P151


 23 24  0  0  0  0  0  0  0  0999 V2000
    9.9373   10.0495   23.3729 C   0  0  0  0  0  0  0  0  0  0  0  0
    8.8153   10.3019   24.3106 C   0  0  0  0  0  0  0  0  0  0  0  0
    8.0029    9.3918   24.9474 C   0  0  0  0  0  0  0  0  0  0  0  0
    7.1212   10.1392   25.7416 C   0  0  0  0  0  0  0  0  0  0  0  0
    7.4012   11.4371   25.6713 N   0  0  0  0  0  0  0  0  0  0  0  0
    8.3412   11.5326   24.7033 N   0  0  0  0  0  0  0  0  0  0  0  0
    8.7309   12.8384   24.1762 C   0  0  0  0  0  0  0  0  0  0  0  0
    9.7566   13.5298   25.0804 C   0  0  0  0  0  0  0  0  0  0  0  0
   10.2369   14.8424   24.4676 C   0  0  0  0  0  0  0  0  0  0  0  0
    9.0705   15.7657   24.1329 C   0  0  0  0  0  0  0  0  0  0  0  0
    8.0269   15.0814   23.2534 C   0  0  0  0  0  0  0  0  0  0  0  0
    7.5450   13.7671   23.8671 C   0  0  0  0  0  0  0  0  0  0  0  0
    6.0938    9.5908   26.4479 N   0  0  0  0  0  0  0  0  0  0  0  0
    5.1982   10.1996   27.5652 C   0  0  0  0  0  0  0  0  0  0  0  0
    5.2566   11.2351   28.1009 O   0  0  0  0  0  0  0  0  0  0  0  0
    5.8838    8.6580   26.2135 H   0  0  0  0  0  0  0  0  0  0  0  0
    4.0793    9.1762   27.7922 C   0  0  0  0  0  0  0  0  0  0  0  0
    3.1748    9.3368   29.0230 C   0  0  0  0  0  0  0  0  0  0  0  0
    1.8129    9.9668   28.7341 C   0  0  0  0  0  0  0  0  0  0  0  0
    2.9457    7.9612   29.6455 C   0  0  0  0  0  0  0  0  0  0  0  0
    2.4184    8.0604   30.8838 F   0  0  0  0  0  0  0  0  0  0  0  0
    4.1010    7.2672   29.7532 F   0  0  0  0  0  0  0  0  0  0  0  0
    2.1063    7.2130   28.8940 F   0  0  0  0  0  0  0  0  0  0  0  0
  1  2  1  0  0  0
  2  3  2  0  0  0
  3  4  1  0  0  0
  4 13  1  0  0  0
 13 14  1  0  0  0
 14 15  2  0  0  0
 14 17  1  0  0  0
 17 18  1  0  0  0
 18 19  1  0  0  0
 18 20  1  0  0  0
 20 21  1  0  0  0
 20 22  1  0  0  0
 20 23  1  0  0  0
  4  5  2  0  0  0
  5  6  1  0  0  0
  6  7  1  0  0  0
  7  8  1  0  0  0
  8  9  1  0  0  0
  9 10  1  0  0  0
 10 11  1  0  0  0
 11 12  1  0  0  0
  6  2  1  0  0  0
 12  7  1  0  0  0
 13 16  1  0  0  0
M  END
> <minimizedAffinity>
-5.15893

> <minimizedRMSD>
1.77012

$$$$
C31976-P405


 16 17  0  0  0  0  0  0  0  0999 V2000
    9.4402   15.0437   23.1368 N   0  0  0  0  0  0  0  0  0  0  0  0
   10.3856   15.8060   23.9880 C   0  0  0  0  0  0  0  0  0  0  0  0
   11.7738   15.7331   23.3593 C   0  0  0  0  0  0  0  0  0  0  0  0
   11.3687   15.7526   21.9402 C   0  0  0  0  0  0  0  0  0  0  0  0
   12.1158   16.0417   20.8169 C   0  0  0  0  0  0  0  0  0  0  0  0
   11.5345   15.8869   19.5660 C   0  0  0  0  0  0  0  0  0  0  0  0
   10.2061   15.4960   19.4753 C   0  0  0  0  0  0  0  0  0  0  0  0
    9.4573   15.1975   20.6233 C   0  0  0  0  0  0  0  0  0  0  0  0
   10.0456   15.3313   21.8546 C   0  0  0  0  0  0  0  0  0  0  0  0
    9.3728   13.5706   23.2631 C   0  0  0  0  0  0  0  0  0  0  0  0
    7.5055   13.8527   24.9548 C   0  0  0  0  0  0  0  0  0  0  0  0
    8.7604   13.0460   24.5863 C   0  0  0  0  0  0  0  0  0  0  0  0
    9.7711   13.0667   25.7411 C   0  0  0  0  0  0  0  0  0  0  0  0
    8.4896   11.5485   24.3440 C   0  0  0  0  0  0  0  0  0  0  0  0
    9.1451   10.9195   23.5133 O   0  0  0  0  0  0  0  0  0  0  0  0
    7.3470   10.7953   25.4212 Cl  0  0  0  0  0  0  0  0  0  0  0  0
 11 12  1  0  0  0
 12 13  1  0  0  0
 12 10  1  0  0  0
 10  1  1  0  0  0
  1  2  1  0  0  0
  2  3  1  0  0  0
  3  4  1  0  0  0
  4  5  2  0  0  0
  5  6  1  0  0  0
  6  7  2  0  0  0
  7  8  1  0  0  0
  8  9  2  0  0  0
 12 14  1  0  0  0
 14 15  2  0  0  0
 14 16  1  0  0  0
  9  1  1  0  0  0
  9  4  1  0  0  0
M  END
> <minimizedAffinity>
-5.78414

> <minimizedRMSD>
0.44607

$$$$
C4749-P199


 13 14  0  0  0  0  0  0  0  0999 V2000
    7.6806   13.7580   25.4090 C   0  0  0  0  0  0  0  0  0  0  0  0
    7.0753   14.7785   24.4146 C   0  0  0  0  0  0  0  0  0  0  0  0
    6.5081   15.9593   25.0707 N   0  0  0  0  0  0  0  0  0  0  0  0
    5.3654   15.6668   25.9426 C   0  0  0  0  0  0  0  0  0  0  0  0
    5.0417   14.1914   26.2067 C   0  0  0  0  0  0  0  0  0  0  0  0
    6.4945   13.2251   26.7265 S   0  0  0  0  0  0  0  0  0  0  0  0
    6.2017   16.6112   24.3485 H   0  0  0  0  0  0  0  0  0  0  0  0
    8.0489   11.1954   24.9309 C   0  0  0  0  0  0  0  0  0  0  0  0
    8.8296   10.4033   24.2012 N   0  0  0  0  0  0  0  0  0  0  0  0
    9.6061   11.2551   23.5121 N   0  0  0  0  0  0  0  0  0  0  0  0
    9.3353   12.5656   23.7996 C   0  0  0  0  0  0  0  0  0  0  0  0
    8.3146   12.5714   24.7352 C   0  0  0  0  0  0  0  0  0  0  0  0
   10.2951   10.9682   22.8700 H   0  0  0  0  0  0  0  0  0  0  0  0
  8  9  2  0  0  0
  9 10  1  0  0  0
 10 11  1  0  0  0
 11 12  2  0  0  0
  1 12  1  0  0  0
  1  2  1  0  0  0
  2  3  1  0  0  0
  3  4  1  0  0  0
  4  5  1  0  0  0
  5  6  1  0  0  0
 12  8  1  0  0  0
  6  1  1  0  0  0
 10 13  1  0  0  0
  3  7  1  0  0  0
M  END
> <minimizedAffinity>
-3.97343

> <minimizedRMSD>
0.96992

$$$$
C4755-P199


 12 13  0  0  0  0  0  0  0  0999 V2000
    7.4639   10.6282   25.3102 C   0  0  0  0  0  0  0  0  0  0  0  0
    8.0302    9.5918   24.6995 N   0  0  0  0  0  0  0  0  0  0  0  0
    9.0492   10.1340   24.0136 N   0  0  0  0  0  0  0  0  0  0  0  0
    9.1487   11.4859   24.1958 C   0  0  0  0  0  0  0  0  0  0  0  0
    8.1122   11.8568   25.0376 C   0  0  0  0  0  0  0  0  0  0  0  0
    9.6590    9.6145   23.4413 H   0  0  0  0  0  0  0  0  0  0  0  0
    7.6908   13.2151   25.4923 C   0  0  0  0  0  0  0  0  0  0  0  0
    8.8647   14.0426   25.8007 N   0  0  0  0  0  0  0  0  0  0  0  0
    8.3468   15.1721   26.5895 C   0  0  0  0  0  0  0  0  0  0  0  0
    7.4951   14.6211   27.7244 C   0  0  0  0  0  0  0  0  0  0  0  0
    6.6956   13.1658   27.0164 S   0  0  0  0  0  0  0  0  0  0  0  0
    9.3017   14.3770   24.9419 H   0  0  0  0  0  0  0  0  0  0  0  0
  1  2  2  0  0  0
  2  3  1  0  0  0
  3  4  1  0  0  0
  4  5  2  0  0  0
  7  5  1  0  0  0
  7  8  1  0  0  0
  8  9  1  0  0  0
  9 10  1  0  0  0
 10 11  1  0  0  0
  5  1  1  0  0  0
 11  7  1  0  0  0
  3  6  1  0  0  0
  8 12  1  0  0  0
M  END
> <minimizedAffinity>
-3.42697

> <minimizedRMSD>
0.66714

$$$$
C3806-P199


 13 14  0  0  0  0  0  0  0  0999 V2000
    8.1983   13.8347   25.1344 C   0  0  0  0  0  0  0  0  0  0  0  0
    6.8172   13.8506   25.8278 C   0  0  0  0  0  0  0  0  0  0  0  0
    6.9653   13.7478   27.3414 C   0  0  0  0  0  0  0  0  0  0  0  0
    7.7937   14.9099   27.9013 C   0  0  0  0  0  0  0  0  0  0  0  0
    8.7473   15.4969   26.9538 N   0  0  0  0  0  0  0  0  0  0  0  0
    9.2771   14.4888   26.0302 C   0  0  0  0  0  0  0  0  0  0  0  0
    9.5215   15.9084   27.4749 H   0  0  0  0  0  0  0  0  0  0  0  0
    8.0358   11.2174   24.9563 C   0  0  0  0  0  0  0  0  0  0  0  0
    8.6088   10.2109   24.3047 N   0  0  0  0  0  0  0  0  0  0  0  0
    9.6027   10.7911   23.6113 N   0  0  0  0  0  0  0  0  0  0  0  0
    9.6650   12.1430   23.8138 C   0  0  0  0  0  0  0  0  0  0  0  0
    8.6282   12.4674   24.6703 C   0  0  0  0  0  0  0  0  0  0  0  0
   10.2184   10.2979   23.0224 H   0  0  0  0  0  0  0  0  0  0  0  0
  8  9  2  0  0  0
  9 10  1  0  0  0
 10 11  1  0  0  0
 11 12  2  0  0  0
  1 12  1  0  0  0
  1  2  1  0  0  0
  2  3  1  0  0  0
  3  4  1  0  0  0
  4  5  1  0  0  0
  5  6  1  0  0  0
 12  8  1  0  0  0
  6  1  1  0  0  0
 10 13  1  0  0  0
  5  7  1  0  0  0
M  END
> <minimizedAffinity>
-3.91539

> <minimizedRMSD>
1.11692

$$$$
C10627-P405


 13 13  0  0  0  0  0  0  0  0999 V2000
    6.0249   15.7321   21.9957 C   0  0  0  0  0  0  0  0  0  0  0  0
    7.1095   14.7250   22.3001 C   0  0  0  0  0  0  0  0  0  0  0  0
    6.8524   13.5259   22.4337 O   0  0  0  0  0  0  0  0  0  0  0  0
    8.5507   15.2198   22.3641 C   0  0  0  0  0  0  0  0  0  0  0  0
    9.1906   15.0384   20.9923 C   0  0  0  0  0  0  0  0  0  0  0  0
    9.0542   15.0268   24.8376 C   0  0  0  0  0  0  0  0  0  0  0  0
    9.3473   14.4789   23.4478 C   0  0  0  0  0  0  0  0  0  0  0  0
    4.4294   15.1580   22.6100 S   0  0  0  0  0  0  0  0  0  0  0  0
    3.7367   14.6030   21.1183 C   0  0  0  0  0  0  0  0  0  0  0  0
    2.5627   15.0213   20.6887 N   0  0  0  0  0  0  0  0  0  0  0  0
    2.3990   14.3615   19.4956 C   0  0  0  0  0  0  0  0  0  0  0  0
    3.5116   13.6101   19.2190 C   0  0  0  0  0  0  0  0  0  0  0  0
    4.3850   13.7657   20.2510 O   0  0  0  0  0  0  0  0  0  0  0  0
  6  7  1  0  0  0
  7  4  1  0  0  0
  4  5  1  0  0  0
  4  2  1  0  0  0
  2  3  2  0  0  0
  2  1  1  0  0  0
  1  8  1  0  0  0
  8  9  1  0  0  0
  9 10  2  0  0  0
 10 11  1  0  0  0
 11 12  2  0  0  0
 12 13  1  0  0  0
 13  9  1  0  0  0
M  END
> <minimizedAffinity>
-3.25550

> <minimizedRMSD>
0.92043

$$$$
C10635-P405


 14 14  0  0  0  0  0  0  0  0999 V2000
    6.7099   16.7262   22.5816 C   0  0  0  0  0  0  0  0  0  0  0  0
    9.0361   17.0287   21.7441 C   0  0  0  0  0  0  0  0  0  0  0  0
    8.0091   15.9988   22.2017 C   0  0  0  0  0  0  0  0  0  0  0  0
    8.6266   15.1413   23.3004 C   0  0  0  0  0  0  0  0  0  0  0  0
    8.3184   15.5447   24.5460 F   0  0  0  0  0  0  0  0  0  0  0  0
    9.9767   15.1555   23.1996 F   0  0  0  0  0  0  0  0  0  0  0  0
    8.2404   13.8547   23.1521 F   0  0  0  0  0  0  0  0  0  0  0  0
    5.5260   15.8061   22.7478 C   0  0  0  0  0  0  0  0  0  0  0  0
    5.2136   15.4998   23.8997 O   0  0  0  0  0  0  0  0  0  0  0  0
    4.8720   15.3506   21.5337 C   0  0  0  0  0  0  0  0  0  0  0  0
    3.9352   16.0035   20.8603 N   0  0  0  0  0  0  0  0  0  0  0  0
    3.6229   15.1369   19.8344 C   0  0  0  0  0  0  0  0  0  0  0  0
    4.4394   14.0371   19.8768 C   0  0  0  0  0  0  0  0  0  0  0  0
    5.2491   14.1637   20.9623 O   0  0  0  0  0  0  0  0  0  0  0  0
  3  2  1  0  0  0
  3  1  1  0  0  0
  1  8  1  0  0  0
  8  9  2  0  0  0
  8 10  1  0  0  0
 10 11  2  0  0  0
 11 12  1  0  0  0
 12 13  2  0  0  0
 13 14  1  0  0  0
  3  4  1  0  0  0
  4  5  1  0  0  0
  4  6  1  0  0  0
  4  7  1  0  0  0
 14 10  1  0  0  0
M  END
> <minimizedAffinity>
-3.79177

> <minimizedRMSD>
1.23130

$$$$
C10655-P405


 12 12  0  0  0  0  0  0  0  0999 V2000
    5.8028   15.6146   22.0779 C   0  0  0  0  0  0  0  0  0  0  0  0
    5.8241   16.8360   21.9273 O   0  0  0  0  0  0  0  0  0  0  0  0
    7.0773   14.7940   22.0443 C   0  0  0  0  0  0  0  0  0  0  0  0
    9.0829   15.6157   23.3746 C   0  0  0  0  0  0  0  0  0  0  0  0
    8.3693   15.6245   22.0205 C   0  0  0  0  0  0  0  0  0  0  0  0
    9.3162   15.0737   20.9655 C   0  0  0  0  0  0  0  0  0  0  0  0
    4.5057   14.8851   22.3161 C   0  0  0  0  0  0  0  0  0  0  0  0
    3.8199   14.5939   21.0431 C   0  0  0  0  0  0  0  0  0  0  0  0
    2.6856   15.0992   20.5996 N   0  0  0  0  0  0  0  0  0  0  0  0
    2.4361   14.3793   19.4575 C   0  0  0  0  0  0  0  0  0  0  0  0
    3.4614   13.5003   19.2222 C   0  0  0  0  0  0  0  0  0  0  0  0
    4.3605   13.6244   20.2389 O   0  0  0  0  0  0  0  0  0  0  0  0
  4  5  1  0  0  0
  5  6  1  0  0  0
  5  3  1  0  0  0
  3  1  1  0  0  0
  1  2  2  0  0  0
  1  7  1  0  0  0
  7  8  1  0  0  0
  8  9  2  0  0  0
  9 10  1  0  0  0
 10 11  2  0  0  0
 11 12  1  0  0  0
 12  8  1  0  0  0
M  END
> <minimizedAffinity>
-3.25815

> <minimizedRMSD>
1.08721

$$$$
C7352-P183


 19 19  0  0  0  0  0  0  0  0999 V2000
   11.1034   14.0007   24.4704 C   0  0  0  0  0  0  0  0  0  0  0  0
   11.3172   14.6752   25.3894 O   0  0  0  0  0  0  0  0  0  0  0  0
   11.5611   14.1302   23.0165 N   0  0  0  0  0  0  0  0  0  0  0  0
   11.3053   13.3778   22.4354 H   0  0  0  0  0  0  0  0  0  0  0  0
    9.0757   12.4454   24.5636 C   0  0  0  0  0  0  0  0  0  0  0  0
   10.3829   12.7201   24.4449 C   0  0  0  0  0  0  0  0  0  0  0  0
    8.6213   10.9846   24.4712 C   0  0  0  0  0  0  0  0  0  0  0  0
    9.1220    8.6108   23.5183 C   0  0  0  0  0  0  0  0  0  0  0  0
    9.5393   10.0552   23.6240 C   0  0  0  0  0  0  0  0  0  0  0  0
    8.0501   13.5367   24.8473 C   0  0  0  0  0  0  0  0  0  0  0  0
    7.6011   14.4100   23.6765 C   0  0  0  0  0  0  0  0  0  0  0  0
    7.9156   13.8497   22.3055 C   0  0  0  0  0  0  0  0  0  0  0  0
   12.2953   15.1593   22.3680 C   0  0  0  0  0  0  0  0  0  0  0  0
   12.1720   14.9901   20.8720 C   0  0  0  0  0  0  0  0  0  0  0  0
   10.8743   15.4723   20.3527 C   0  0  0  0  0  0  0  0  0  0  0  0
   10.3256   15.2648   19.1146 C   0  0  0  0  0  0  0  0  0  0  0  0
    9.2600   16.0993   18.9846 O   0  0  0  0  0  0  0  0  0  0  0  0
    9.2055   16.7580   20.1754 C   0  0  0  0  0  0  0  0  0  0  0  0
   10.1048   16.3744   21.0462 N   0  0  0  0  0  0  0  0  0  0  0  0
  8  9  1  0  0  0
  9  7  1  0  0  0
  7  5  1  0  0  0
  5  6  2  0  0  0
  6  1  1  0  0  0
  1  2  2  0  0  0
  1  3  1  0  0  0
  3 13  1  0  0  0
 13 14  1  0  0  0
 14 15  1  0  0  0
 15 16  2  0  0  0
 16 17  1  0  0  0
 17 18  1  0  0  0
 18 19  2  0  0  0
  5 10  1  0  0  0
 10 11  1  0  0  0
 11 12  1  0  0  0
 19 15  1  0  0  0
  3  4  1  0  0  0
M  END
> <minimizedAffinity>
-5.24839

> <minimizedRMSD>
0.55159

$$$$
C1602-P183


 19 19  0  0  0  0  0  0  0  0999 V2000
    6.1647   14.4309   22.2825 C   0  0  0  0  0  0  0  0  0  0  0  0
    6.5418   13.6563   21.4961 O   0  0  0  0  0  0  0  0  0  0  0  0
    4.7275   14.8268   22.6882 N   0  0  0  0  0  0  0  0  0  0  0  0
    4.6706   15.5706   23.3307 H   0  0  0  0  0  0  0  0  0  0  0  0
    3.4484   14.2807   22.2763 C   0  0  0  0  0  0  0  0  0  0  0  0
    2.2845   14.8275   23.0919 C   0  0  0  0  0  0  0  0  0  0  0  0
    3.2167   14.3399   20.8023 C   0  0  0  0  0  0  0  0  0  0  0  0
    2.4265   15.1359   20.1017 N   0  0  0  0  0  0  0  0  0  0  0  0
    2.3460   14.5079   18.8774 C   0  0  0  0  0  0  0  0  0  0  0  0
    3.1808   13.4213   18.8476 C   0  0  0  0  0  0  0  0  0  0  0  0
    3.7424   13.2963   20.0782 O   0  0  0  0  0  0  0  0  0  0  0  0
    7.1760   15.1519   23.1757 C   0  0  0  0  0  0  0  0  0  0  0  0
    7.9082   14.0959   24.0798 C   0  0  0  0  0  0  0  0  0  0  0  0
    9.4058   13.6743   23.6570 C   0  0  0  0  0  0  0  0  0  0  0  0
    9.4012   12.1431   23.4467 C   0  0  0  0  0  0  0  0  0  0  0  0
   10.4938   13.9644   24.7115 C   0  0  0  0  0  0  0  0  0  0  0  0
    9.9199   14.3107   22.3519 C   0  0  0  0  0  0  0  0  0  0  0  0
    7.0344   13.2369   26.3572 C   0  0  0  0  0  0  0  0  0  0  0  0
    7.7179   14.3702   25.5957 C   0  0  0  0  0  0  0  0  0  0  0  0
 18 19  1  0  0  0
 13 19  1  0  0  0
 13 12  1  0  0  0
 12  1  1  0  0  0
  1  2  2  0  0  0
  1  3  1  0  0  0
  3  5  1  0  0  0
  5  6  1  0  0  0
  5  7  1  0  0  0
  7  8  2  0  0  0
  8  9  1  0  0  0
  9 10  2  0  0  0
 10 11  1  0  0  0
 13 14  1  0  0  0
 14 15  1  0  0  0
 14 16  1  0  0  0
 14 17  1  0  0  0
 11  7  1  0  0  0
  3  4  1  0  0  0
M  END
> <minimizedAffinity>
-4.98077

> <minimizedRMSD>
0.52605

$$$$
C2407-P186


 14 14  0  0  0  0  0  0  0  0999 V2000
    9.0452   11.1990   24.2336 C   0  0  0  0  0  0  0  0  0  0  0  0
    8.6547   12.0902   25.4316 C   0  0  0  0  0  0  0  0  0  0  0  0
    7.2036   12.5800   25.4492 C   0  0  0  0  0  0  0  0  0  0  0  0
    6.9009   13.6385   26.5005 C   0  0  0  0  0  0  0  0  0  0  0  0
    7.8364   14.7458   26.4257 N   0  0  0  0  0  0  0  0  0  0  0  0
    9.2129   14.2906   26.5810 C   0  0  0  0  0  0  0  0  0  0  0  0
    9.5988   13.3035   25.4830 C   0  0  0  0  0  0  0  0  0  0  0  0
    7.6217   15.4124   27.1673 H   0  0  0  0  0  0  0  0  0  0  0  0
    7.7197    9.2613   24.8103 O   0  0  0  0  0  0  0  0  0  0  0  0
    8.7541    9.7061   24.3156 C   0  0  0  0  0  0  0  0  0  0  0  0
    9.7972    8.8207   23.6826 C   0  0  0  0  0  0  0  0  0  0  0  0
   10.9963    8.9976   24.3058 F   0  0  0  0  0  0  0  0  0  0  0  0
    9.9825    9.1314   22.3770 F   0  0  0  0  0  0  0  0  0  0  0  0
    9.5097    7.5000   23.7454 F   0  0  0  0  0  0  0  0  0  0  0  0
  9 10  2  0  0  0
 10  1  1  0  0  0
  1  2  1  0  0  0
  2  3  1  0  0  0
  3  4  1  0  0  0
  4  5  1  0  0  0
  5  6  1  0  0  0
  6  7  1  0  0  0
 10 11  1  0  0  0
 11 12  1  0  0  0
 11 13  1  0  0  0
 11 14  1  0  0  0
  7  2  1  0  0  0
  5  8  1  0  0  0
M  END
> <minimizedAffinity>
-4.28344

> <minimizedRMSD>
1.44608

$$$$
C8903-P303


 20 22  0  0  0  0  0  0  0  0999 V2000
    8.0605   12.4532   24.7886 C   0  0  0  0  0  0  0  0  0  0  0  0
    7.7514   11.3042   25.5162 C   0  0  0  0  0  0  0  0  0  0  0  0
    6.7539   11.3504   26.4899 C   0  0  0  0  0  0  0  0  0  0  0  0
    6.0740   12.5411   26.7659 C   0  0  0  0  0  0  0  0  0  0  0  0
    6.3485   13.6762   25.9796 C   0  0  0  0  0  0  0  0  0  0  0  0
    7.3635   13.6385   25.0108 C   0  0  0  0  0  0  0  0  0  0  0  0
    5.5906   14.9608   26.1946 C   0  0  0  0  0  0  0  0  0  0  0  0
    4.2827   14.7206   26.9380 C   0  0  0  0  0  0  0  0  0  0  0  0
    4.5380   13.8252   28.1397 C   0  0  0  0  0  0  0  0  0  0  0  0
    5.0335   12.5229   27.7097 N   0  0  0  0  0  0  0  0  0  0  0  0
    4.6613   11.6814   28.0598 H   0  0  0  0  0  0  0  0  0  0  0  0
   10.1466   11.7034   24.1244 O   0  0  0  0  0  0  0  0  0  0  0  0
    9.1755   12.3974   23.8267 C   0  0  0  0  0  0  0  0  0  0  0  0
    9.0306   13.1362   22.5053 C   0  0  0  0  0  0  0  0  0  0  0  0
    9.7732   14.4053   22.4725 N   0  0  0  0  0  0  0  0  0  0  0  0
   11.2287   14.2066   22.5867 C   0  0  0  0  0  0  0  0  0  0  0  0
   12.0463   15.2389   21.8306 C   0  0  0  0  0  0  0  0  0  0  0  0
   11.7607   15.1234   20.3499 C   0  0  0  0  0  0  0  0  0  0  0  0
   10.2720   14.9719   20.0752 C   0  0  0  0  0  0  0  0  0  0  0  0
    9.3960   15.2142   21.2932 C   0  0  0  0  0  0  0  0  0  0  0  0
 12 13  2  0  0  0
 13 14  1  0  0  0
 14 15  1  0  0  0
 15 16  1  0  0  0
 16 17  1  0  0  0
 17 18  1  0  0  0
 18 19  1  0  0  0
 19 20  1  0  0  0
 13  1  1  0  0  0
  1  2  2  0  0  0
  2  3  1  0  0  0
  3  4  2  0  0  0
  4  5  1  0  0  0
  5  6  2  0  0  0
  5  7  1  0  0  0
  7  8  1  0  0  0
  8  9  1  0  0  0
  9 10  1  0  0  0
 20 15  1  0  0  0
  6  1  1  0  0  0
 10  4  1  0  0  0
 10 11  1  0  0  0
M  END
> <minimizedAffinity>
-6.16389

> <minimizedRMSD>
0.89098

$$$$
C935-P356


 23 26  0  0  0  0  0  0  0  0999 V2000
   23.8681   13.2872    0.9483 C   0  0  0  0  0  0  0  0  0  0  0  0
   23.3466   13.0414   -0.2402 N   0  0  0  0  0  0  0  0  0  0  0  0
   24.0268   12.0090   -0.8201 N   0  0  0  0  0  0  0  0  0  0  0  0
   24.9534   11.6210    0.0216 C   0  0  0  0  0  0  0  0  0  0  0  0
   24.8671   12.3680    1.1684 N   0  0  0  0  0  0  0  0  0  0  0  0
   25.7830   12.2346    2.2826 C   0  0  0  0  0  0  0  0  0  0  0  0
   26.6993   11.0014    2.1925 C   0  0  0  0  0  0  0  0  0  0  0  0
   27.1589   10.7557    0.7455 C   0  0  0  0  0  0  0  0  0  0  0  0
   25.9629   10.5557   -0.1772 C   0  0  0  0  0  0  0  0  0  0  0  0
   27.8857   11.1939    3.0673 C   0  0  0  0  0  0  0  0  0  0  0  0
   28.7010   12.2223    3.1340 N   0  0  0  0  0  0  0  0  0  0  0  0
   29.6164   11.7953    4.0691 C   0  0  0  0  0  0  0  0  0  0  0  0
   29.3762   10.5801    4.5756 N   0  0  0  0  0  0  0  0  0  0  0  0
   28.2196   10.1744    3.9076 O   0  0  0  0  0  0  0  0  0  0  0  0
   30.8537   12.6711    4.5056 C   0  0  0  0  0  0  0  0  0  0  0  0
   31.0073   12.8681    6.0228 C   0  0  0  0  0  0  0  0  0  0  0  0
   30.1992   14.1565    5.8208 C   0  0  0  0  0  0  0  0  0  0  0  0
   30.5976   14.1380    4.3948 N   0  0  0  0  0  0  0  0  0  0  0  0
   31.4267   14.6935    4.1841 H   0  0  0  0  0  0  0  0  0  0  0  0
   22.1411   15.0643    1.2438 C   0  0  0  0  0  0  0  0  0  0  0  0
   23.3713   14.3729    1.8714 C   0  0  0  0  0  0  0  0  0  0  0  0
   24.4204   15.4646    2.1073 C   0  0  0  0  0  0  0  0  0  0  0  0
   22.8805   13.7320    3.1630 C   0  0  0  0  0  0  0  0  0  0  0  0
 20 21  1  0  0  0
 21 22  1  0  0  0
 21 23  1  0  0  0
 21  1  1  0  0  0
  1  2  2  0  0  0
  2  3  1  0  0  0
  3  4  2  0  0  0
  4  5  1  0  0  0
  5  6  1  0  0  0
  6  7  1  0  0  0
  7 10  1  0  0  0
 10 11  2  0  0  0
 11 12  1  0  0  0
 15 12  1  0  0  0
 15 16  1  0  0  0
 16 17  1  0  0  0
 17 18  1  0  0  0
 12 13  2  0  0  0
 13 14  1  0  0  0
  7  8  1  0  0  0
  8  9  1  0  0  0
  5  1  1  0  0  0
 14 10  1  0  0  0
  9  4  1  0  0  0
 18 15  1  0  0  0
 18 19  1  0  0  0
M  END
> <minimizedAffinity>
-4.78725

> <minimizedRMSD>
1.49819

$$$$
C2799-P440


 15 17  0  0  0  0  0  0  0  0999 V2000
    9.7323   13.8674   24.0078 N   0  0  0  0  0  0  0  0  0  0  0  0
   10.5694   12.7063   24.3339 C   0  0  0  0  0  0  0  0  0  0  0  0
   11.7091   13.0173   25.3337 C   0  0  0  0  0  0  0  0  0  0  0  0
   11.2866   13.7517   26.5382 N   0  0  0  0  0  0  0  0  0  0  0  0
   10.5186   14.9483   26.1725 C   0  0  0  0  0  0  0  0  0  0  0  0
    9.3655   14.6129   25.2407 C   0  0  0  0  0  0  0  0  0  0  0  0
    8.1814   15.5589   25.1926 C   0  0  0  0  0  0  0  0  0  0  0  0
    8.0441   14.2378   25.8821 C   0  0  0  0  0  0  0  0  0  0  0  0
   12.1128   14.0323   27.0664 H   0  0  0  0  0  0  0  0  0  0  0  0
   11.8599   15.6057   21.2563 C   0  0  0  0  0  0  0  0  0  0  0  0
   10.9341   15.2106   20.1142 C   0  0  0  0  0  0  0  0  0  0  0  0
    9.5715   15.2163   20.5437 O   0  0  0  0  0  0  0  0  0  0  0  0
    9.3312   14.2994   21.6134 C   0  0  0  0  0  0  0  0  0  0  0  0
   10.1494   14.6902   22.8595 C   0  0  0  0  0  0  0  0  0  0  0  0
   11.6395   14.7109   22.4770 C   0  0  0  0  0  0  0  0  0  0  0  0
 10 11  1  0  0  0
 11 12  1  0  0  0
 12 13  1  0  0  0
 13 14  1  0  0  0
 14  1  1  0  0  0
  1  2  1  0  0  0
  2  3  1  0  0  0
  3  4  1  0  0  0
  4  5  1  0  0  0
  5  6  1  0  0  0
  6  7  1  0  0  0
  7  8  1  0  0  0
 14 15  1  0  0  0
 15 10  1  0  0  0
  6  1  1  0  0  0
  8  6  1  0  0  0
  4  9  1  0  0  0
M  END
> <minimizedAffinity>
-5.02526

> <minimizedRMSD>
0.99399

$$$$
C2408-P218


 15 15  0  0  0  0  0  0  0  0999 V2000
    9.4657   14.1608   23.2490 C   0  0  0  0  0  0  0  0  0  0  0  0
    8.2898   14.0488   22.2765 C   0  0  0  0  0  0  0  0  0  0  0  0
   10.5227   13.1137   22.8857 C   0  0  0  0  0  0  0  0  0  0  0  0
    9.9529   15.5727   23.2429 N   0  0  0  0  0  0  0  0  0  0  0  0
   11.3376   15.8001   23.6774 C   0  0  0  0  0  0  0  0  0  0  0  0
   12.4070   15.6108   22.5954 C   0  0  0  0  0  0  0  0  0  0  0  0
   12.0915   16.3355   21.2944 C   0  0  0  0  0  0  0  0  0  0  0  0
   10.6607   16.0771   20.8506 C   0  0  0  0  0  0  0  0  0  0  0  0
    9.7056   16.3548   22.0080 C   0  0  0  0  0  0  0  0  0  0  0  0
    9.0627   13.7055   24.6991 C   0  0  0  0  0  0  0  0  0  0  0  0
    9.8426   13.8384   25.6544 O   0  0  0  0  0  0  0  0  0  0  0  0
    7.8010   12.8620   24.9320 C   0  0  0  0  0  0  0  0  0  0  0  0
    8.2372   11.4077   25.1160 C   0  0  0  0  0  0  0  0  0  0  0  0
    6.5653   12.4022   27.1373 C   0  0  0  0  0  0  0  0  0  0  0  0
    6.9752   13.4303   26.0933 C   0  0  0  0  0  0  0  0  0  0  0  0
 14 15  1  0  0  0
 15 12  1  0  0  0
 12 13  1  0  0  0
 12 10  1  0  0  0
 10 11  2  0  0  0
 10  1  1  0  0  0
  1  2  1  0  0  0
  1  3  1  0  0  0
  1  4  1  0  0  0
  4  5  1  0  0  0
  5  6  1  0  0  0
  6  7  1  0  0  0
  7  8  1  0  0  0
  8  9  1  0  0  0
  9  4  1  0  0  0
M  END
> <minimizedAffinity>
-4.94372

> <minimizedRMSD>
0.43223

$$$$
C2410-P218


 15 15  0  0  0  0  0  0  0  0999 V2000
    9.8423   13.2908   24.2398 C   0  0  0  0  0  0  0  0  0  0  0  0
   11.0194   12.5946   24.3410 F   0  0  0  0  0  0  0  0  0  0  0  0
    8.8164   12.5677   25.1218 C   0  0  0  0  0  0  0  0  0  0  0  0
    7.8023   13.5109   25.7713 C   0  0  0  0  0  0  0  0  0  0  0  0
    7.0842   12.8029   26.9190 C   0  0  0  0  0  0  0  0  0  0  0  0
    6.5479   11.4362   26.5102 C   0  0  0  0  0  0  0  0  0  0  0  0
    7.5110   10.6375   25.6327 C   0  0  0  0  0  0  0  0  0  0  0  0
    8.1235   11.4114   24.5461 N   0  0  0  0  0  0  0  0  0  0  0  0
    7.3996   11.7311   23.9026 H   0  0  0  0  0  0  0  0  0  0  0  0
    9.5218   13.4466   22.7610 C   0  0  0  0  0  0  0  0  0  0  0  0
    9.3795   14.9163   22.3352 C   0  0  0  0  0  0  0  0  0  0  0  0
   11.7776   15.0065   21.4371 C   0  0  0  0  0  0  0  0  0  0  0  0
   10.6582   15.7251   22.1403 C   0  0  0  0  0  0  0  0  0  0  0  0
   11.1092   16.2008   23.3298 F   0  0  0  0  0  0  0  0  0  0  0  0
   10.3537   16.8308   21.4097 F   0  0  0  0  0  0  0  0  0  0  0  0
 12 13  1  0  0  0
 13 14  1  0  0  0
 13 15  1  0  0  0
 13 11  1  0  0  0
 11 10  1  0  0  0
 10  1  1  0  0  0
  1  2  1  0  0  0
  1  3  1  0  0  0
  3  4  1  0  0  0
  4  5  1  0  0  0
  5  6  1  0  0  0
  6  7  1  0  0  0
  7  8  1  0  0  0
  8  3  1  0  0  0
  8  9  1  0  0  0
M  END
> <minimizedAffinity>
-4.57778

> <minimizedRMSD>
1.09990

$$$$
C2414-P218


 16 16  0  0  0  0  0  0  0  0999 V2000
    9.0439   14.4217   23.2919 C   0  0  0  0  0  0  0  0  0  0  0  0
    7.9298   14.0596   22.2893 C   0  0  0  0  0  0  0  0  0  0  0  0
   10.2784   14.8278   22.5476 N   0  0  0  0  0  0  0  0  0  0  0  0
   11.1357   15.7892   23.2578 C   0  0  0  0  0  0  0  0  0  0  0  0
   12.5264   15.7968   22.6390 C   0  0  0  0  0  0  0  0  0  0  0  0
   12.4612   16.2507   21.1914 C   0  0  0  0  0  0  0  0  0  0  0  0
   11.4959   15.3639   20.4242 C   0  0  0  0  0  0  0  0  0  0  0  0
   10.1421   15.2307   21.1335 C   0  0  0  0  0  0  0  0  0  0  0  0
    9.4191   13.1238   24.1372 C   0  0  0  0  0  0  0  0  0  0  0  0
   10.5328   12.9271   24.6420 O   0  0  0  0  0  0  0  0  0  0  0  0
    8.3687   12.0671   24.4155 C   0  0  0  0  0  0  0  0  0  0  0  0
    7.7785   12.1261   25.8141 C   0  0  0  0  0  0  0  0  0  0  0  0
    6.4632    9.8690   26.3516 C   0  0  0  0  0  0  0  0  0  0  0  0
    7.0864   10.8661   26.1119 C   0  0  0  0  0  0  0  0  0  0  0  0
    8.5049   15.4739   24.3132 C   0  0  0  0  0  0  0  0  0  0  0  0
    7.5743   16.5458   23.7606 C   0  0  0  0  0  0  0  0  0  0  0  0
 13 14  3  0  0  0
 14 12  1  0  0  0
 12 11  1  0  0  0
 11  9  1  0  0  0
  9 10  2  0  0  0
  9  1  1  0  0  0
  1  2  1  0  0  0
  1 15  1  0  0  0
 15 16  1  0  0  0
  1  3  1  0  0  0
  3  4  1  0  0  0
  4  5  1  0  0  0
  5  6  1  0  0  0
  6  7  1  0  0  0
  7  8  1  0  0  0
  8  3  1  0  0  0
M  END
> <minimizedAffinity>
-5.04369

> <minimizedRMSD>
0.62556

$$$$
C1791-P306


 16 18  0  0  0  0  0  0  0  0999 V2000
    8.4459    9.9414   24.5686 C   0  0  0  0  0  0  0  0  0  0  0  0
    7.5850   10.8106   25.5221 C   0  0  0  0  0  0  0  0  0  0  0  0
    7.3688   12.2878   25.1782 C   0  0  0  0  0  0  0  0  0  0  0  0
    8.3724   12.7049   24.2091 C   0  0  0  0  0  0  0  0  0  0  0  0
    8.4030   13.9606   23.7220 O   0  0  0  0  0  0  0  0  0  0  0  0
    9.4749   13.9124   22.8704 C   0  0  0  0  0  0  0  0  0  0  0  0
   10.0750   12.7434   22.7762 N   0  0  0  0  0  0  0  0  0  0  0  0
    9.3840   11.9813   23.6447 C   0  0  0  0  0  0  0  0  0  0  0  0
    9.6797   10.5873   23.9582 C   0  0  0  0  0  0  0  0  0  0  0  0
    9.9960   15.2179   22.4379 C   0  0  0  0  0  0  0  0  0  0  0  0
   11.5115   15.0812   22.2559 C   0  0  0  0  0  0  0  0  0  0  0  0
   11.8925   14.5840   20.8787 C   0  0  0  0  0  0  0  0  0  0  0  0
   11.2836   15.4302   19.8691 N   0  0  0  0  0  0  0  0  0  0  0  0
    9.8328   15.3039   19.9048 C   0  0  0  0  0  0  0  0  0  0  0  0
    9.2672   15.7979   21.2278 C   0  0  0  0  0  0  0  0  0  0  0  0
   11.6223   15.1510   18.9483 H   0  0  0  0  0  0  0  0  0  0  0  0
  1  2  1  0  0  0
  2  3  1  0  0  0
  3  4  1  0  0  0
  4  5  1  0  0  0
  5  6  1  0  0  0
  6 10  1  0  0  0
 10 11  1  0  0  0
 11 12  1  0  0  0
 12 13  1  0  0  0
 13 14  1  0  0  0
 14 15  1  0  0  0
  6  7  2  0  0  0
  7  8  1  0  0  0
  8  9  1  0  0  0
  9  1  1  0  0  0
  8  4  2  0  0  0
 15 10  1  0  0  0
 13 16  1  0  0  0
M  END
> <minimizedAffinity>
-5.59051

> <minimizedRMSD>
0.71630

$$$$
C1783-P196


 16 18  0  0  0  0  0  0  0  0999 V2000
    9.1217   14.7249   22.9770 C   0  0  0  0  0  0  0  0  0  0  0  0
    9.6368   13.5147   22.8686 N   0  0  0  0  0  0  0  0  0  0  0  0
    8.9015   12.6010   23.5930 C   0  0  0  0  0  0  0  0  0  0  0  0
    7.7914   13.1259   24.2096 C   0  0  0  0  0  0  0  0  0  0  0  0
    7.6679   14.8003   23.8889 S   0  0  0  0  0  0  0  0  0  0  0  0
    6.7802   12.4626   25.0494 C   0  0  0  0  0  0  0  0  0  0  0  0
    7.1061   10.7259   25.4257 S   0  0  0  0  0  0  0  0  0  0  0  0
    8.3394   10.2045   24.1924 C   0  0  0  0  0  0  0  0  0  0  0  0
    9.3616   11.1936   23.6666 C   0  0  0  0  0  0  0  0  0  0  0  0
   11.5248   15.6017   20.1688 C   0  0  0  0  0  0  0  0  0  0  0  0
   11.9783   15.1618   21.5528 C   0  0  0  0  0  0  0  0  0  0  0  0
   11.2649   15.9769   22.6255 C   0  0  0  0  0  0  0  0  0  0  0  0
    9.7400   16.0057   22.4499 C   0  0  0  0  0  0  0  0  0  0  0  0
    9.3441   16.3546   21.0818 N   0  0  0  0  0  0  0  0  0  0  0  0
   10.0051   15.5614   20.0497 C   0  0  0  0  0  0  0  0  0  0  0  0
    9.5689   17.3369   20.9240 H   0  0  0  0  0  0  0  0  0  0  0  0
 10 11  1  0  0  0
 11 12  1  0  0  0
 12 13  1  0  0  0
 13  1  1  0  0  0
  1  2  2  0  0  0
  2  3  1  0  0  0
  3  4  2  0  0  0
  4  5  1  0  0  0
  4  6  1  0  0  0
  6  7  1  0  0  0
  7  8  1  0  0  0
  8  9  1  0  0  0
 13 14  1  0  0  0
 14 15  1  0  0  0
 15 10  1  0  0  0
  5  1  1  0  0  0
  9  3  1  0  0  0
 14 16  1  0  0  0
M  END
> <minimizedAffinity>
-5.65614

> <minimizedRMSD>
0.72108

$$$$
C1795-P196


 15 17  0  0  0  0  0  0  0  0999 V2000
    9.1864   14.6063   23.1987 C   0  0  0  0  0  0  0  0  0  0  0  0
    9.7424   13.4170   23.0795 N   0  0  0  0  0  0  0  0  0  0  0  0
    8.9760   12.4561   23.6990 C   0  0  0  0  0  0  0  0  0  0  0  0
    7.8566   12.9418   24.3286 C   0  0  0  0  0  0  0  0  0  0  0  0
    7.7037   14.6153   24.0836 S   0  0  0  0  0  0  0  0  0  0  0  0
    6.8679   12.1536   25.0891 C   0  0  0  0  0  0  0  0  0  0  0  0
    7.3183   10.7041   25.2633 C   0  0  0  0  0  0  0  0  0  0  0  0
    8.2567   10.1046   24.2144 C   0  0  0  0  0  0  0  0  0  0  0  0
    9.3528   11.0178   23.6659 C   0  0  0  0  0  0  0  0  0  0  0  0
   11.5354   15.8307   20.4806 C   0  0  0  0  0  0  0  0  0  0  0  0
   11.9798   15.3242   21.8461 C   0  0  0  0  0  0  0  0  0  0  0  0
   11.1527   15.9466   22.9634 C   0  0  0  0  0  0  0  0  0  0  0  0
    9.7150   15.7776   22.7572 N   0  0  0  0  0  0  0  0  0  0  0  0
    9.2433   16.2616   21.4481 C   0  0  0  0  0  0  0  0  0  0  0  0
   10.0329   15.6396   20.2975 C   0  0  0  0  0  0  0  0  0  0  0  0
 10 11  1  0  0  0
 11 12  1  0  0  0
 12 13  1  0  0  0
 13  1  1  0  0  0
  1  2  2  0  0  0
  2  3  1  0  0  0
  3  4  2  0  0  0
  4  5  1  0  0  0
  4  6  1  0  0  0
  6  7  1  0  0  0
  7  8  1  0  0  0
  8  9  1  0  0  0
 13 14  1  0  0  0
 14 15  1  0  0  0
 15 10  1  0  0  0
  5  1  1  0  0  0
  9  3  1  0  0  0
M  END
> <minimizedAffinity>
-5.96841

> <minimizedRMSD>
0.54234

$$$$
C1805-P196


 16 18  0  0  0  0  0  0  0  0999 V2000
    8.9336   14.5297   23.4975 C   0  0  0  0  0  0  0  0  0  0  0  0
    9.3524   13.3026   23.2680 N   0  0  0  0  0  0  0  0  0  0  0  0
    8.5873   12.3855   23.9567 C   0  0  0  0  0  0  0  0  0  0  0  0
    7.5502   12.9338   24.6720 C   0  0  0  0  0  0  0  0  0  0  0  0
    7.5327   14.6330   24.4844 S   0  0  0  0  0  0  0  0  0  0  0  0
    6.5399   12.2763   25.5174 C   0  0  0  0  0  0  0  0  0  0  0  0
    6.7612   10.4975   25.7482 S   0  0  0  0  0  0  0  0  0  0  0  0
    7.8899    9.9924   24.4116 C   0  0  0  0  0  0  0  0  0  0  0  0
    8.9511   10.9499   23.9036 C   0  0  0  0  0  0  0  0  0  0  0  0
   11.7304   14.8770   21.9397 C   0  0  0  0  0  0  0  0  0  0  0  0
   11.1466   15.6236   23.1343 C   0  0  0  0  0  0  0  0  0  0  0  0
    9.6266   15.7912   23.0494 C   0  0  0  0  0  0  0  0  0  0  0  0
    9.1888   16.2540   21.6574 C   0  0  0  0  0  0  0  0  0  0  0  0
    9.8794   15.4906   20.5323 C   0  0  0  0  0  0  0  0  0  0  0  0
   11.3324   15.4918   20.6813 N   0  0  0  0  0  0  0  0  0  0  0  0
   11.6687   16.4546   20.6597 H   0  0  0  0  0  0  0  0  0  0  0  0
 10 11  1  0  0  0
 11 12  1  0  0  0
 12  1  1  0  0  0
  1  2  2  0  0  0
  2  3  1  0  0  0
  3  4  2  0  0  0
  4  5  1  0  0  0
  4  6  1  0  0  0
  6  7  1  0  0  0
  7  8  1  0  0  0
  8  9  1  0  0  0
 12 13  1  0  0  0
 13 14  1  0  0  0
 14 15  1  0  0  0
 15 10  1  0  0  0
  5  1  1  0  0  0
  9  3  1  0  0  0
 15 16  1  0  0  0
M  END
> <minimizedAffinity>
-5.49519

> <minimizedRMSD>
0.39859

$$$$
C1810-P196


 16 18  0  0  0  0  0  0  0  0999 V2000
    6.7842   10.6727   25.8433 C   0  0  0  0  0  0  0  0  0  0  0  0
    7.4012    9.7939   24.7506 C   0  0  0  0  0  0  0  0  0  0  0  0
    8.6632   10.3157   24.0632 C   0  0  0  0  0  0  0  0  0  0  0  0
    8.7406   11.7983   24.1280 C   0  0  0  0  0  0  0  0  0  0  0  0
    9.9637   12.7092   23.3995 S   0  0  0  0  0  0  0  0  0  0  0  0
    9.1140   14.1583   23.7626 C   0  0  0  0  0  0  0  0  0  0  0  0
    8.0646   13.9863   24.5436 N   0  0  0  0  0  0  0  0  0  0  0  0
    7.8651   12.6429   24.7664 C   0  0  0  0  0  0  0  0  0  0  0  0
    6.7183   12.1753   25.5690 C   0  0  0  0  0  0  0  0  0  0  0  0
    9.5550   15.5098   23.2577 C   0  0  0  0  0  0  0  0  0  0  0  0
   11.0728   15.7002   23.2381 C   0  0  0  0  0  0  0  0  0  0  0  0
   11.7489   15.2067   21.9587 C   0  0  0  0  0  0  0  0  0  0  0  0
   11.0953   15.7251   20.7690 N   0  0  0  0  0  0  0  0  0  0  0  0
    9.6912   15.3362   20.7134 C   0  0  0  0  0  0  0  0  0  0  0  0
    8.9159   15.8758   21.9111 C   0  0  0  0  0  0  0  0  0  0  0  0
   11.5723   15.3608   19.9443 H   0  0  0  0  0  0  0  0  0  0  0  0
  1  2  1  0  0  0
  2  3  1  0  0  0
  3  4  1  0  0  0
  4  5  1  0  0  0
  5  6  1  0  0  0
  6 10  1  0  0  0
 10 11  1  0  0  0
 11 12  1  0  0  0
 12 13  1  0  0  0
 13 14  1  0  0  0
 14 15  1  0  0  0
  6  7  2  0  0  0
  7  8  1  0  0  0
  8  9  1  0  0  0
  9  1  1  0  0  0
  8  4  2  0  0  0
 15 10  1  0  0  0
 13 16  1  0  0  0
M  END
> <minimizedAffinity>
-5.91309

> <minimizedRMSD>
0.48112

$$$$
C8903-P225


 20 22  0  0  0  0  0  0  0  0999 V2000
    7.8654   12.2555   24.9560 C   0  0  0  0  0  0  0  0  0  0  0  0
    7.9007   10.8967   24.6555 C   0  0  0  0  0  0  0  0  0  0  0  0
    6.9975   10.0394   25.2892 C   0  0  0  0  0  0  0  0  0  0  0  0
    6.0634   10.5167   26.2207 C   0  0  0  0  0  0  0  0  0  0  0  0
    6.0127   11.8961   26.4766 C   0  0  0  0  0  0  0  0  0  0  0  0
    6.8983   12.7636   25.8266 C   0  0  0  0  0  0  0  0  0  0  0  0
    5.0307   12.4424   27.4805 C   0  0  0  0  0  0  0  0  0  0  0  0
    4.7510   11.4160   28.5723 C   0  0  0  0  0  0  0  0  0  0  0  0
    4.3454   10.0913   27.9446 C   0  0  0  0  0  0  0  0  0  0  0  0
    5.3579    9.6229   27.0173 N   0  0  0  0  0  0  0  0  0  0  0  0
    5.5478    8.6592   26.9515 H   0  0  0  0  0  0  0  0  0  0  0  0
    9.4613   13.8809   25.3800 O   0  0  0  0  0  0  0  0  0  0  0  0
    8.9525   13.1590   24.5233 C   0  0  0  0  0  0  0  0  0  0  0  0
    9.3631   13.0963   23.0579 C   0  0  0  0  0  0  0  0  0  0  0  0
    9.9429   14.3748   22.6188 N   0  0  0  0  0  0  0  0  0  0  0  0
   11.4062   14.2690   22.4944 C   0  0  0  0  0  0  0  0  0  0  0  0
   11.9913   15.6361   22.1814 C   0  0  0  0  0  0  0  0  0  0  0  0
   11.4411   16.1685   20.8696 C   0  0  0  0  0  0  0  0  0  0  0  0
    9.9177   16.1740   20.9036 C   0  0  0  0  0  0  0  0  0  0  0  0
    9.3593   14.8184   21.3420 C   0  0  0  0  0  0  0  0  0  0  0  0
 12 13  2  0  0  0
 13 14  1  0  0  0
 14 15  1  0  0  0
 15 16  1  0  0  0
 16 17  1  0  0  0
 17 18  1  0  0  0
 18 19  1  0  0  0
 19 20  1  0  0  0
 13  1  1  0  0  0
  1  2  2  0  0  0
  2  3  1  0  0  0
  3  4  2  0  0  0
  4  5  1  0  0  0
  5  6  2  0  0  0
  5  7  1  0  0  0
  7  8  1  0  0  0
  8  9  1  0  0  0
  9 10  1  0  0  0
 20 15  1  0  0  0
  6  1  1  0  0  0
 10  4  1  0  0  0
 10 11  1  0  0  0
M  END
> <minimizedAffinity>
-6.91744

> <minimizedRMSD>
0.43761

$$$$
C4702-P304


 11 11  0  0  0  0  0  0  0  0999 V2000
   10.7131   15.8778   19.0589 C   0  0  0  0  0  0  0  0  0  0  0  0
   10.5766   15.8397   20.3951 C   0  0  0  0  0  0  0  0  0  0  0  0
   11.5952   16.4805   21.2967 C   0  0  0  0  0  0  0  0  0  0  0  0
   11.9453   15.5477   22.4473 C   0  0  0  0  0  0  0  0  0  0  0  0
   10.6927   15.0376   23.1495 C   0  0  0  0  0  0  0  0  0  0  0  0
    9.8661   14.2973   22.1908 N   0  0  0  0  0  0  0  0  0  0  0  0
    9.4080   15.1854   21.1024 C   0  0  0  0  0  0  0  0  0  0  0  0
    8.7689   13.5279   22.8143 C   0  0  0  0  0  0  0  0  0  0  0  0
    7.9985   14.2497   23.9136 C   0  0  0  0  0  0  0  0  0  0  0  0
    9.3420   12.2120   23.3633 C   0  0  0  0  0  0  0  0  0  0  0  0
    9.0120   11.6907   24.4293 O   0  0  0  0  0  0  0  0  0  0  0  0
  1  2  2  0  0  0
  2  3  1  0  0  0
  3  4  1  0  0  0
  4  5  1  0  0  0
  5  6  1  0  0  0
  6  8  1  0  0  0
  8  9  1  0  0  0
  8 10  1  0  0  0
 10 11  2  0  0  0
  6  7  1  0  0  0
  7  2  1  0  0  0
M  END
> <minimizedAffinity>
-4.49346

> <minimizedRMSD>
0.84906

$$$$
C7527-P494


 16 16  0  0  0  0  0  0  0  0999 V2000
    7.8786   15.5577   24.5568 C   0  0  0  0  0  0  0  0  0  0  0  0
    7.8636   15.9080   23.1193 N   0  0  0  0  0  0  0  0  0  0  0  0
    7.6798   16.9063   23.0200 H   0  0  0  0  0  0  0  0  0  0  0  0
    9.1458   15.5930   22.4968 N   0  0  0  0  0  0  0  0  0  0  0  0
   10.2393   15.6812   23.4806 C   0  0  0  0  0  0  0  0  0  0  0  0
   11.5387   15.2115   22.8341 C   0  0  0  0  0  0  0  0  0  0  0  0
   11.8897   16.0732   21.6303 C   0  0  0  0  0  0  0  0  0  0  0  0
   10.7154   16.1391   20.6608 C   0  0  0  0  0  0  0  0  0  0  0  0
    9.4108   16.5134   21.3707 C   0  0  0  0  0  0  0  0  0  0  0  0
    7.2395   14.2052   24.8518 C   0  0  0  0  0  0  0  0  0  0  0  0
    8.1284   13.2798   25.4843 O   0  0  0  0  0  0  0  0  0  0  0  0
    8.1922   12.0592   24.7222 C   0  0  0  0  0  0  0  0  0  0  0  0
    9.1133   12.5292   22.6073 F   0  0  0  0  0  0  0  0  0  0  0  0
    9.3425   11.8471   23.7455 C   0  0  0  0  0  0  0  0  0  0  0  0
   10.5134   12.2468   24.2602 F   0  0  0  0  0  0  0  0  0  0  0  0
    9.5051   10.5644   23.3937 F   0  0  0  0  0  0  0  0  0  0  0  0
 13 14  1  0  0  0
 14 15  1  0  0  0
 14 16  1  0  0  0
 14 12  1  0  0  0
 12 11  1  0  0  0
 11 10  1  0  0  0
 10  1  1  0  0  0
  1  2  1  0  0  0
  2  4  1  0  0  0
  4  5  1  0  0  0
  5  6  1  0  0  0
  6  7  1  0  0  0
  7  8  1  0  0  0
  8  9  1  0  0  0
  9  4  1  0  0  0
  2  3  1  0  0  0
M  END
> <minimizedAffinity>
-4.80783

> <minimizedRMSD>
1.71847

$$$$
C4728-P455


  9  9  0  0  0  0  0  0  0  0999 V2000
    9.7015   14.6138   22.4258 N   0  0  0  0  0  0  0  0  0  0  0  0
   11.1507   14.5945   22.6906 C   0  0  0  0  0  0  0  0  0  0  0  0
   11.7849   15.1528   21.4717 C   0  0  0  0  0  0  0  0  0  0  0  0
   10.8782   15.3012   20.5054 C   0  0  0  0  0  0  0  0  0  0  0  0
    9.5275   14.9275   20.9904 C   0  0  0  0  0  0  0  0  0  0  0  0
    8.9951   13.4028   22.8166 C   0  0  0  0  0  0  0  0  0  0  0  0
    9.9415   12.3126   23.2981 C   0  0  0  0  0  0  0  0  0  0  0  0
    9.1167   10.1427   23.9503 O   0  0  0  0  0  0  0  0  0  0  0  0
    9.1778   11.3505   24.1670 C   0  0  0  0  0  0  0  0  0  0  0  0
  8  9  2  0  0  0
  9  7  1  0  0  0
  7  6  1  0  0  0
  6  1  1  0  0  0
  1  2  1  0  0  0
  2  3  1  0  0  0
  3  4  2  0  0  0
  4  5  1  0  0  0
  5  1  1  0  0  0
M  END
> <minimizedAffinity>
-4.31620

> <minimizedRMSD>
1.32078

$$$$
C18173-P405


 14 14  0  0  0  0  0  0  0  0999 V2000
    9.0608   13.8092   23.6899 C   0  0  0  0  0  0  0  0  0  0  0  0
    9.1583   14.6657   24.5678 O   0  0  0  0  0  0  0  0  0  0  0  0
    8.7742   12.4244   24.0367 C   0  0  0  0  0  0  0  0  0  0  0  0
    7.6995   11.9446   24.8154 C   0  0  0  0  0  0  0  0  0  0  0  0
    7.6807   10.6127   24.9110 N   0  0  0  0  0  0  0  0  0  0  0  0
    8.7903   10.2320   24.2509 N   0  0  0  0  0  0  0  0  0  0  0  0
    9.4583   11.2807   23.6805 C   0  0  0  0  0  0  0  0  0  0  0  0
    9.0899    9.2965   24.1855 H   0  0  0  0  0  0  0  0  0  0  0  0
    9.1551   14.1868   22.2236 C   0  0  0  0  0  0  0  0  0  0  0  0
    9.0176   15.6810   21.9675 C   0  0  0  0  0  0  0  0  0  0  0  0
    9.8245   16.0789   20.7270 C   0  0  0  0  0  0  0  0  0  0  0  0
   12.2014   16.5457   21.4802 C   0  0  0  0  0  0  0  0  0  0  0  0
   11.2752   15.5744   20.7552 C   0  0  0  0  0  0  0  0  0  0  0  0
   11.7745   15.3323   19.3299 C   0  0  0  0  0  0  0  0  0  0  0  0
 12 13  1  0  0  0
 13 14  1  0  0  0
 13 11  1  0  0  0
 11 10  1  0  0  0
 10  9  1  0  0  0
  9  1  1  0  0  0
  1  2  2  0  0  0
  1  3  1  0  0  0
  3  4  1  0  0  0
  4  5  2  0  0  0
  5  6  1  0  0  0
  6  7  1  0  0  0
  7  3  2  0  0  0
  6  8  1  0  0  0
M  END
> <minimizedAffinity>
-4.65317

> <minimizedRMSD>
1.04981

$$$$
C18207-P405


 15 15  0  0  0  0  0  0  0  0999 V2000
    8.1555   14.1155   24.7047 C   0  0  0  0  0  0  0  0  0  0  0  0
    7.8357   14.5880   25.7943 O   0  0  0  0  0  0  0  0  0  0  0  0
    8.3792   12.6844   24.5370 C   0  0  0  0  0  0  0  0  0  0  0  0
    9.1866   12.0193   23.5922 C   0  0  0  0  0  0  0  0  0  0  0  0
    9.1194   10.6936   23.6895 N   0  0  0  0  0  0  0  0  0  0  0  0
    8.3097   10.4950   24.7352 N   0  0  0  0  0  0  0  0  0  0  0  0
    7.8289   11.6535   25.2746 C   0  0  0  0  0  0  0  0  0  0  0  0
    8.0827    9.6019   25.0818 H   0  0  0  0  0  0  0  0  0  0  0  0
    8.2533   14.9900   23.4624 C   0  0  0  0  0  0  0  0  0  0  0  0
    9.4395   15.9511   23.4779 C   0  0  0  0  0  0  0  0  0  0  0  0
    9.7615   16.4606   22.0578 C   0  0  0  0  0  0  0  0  0  0  0  0
   12.1986   16.7835   21.4651 C   0  0  0  0  0  0  0  0  0  0  0  0
   11.0074   15.8277   21.3827 C   0  0  0  0  0  0  0  0  0  0  0  0
   10.6989   15.5697   19.8952 C   0  0  0  0  0  0  0  0  0  0  0  0
   11.4100   14.5238   22.0690 C   0  0  0  0  0  0  0  0  0  0  0  0
 12 13  1  0  0  0
 13 14  1  0  0  0
 13 15  1  0  0  0
 13 11  1  0  0  0
 11 10  1  0  0  0
 10  9  1  0  0  0
  9  1  1  0  0  0
  1  2  2  0  0  0
  1  3  1  0  0  0
  3  4  1  0  0  0
  4  5  2  0  0  0
  5  6  1  0  0  0
  6  7  1  0  0  0
  7  3  2  0  0  0
  6  8  1  0  0  0
M  END
> <minimizedAffinity>
-4.55216

> <minimizedRMSD>
0.61389

$$$$
C4791-P405


 10 11  0  0  0  0  0  0  0  0999 V2000
    9.2125   11.2591   25.0005 C   0  0  0  0  0  0  0  0  0  0  0  0
    8.0000   10.5710   24.8621 C   0  0  0  0  0  0  0  0  0  0  0  0
    8.3718    9.3456   24.3723 C   0  0  0  0  0  0  0  0  0  0  0  0
    9.7255    9.3756   24.2281 N   0  0  0  0  0  0  0  0  0  0  0  0
   10.2658   10.5369   24.6275 N   0  0  0  0  0  0  0  0  0  0  0  0
   10.2518    8.6250   23.8689 H   0  0  0  0  0  0  0  0  0  0  0  0
    8.4301   13.6553   25.8141 C   0  0  0  0  0  0  0  0  0  0  0  0
    9.3269   12.7013   25.5029 C   0  0  0  0  0  0  0  0  0  0  0  0
   10.5182   13.5779   25.8027 C   0  0  0  0  0  0  0  0  0  0  0  0
    9.4935   14.6708   26.1640 C   0  0  0  0  0  0  0  0  0  0  0  0
  7  8  2  0  0  0
  8  1  1  0  0  0
  1  2  1  0  0  0
  2  3  2  0  0  0
  3  4  1  0  0  0
  4  5  1  0  0  0
  8  9  1  0  0  0
  9 10  1  0  0  0
 10  7  1  0  0  0
  5  1  2  0  0  0
  4  6  1  0  0  0
M  END
> <minimizedAffinity>
-3.46673

> <minimizedRMSD>
1.37111

$$$$
C15689-P103


 14 16  0  0  0  0  0  0  0  0999 V2000
   17.0015   -3.7503   18.5377 C   0  0  0  0  0  0  0  0  0  0  0  0
   18.0011   -4.2272   19.3840 C   0  0  0  0  0  0  0  0  0  0  0  0
   18.3446   -3.1395   20.1218 N   0  0  0  0  0  0  0  0  0  0  0  0
   19.0628   -3.0003   21.2623 N   0  0  0  0  0  0  0  0  0  0  0  0
   18.9325   -1.7478   21.6014 C   0  0  0  0  0  0  0  0  0  0  0  0
   17.9644   -0.6850   20.5552 S   0  0  0  0  0  0  0  0  0  0  0  0
   17.6810   -2.0762   19.6076 C   0  0  0  0  0  0  0  0  0  0  0  0
   16.8666   -2.3743   18.6427 N   0  0  0  0  0  0  0  0  0  0  0  0
   13.9884   -6.2622   17.1069 C   0  0  0  0  0  0  0  0  0  0  0  0
   13.7214   -4.9073   17.2446 C   0  0  0  0  0  0  0  0  0  0  0  0
   14.7451   -4.0543   17.6328 C   0  0  0  0  0  0  0  0  0  0  0  0
   16.0134   -4.5851   17.8661 C   0  0  0  0  0  0  0  0  0  0  0  0
   16.2990   -5.9051   17.7287 N   0  0  0  0  0  0  0  0  0  0  0  0
   15.2776   -6.7069   17.3532 C   0  0  0  0  0  0  0  0  0  0  0  0
  9 10  2  0  0  0
 10 11  1  0  0  0
 11 12  2  0  0  0
 12  1  1  0  0  0
  1  2  2  0  0  0
  2  3  1  0  0  0
  3  4  1  0  0  0
  4  5  2  0  0  0
  5  6  1  0  0  0
  6  7  1  0  0  0
  7  8  2  0  0  0
 12 13  1  0  0  0
 13 14  2  0  0  0
 14  9  1  0  0  0
  8  1  1  0  0  0
  7  3  1  0  0  0
M  END
> <minimizedAffinity>
-4.61376

> <minimizedRMSD>
0.63714

$$$$
C15690-P103


 14 16  0  0  0  0  0  0  0  0999 V2000
   17.2652   -3.6226   18.7327 C   0  0  0  0  0  0  0  0  0  0  0  0
   18.0119   -4.0606   19.8241 C   0  0  0  0  0  0  0  0  0  0  0  0
   18.3851   -2.9051   20.4419 N   0  0  0  0  0  0  0  0  0  0  0  0
   18.8971   -2.6556   21.6706 N   0  0  0  0  0  0  0  0  0  0  0  0
   18.8953   -1.3563   21.7871 C   0  0  0  0  0  0  0  0  0  0  0  0
   18.3026   -0.3867   20.4190 S   0  0  0  0  0  0  0  0  0  0  0  0
   17.9938   -1.8791   19.6500 C   0  0  0  0  0  0  0  0  0  0  0  0
   17.3311   -2.2480   18.5971 N   0  0  0  0  0  0  0  0  0  0  0  0
   13.9740   -4.6154   17.3167 C   0  0  0  0  0  0  0  0  0  0  0  0
   14.1991   -5.9703   17.1518 C   0  0  0  0  0  0  0  0  0  0  0  0
   15.3984   -6.5671   17.3395 N   0  0  0  0  0  0  0  0  0  0  0  0
   16.4052   -5.7703   17.7809 C   0  0  0  0  0  0  0  0  0  0  0  0
   16.2707   -4.4096   18.0302 C   0  0  0  0  0  0  0  0  0  0  0  0
   15.0274   -3.8268   17.7576 C   0  0  0  0  0  0  0  0  0  0  0  0
  9 10  2  0  0  0
 10 11  1  0  0  0
 11 12  2  0  0  0
 12 13  1  0  0  0
 13  1  1  0  0  0
  1  2  2  0  0  0
  2  3  1  0  0  0
  3  4  1  0  0  0
  4  5  2  0  0  0
  5  6  1  0  0  0
  6  7  1  0  0  0
  7  8  2  0  0  0
 13 14  2  0  0  0
 14  9  1  0  0  0
  8  1  1  0  0  0
  7  3  1  0  0  0
M  END
> <minimizedAffinity>
-4.54746

> <minimizedRMSD>
0.73302

$$$$
C7620-P274


 17 18  0  0  0  0  0  0  0  0999 V2000
    9.0708   13.2334   24.0348 C   0  0  0  0  0  0  0  0  0  0  0  0
   10.0291   12.6761   23.0008 C   0  0  0  0  0  0  0  0  0  0  0  0
   10.5924   13.1226   24.2434 C   0  0  0  0  0  0  0  0  0  0  0  0
    8.3053   12.3876   25.0427 C   0  0  0  0  0  0  0  0  0  0  0  0
    7.1976   13.0327   25.8501 C   0  0  0  0  0  0  0  0  0  0  0  0
    6.3745   11.8655   26.3708 C   0  0  0  0  0  0  0  0  0  0  0  0
    6.9318   10.6384   25.6729 C   0  0  0  0  0  0  0  0  0  0  0  0
    7.7261   11.1332   24.5500 N   0  0  0  0  0  0  0  0  0  0  0  0
    7.1352   11.3029   23.7361 H   0  0  0  0  0  0  0  0  0  0  0  0
    8.5038   14.6068   23.8095 N   0  0  0  0  0  0  0  0  0  0  0  0
    7.8680   14.8061   24.5818 H   0  0  0  0  0  0  0  0  0  0  0  0
    7.6515   14.8710   22.3673 S   0  0  0  0  0  0  0  0  0  0  0  0
    6.9012   13.6780   22.0360 O   0  0  0  0  0  0  0  0  0  0  0  0
    7.0009   16.1558   22.5107 O   0  0  0  0  0  0  0  0  0  0  0  0
    8.9574   15.0546   21.1680 C   0  0  0  0  0  0  0  0  0  0  0  0
   11.2118   16.0275   21.7402 C   0  0  0  0  0  0  0  0  0  0  0  0
    9.7823   16.3252   21.3293 C   0  0  0  0  0  0  0  0  0  0  0  0
 16 17  1  0  0  0
 17 15  1  0  0  0
 15 12  1  0  0  0
 12 13  2  0  0  0
 12 14  2  0  0  0
 12 10  1  0  0  0
 10  1  1  0  0  0
  4  1  1  0  0  0
  4  5  1  0  0  0
  5  6  1  0  0  0
  6  7  1  0  0  0
  7  8  1  0  0  0
  1  2  1  0  0  0
  2  3  1  0  0  0
  3  1  1  0  0  0
  8  4  1  0  0  0
 10 11  1  0  0  0
  8  9  1  0  0  0
M  END
> <minimizedAffinity>
-4.91982

> <minimizedRMSD>
2.06607

$$$$
C7674-P274


 15 16  0  0  0  0  0  0  0  0999 V2000
    6.8220   14.5653   25.4692 C   0  0  0  0  0  0  0  0  0  0  0  0
    5.8066   14.8542   24.3623 C   0  0  0  0  0  0  0  0  0  0  0  0
    5.2112   15.7692   21.9345 N   0  0  0  0  0  0  0  0  0  0  0  0
    6.5024   15.0433   22.7199 S   0  0  0  0  0  0  0  0  0  0  0  0
    7.5436   16.0423   22.7378 O   0  0  0  0  0  0  0  0  0  0  0  0
    6.6852   13.7633   22.0674 O   0  0  0  0  0  0  0  0  0  0  0  0
    5.4606   15.9450   20.9612 H   0  0  0  0  0  0  0  0  0  0  0  0
    4.9874   16.6524   22.3929 H   0  0  0  0  0  0  0  0  0  0  0  0
    7.0486   13.0549   25.6714 C   0  0  0  0  0  0  0  0  0  0  0  0
    8.3659   12.4896   25.3536 N   0  0  0  0  0  0  0  0  0  0  0  0
    9.2955   13.5433   24.9108 C   0  0  0  0  0  0  0  0  0  0  0  0
   10.2325   12.8865   23.9417 C   0  0  0  0  0  0  0  0  0  0  0  0
    9.4331   11.8037   23.3019 C   0  0  0  0  0  0  0  0  0  0  0  0
    9.2644   10.4409   23.8531 C   0  0  0  0  0  0  0  0  0  0  0  0
    8.2814   11.5108   24.2229 C   0  0  0  0  0  0  0  0  0  0  0  0
  3  4  1  0  0  0
  4  5  2  0  0  0
  4  6  2  0  0  0
  4  2  1  0  0  0
  2  1  1  0  0  0
  1  9  1  0  0  0
  9 10  1  0  0  0
 10 11  1  0  0  0
 11 12  1  0  0  0
 13 12  1  0  0  0
 13 14  1  0  0  0
 15 14  1  0  0  0
 15 10  1  0  0  0
 15 13  1  0  0  0
  3  7  1  0  0  0
  3  8  1  0  0  0
M  END
> <minimizedAffinity>
-3.60081

> <minimizedRMSD>
0.66322

$$$$
C1266-P536


 17 19  0  0  0  0  0  0  0  0999 V2000
    8.1384   14.5093   23.0932 C   0  0  0  0  0  0  0  0  0  0  0  0
    7.4923   15.4353   24.0389 N   0  0  0  0  0  0  0  0  0  0  0  0
    6.2050   14.8678   24.4507 C   0  0  0  0  0  0  0  0  0  0  0  0
    6.3643   13.5685   25.2437 C   0  0  0  0  0  0  0  0  0  0  0  0
    7.4070   12.6445   24.6644 C   0  0  0  0  0  0  0  0  0  0  0  0
    7.4617   11.3122   25.0960 C   0  0  0  0  0  0  0  0  0  0  0  0
    8.4239   10.4506   24.5794 C   0  0  0  0  0  0  0  0  0  0  0  0
    9.3707   10.9206   23.6766 C   0  0  0  0  0  0  0  0  0  0  0  0
    9.3369   12.2486   23.2567 C   0  0  0  0  0  0  0  0  0  0  0  0
    8.3401   13.1231   23.7168 C   0  0  0  0  0  0  0  0  0  0  0  0
    7.3406   16.3368   23.5864 H   0  0  0  0  0  0  0  0  0  0  0  0
    9.5711   15.2158   21.1673 C   0  0  0  0  0  0  0  0  0  0  0  0
    9.3863   15.1426   22.5033 C   0  0  0  0  0  0  0  0  0  0  0  0
   10.4417   15.6548   23.4527 C   0  0  0  0  0  0  0  0  0  0  0  0
   11.8209   15.7403   22.8003 C   0  0  0  0  0  0  0  0  0  0  0  0
   11.7503   16.4725   21.4665 C   0  0  0  0  0  0  0  0  0  0  0  0
   10.7997   15.7692   20.5010 C   0  0  0  0  0  0  0  0  0  0  0  0
 12 13  2  0  0  0
  1 13  1  0  0  0
  1  2  1  0  0  0
  2  3  1  0  0  0
  3  4  1  0  0  0
  4  5  1  0  0  0
  5  6  2  0  0  0
  6  7  1  0  0  0
  7  8  2  0  0  0
  8  9  1  0  0  0
  9 10  2  0  0  0
 13 14  1  0  0  0
 14 15  1  0  0  0
 15 16  1  0  0  0
 16 17  1  0  0  0
 17 12  1  0  0  0
 10  1  1  0  0  0
 10  5  1  0  0  0
  2 11  1  0  0  0
M  END
> <minimizedAffinity>
-6.55484

> <minimizedRMSD>
0.74944

$$$$
C1281-P536


 17 19  0  0  0  0  0  0  0  0999 V2000
    8.0901   14.7397   23.1117 C   0  0  0  0  0  0  0  0  0  0  0  0
    7.4809   15.6312   24.1278 N   0  0  0  0  0  0  0  0  0  0  0  0
    6.1764   15.0949   24.5148 C   0  0  0  0  0  0  0  0  0  0  0  0
    6.3014   13.7623   25.2474 C   0  0  0  0  0  0  0  0  0  0  0  0
    7.3530   12.8530   24.6578 C   0  0  0  0  0  0  0  0  0  0  0  0
    7.4105   11.5245   25.1096 C   0  0  0  0  0  0  0  0  0  0  0  0
    8.3760   10.6599   24.6130 C   0  0  0  0  0  0  0  0  0  0  0  0
    9.3173   11.1270   23.7058 C   0  0  0  0  0  0  0  0  0  0  0  0
    9.2814   12.4532   23.2690 C   0  0  0  0  0  0  0  0  0  0  0  0
    8.2870   13.3372   23.7063 C   0  0  0  0  0  0  0  0  0  0  0  0
    7.3635   16.5656   23.7359 H   0  0  0  0  0  0  0  0  0  0  0  0
   11.8300   16.1388   21.2553 C   0  0  0  0  0  0  0  0  0  0  0  0
   11.7932   15.9225   22.5768 C   0  0  0  0  0  0  0  0  0  0  0  0
   10.5578   15.5267   23.3255 C   0  0  0  0  0  0  0  0  0  0  0  0
    9.2789   15.5196   22.4691 C   0  0  0  0  0  0  0  0  0  0  0  0
    9.5386   15.1264   21.0005 C   0  0  0  0  0  0  0  0  0  0  0  0
   10.6416   15.9713   20.3599 C   0  0  0  0  0  0  0  0  0  0  0  0
 12 13  2  0  0  0
 13 14  1  0  0  0
 15 14  1  0  0  0
 15  1  1  0  0  0
  1  2  1  0  0  0
  2  3  1  0  0  0
  3  4  1  0  0  0
  4  5  1  0  0  0
  5  6  2  0  0  0
  6  7  1  0  0  0
  7  8  2  0  0  0
  8  9  1  0  0  0
  9 10  2  0  0  0
 15 16  1  0  0  0
 16 17  1  0  0  0
 17 12  1  0  0  0
 10  1  1  0  0  0
 10  5  1  0  0  0
  2 11  1  0  0  0
M  END
> <minimizedAffinity>
-6.61544

> <minimizedRMSD>
0.87430

$$$$
C1627-P182


 17 17  0  0  0  0  0  0  0  0999 V2000
    9.4069   13.4558   23.4789 C   0  0  0  0  0  0  0  0  0  0  0  0
    9.2807   12.3605   23.1111 O   0  0  0  0  0  0  0  0  0  0  0  0
   10.3909   14.5437   23.0389 N   0  0  0  0  0  0  0  0  0  0  0  0
   10.3463   15.3759   23.5629 H   0  0  0  0  0  0  0  0  0  0  0  0
    8.5394   13.9463   24.6535 C   0  0  0  0  0  0  0  0  0  0  0  0
    7.3887   14.8948   24.4260 C   0  0  0  0  0  0  0  0  0  0  0  0
    6.7764   14.7897   23.0426 C   0  0  0  0  0  0  0  0  0  0  0  0
    8.0626   12.6661   25.3342 C   0  0  0  0  0  0  0  0  0  0  0  0
    6.5840   10.3638   26.1158 C   0  0  0  0  0  0  0  0  0  0  0  0
    6.2816   11.6768   26.7167 C   0  0  0  0  0  0  0  0  0  0  0  0
    6.9599   12.7629   26.3463 C   0  0  0  0  0  0  0  0  0  0  0  0
   11.3654   14.5477   21.9892 C   0  0  0  0  0  0  0  0  0  0  0  0
   10.7309   15.1503   20.7976 C   0  0  0  0  0  0  0  0  0  0  0  0
   11.0024   14.9384   19.4691 C   0  0  0  0  0  0  0  0  0  0  0  0
   10.2116   15.7682   18.7304 O   0  0  0  0  0  0  0  0  0  0  0  0
    9.4904   16.4466   19.6694 C   0  0  0  0  0  0  0  0  0  0  0  0
    9.7352   16.0931   20.9069 N   0  0  0  0  0  0  0  0  0  0  0  0
  9 10  1  0  0  0
 10 11  2  0  0  0
 11  8  1  0  0  0
  5  8  1  0  0  0
  5  6  1  0  0  0
  6  7  1  0  0  0
  5  1  1  0  0  0
  1  2  2  0  0  0
  1  3  1  0  0  0
  3 12  1  0  0  0
 12 13  1  0  0  0
 13 14  2  0  0  0
 14 15  1  0  0  0
 15 16  1  0  0  0
 16 17  2  0  0  0
 17 13  1  0  0  0
  3  4  1  0  0  0
M  END
> <minimizedAffinity>
-4.91395

> <minimizedRMSD>
1.14192

$$$$
C24493-P77


 16 16  0  0  0  0  0  0  0  0999 V2000
    5.3621   15.4084   22.1658 O   0  0  0  0  0  0  0  0  0  0  0  0
    6.6396   14.9056   22.6221 S   0  0  0  0  0  0  0  0  0  0  0  0
    7.0165   13.5197   22.4314 O   0  0  0  0  0  0  0  0  0  0  0  0
    7.7872   15.8649   21.8811 N   0  0  0  0  0  0  0  0  0  0  0  0
    8.0106   16.6120   22.5387 H   0  0  0  0  0  0  0  0  0  0  0  0
    9.0746   15.2955   21.4373 C   0  0  0  0  0  0  0  0  0  0  0  0
   10.0303   14.8307   22.5265 C   0  0  0  0  0  0  0  0  0  0  0  0
   11.5408   14.8725   22.2488 C   0  0  0  0  0  0  0  0  0  0  0  0
   11.5691   13.5504   23.0320 C   0  0  0  0  0  0  0  0  0  0  0  0
   10.1403   13.3528   22.6883 N   0  0  0  0  0  0  0  0  0  0  0  0
    9.5727   12.9656   23.4422 H   0  0  0  0  0  0  0  0  0  0  0  0
    6.8595   15.4132   24.2875 C   0  0  0  0  0  0  0  0  0  0  0  0
    6.2375   14.4321   25.2036 C   0  0  0  0  0  0  0  0  0  0  0  0
    6.1688   14.9834   26.4488 F   0  0  0  0  0  0  0  0  0  0  0  0
    6.9419   13.2900   25.3431 F   0  0  0  0  0  0  0  0  0  0  0  0
    4.9729   14.1092   24.8751 F   0  0  0  0  0  0  0  0  0  0  0  0
  1  2  2  0  0  0
  2  3  2  0  0  0
  2 12  1  0  0  0
 12 13  1  0  0  0
 13 14  1  0  0  0
 13 15  1  0  0  0
 13 16  1  0  0  0
  2  4  1  0  0  0
  4  6  1  0  0  0
  7  6  1  0  0  0
  7  8  1  0  0  0
  8  9  1  0  0  0
  9 10  1  0  0  0
 10  7  1  0  0  0
  4  5  1  0  0  0
 10 11  1  0  0  0
M  END
> <minimizedAffinity>
-4.25261

> <minimizedRMSD>
0.94826

$$$$
C4755-P612


 12 13  0  0  0  0  0  0  0  0999 V2000
    7.5470   10.7010   24.8699 C   0  0  0  0  0  0  0  0  0  0  0  0
    7.3646    9.3854   24.8049 N   0  0  0  0  0  0  0  0  0  0  0  0
    8.3636    8.9576   24.0147 N   0  0  0  0  0  0  0  0  0  0  0  0
    9.1832    9.9725   23.6030 C   0  0  0  0  0  0  0  0  0  0  0  0
    8.6768   11.1443   24.1415 C   0  0  0  0  0  0  0  0  0  0  0  0
    8.4918    8.0154   23.7595 H   0  0  0  0  0  0  0  0  0  0  0  0
    9.1261   12.5545   23.9509 C   0  0  0  0  0  0  0  0  0  0  0  0
   10.5689   12.6666   24.1918 N   0  0  0  0  0  0  0  0  0  0  0  0
   10.8323   14.0972   24.3898 C   0  0  0  0  0  0  0  0  0  0  0  0
    9.8500   14.6291   25.4245 C   0  0  0  0  0  0  0  0  0  0  0  0
    8.3246   13.7156   25.1013 S   0  0  0  0  0  0  0  0  0  0  0  0
   11.0912   12.3173   23.3882 H   0  0  0  0  0  0  0  0  0  0  0  0
  1  2  2  0  0  0
  2  3  1  0  0  0
  3  4  1  0  0  0
  4  5  2  0  0  0
  7  5  1  0  0  0
  7  8  1  0  0  0
  8  9  1  0  0  0
  9 10  1  0  0  0
 10 11  1  0  0  0
  5  1  1  0  0  0
 11  7  1  0  0  0
  3  6  1  0  0  0
  8 12  1  0  0  0
M  END
> <minimizedAffinity>
-4.51071

> <minimizedRMSD>
2.48860

$$$$
C4669-P364


 10 10  0  0  0  0  0  0  0  0999 V2000
    8.5883   13.2134   23.1324 C   0  0  0  0  0  0  0  0  0  0  0  0
    8.9640   14.6123   22.7963 C   0  0  0  0  0  0  0  0  0  0  0  0
    7.9014   15.3019   22.3816 C   0  0  0  0  0  0  0  0  0  0  0  0
    6.6870   14.4538   22.4077 C   0  0  0  0  0  0  0  0  0  0  0  0
    7.1116   13.1575   22.9757 N   0  0  0  0  0  0  0  0  0  0  0  0
    6.8550   12.3980   22.3450 H   0  0  0  0  0  0  0  0  0  0  0  0
    8.9672   12.8052   24.5711 C   0  0  0  0  0  0  0  0  0  0  0  0
    9.5679   13.5433   25.3587 O   0  0  0  0  0  0  0  0  0  0  0  0
    9.4948   10.4049   24.1886 C   0  0  0  0  0  0  0  0  0  0  0  0
    8.6504   11.3806   24.9819 C   0  0  0  0  0  0  0  0  0  0  0  0
  9 10  1  0  0  0
 10  7  1  0  0  0
  7  8  2  0  0  0
  1  7  1  0  0  0
  1  2  1  0  0  0
  2  3  2  0  0  0
  3  4  1  0  0  0
  4  5  1  0  0  0
  5  1  1  0  0  0
  5  6  1  0  0  0
M  END
> <minimizedAffinity>
-3.28491

> <minimizedRMSD>
1.18679

$$$$
C1386-P338


 18 18  0  0  0  0  0  0  0  0999 V2000
    8.2804   12.6228   23.7804 C   0  0  0  0  0  0  0  0  0  0  0  0
    9.3797   14.2716   22.2900 N   0  0  0  0  0  0  0  0  0  0  0  0
    8.0358   13.5697   22.6077 C   0  0  0  0  0  0  0  0  0  0  0  0
    6.9915   13.6668   22.0944 O   0  0  0  0  0  0  0  0  0  0  0  0
   10.1071   14.0756   22.9238 H   0  0  0  0  0  0  0  0  0  0  0  0
    9.7382   15.1649   21.2173 C   0  0  0  0  0  0  0  0  0  0  0  0
   11.4821   15.2558   19.4183 C   0  0  0  0  0  0  0  0  0  0  0  0
   11.2406   15.1152   20.9194 C   0  0  0  0  0  0  0  0  0  0  0  0
   12.0045   16.1999   21.6814 C   0  0  0  0  0  0  0  0  0  0  0  0
    7.7071   13.1975   25.0897 C   0  0  0  0  0  0  0  0  0  0  0  0
    7.0822   12.0628   25.9128 C   0  0  0  0  0  0  0  0  0  0  0  0
    8.7199   14.0363   25.9276 C   0  0  0  0  0  0  0  0  0  0  0  0
   10.1966   13.6436   25.7299 C   0  0  0  0  0  0  0  0  0  0  0  0
   11.1113   14.5270   26.5785 C   0  0  0  0  0  0  0  0  0  0  0  0
   10.8335   16.0087   26.3481 C   0  0  0  0  0  0  0  0  0  0  0  0
    9.4302   16.3235   26.5820 N   0  0  0  0  0  0  0  0  0  0  0  0
    8.5430   15.5544   25.7078 C   0  0  0  0  0  0  0  0  0  0  0  0
    9.2824   17.3178   26.4089 H   0  0  0  0  0  0  0  0  0  0  0  0
  7  8  1  0  0  0
  8  9  1  0  0  0
  8  6  1  0  0  0
  6  2  1  0  0  0
  2  3  1  0  0  0
  3  4  2  0  0  0
  3  1  1  0  0  0
  1 10  1  0  0  0
 10 11  1  0  0  0
 10 12  1  0  0  0
 12 13  1  0  0  0
 13 14  1  0  0  0
 14 15  1  0  0  0
 15 16  1  0  0  0
 16 17  1  0  0  0
 17 12  1  0  0  0
  2  5  1  0  0  0
 16 18  1  0  0  0
M  END
> <minimizedAffinity>
-4.88045

> <minimizedRMSD>
2.26490

$$$$
C38601-P122


 12 12  0  0  0  0  0  0  0  0999 V2000
    9.6894   13.5893   25.6933 O   0  0  0  0  0  0  0  0  0  0  0  0
    9.9503   12.4829   25.2255 C   0  0  0  0  0  0  0  0  0  0  0  0
   11.2415   12.1132   24.4867 C   0  0  0  0  0  0  0  0  0  0  0  0
   10.9430   11.1460   23.3452 C   0  0  0  0  0  0  0  0  0  0  0  0
   10.1704    9.9355   23.8390 C   0  0  0  0  0  0  0  0  0  0  0  0
    8.8943   10.4353   24.4431 C   0  0  0  0  0  0  0  0  0  0  0  0
    9.0636   11.4613   25.4321 N   0  0  0  0  0  0  0  0  0  0  0  0
    8.5386   11.4299   26.2644 H   0  0  0  0  0  0  0  0  0  0  0  0
   12.0452   10.6740   22.4235 C   0  0  0  0  0  0  0  0  0  0  0  0
   12.0364    9.4950   22.0485 O   0  0  0  0  0  0  0  0  0  0  0  0
   13.0254   11.6932   21.8912 C   0  0  0  0  0  0  0  0  0  0  0  0
   13.9771   10.9461   20.5727 Cl  0  0  0  0  0  0  0  0  0  0  0  0
  1  2  2  0  0  0
  2  3  1  0  0  0
  3  4  1  0  0  0
  4  9  1  0  0  0
  9 10  2  0  0  0
  9 11  1  0  0  0
 11 12  1  0  0  0
  4  5  1  0  0  0
  5  6  1  0  0  0
  6  7  1  0  0  0
  7  2  1  0  0  0
  7  8  1  0  0  0
M  END
> <minimizedAffinity>
-1.51095

> <minimizedRMSD>
0.57159

$$$$
C38616-P273


 14 14  0  0  0  0  0  0  0  0999 V2000
    6.4732   12.8677   25.5856 O   0  0  0  0  0  0  0  0  0  0  0  0
    7.3287   12.5388   24.7746 C   0  0  0  0  0  0  0  0  0  0  0  0
    7.6661   13.3566   23.5692 C   0  0  0  0  0  0  0  0  0  0  0  0
    9.1700   13.4341   23.3538 C   0  0  0  0  0  0  0  0  0  0  0  0
    9.8199   12.0472   23.3263 C   0  0  0  0  0  0  0  0  0  0  0  0
    9.0343   10.9240   23.9926 C   0  0  0  0  0  0  0  0  0  0  0  0
    8.0293   11.3806   24.9121 N   0  0  0  0  0  0  0  0  0  0  0  0
    7.8341   10.8168   25.6952 H   0  0  0  0  0  0  0  0  0  0  0  0
    9.4598   14.2377   22.0826 C   0  0  0  0  0  0  0  0  0  0  0  0
    8.4183   15.1051   21.8963 F   0  0  0  0  0  0  0  0  0  0  0  0
   10.7628   15.0232   22.1137 C   0  0  0  0  0  0  0  0  0  0  0  0
   10.6827   16.0929   21.2968 F   0  0  0  0  0  0  0  0  0  0  0  0
   11.0599   15.4472   23.3626 F   0  0  0  0  0  0  0  0  0  0  0  0
   11.8144   14.2882   21.6926 F   0  0  0  0  0  0  0  0  0  0  0  0
  1  2  2  0  0  0
  2  3  1  0  0  0
  4  3  1  0  0  0
  4  9  1  0  0  0
  9 10  1  0  0  0
  9 11  1  0  0  0
 11 12  1  0  0  0
 11 13  1  0  0  0
 11 14  1  0  0  0
  4  5  1  0  0  0
  5  6  1  0  0  0
  6  7  1  0  0  0
  7  2  1  0  0  0
  7  8  1  0  0  0
M  END
> <minimizedAffinity>
-4.77887

> <minimizedRMSD>
1.05774

$$$$
C83115-P174


 18 19  0  0  0  0  0  0  0  0999 V2000
    9.9811   14.1046   25.1170 C   0  0  0  0  0  0  0  0  0  0  0  0
    9.4610   12.8229   24.7245 N   0  0  0  0  0  0  0  0  0  0  0  0
   10.0572   12.0016   23.7974 C   0  0  0  0  0  0  0  0  0  0  0  0
    9.4517   10.8399   23.7191 N   0  0  0  0  0  0  0  0  0  0  0  0
    8.4114   10.9333   24.5929 C   0  0  0  0  0  0  0  0  0  0  0  0
    8.3938   12.1468   25.2395 C   0  0  0  0  0  0  0  0  0  0  0  0
    7.4063   12.5468   26.2734 C   0  0  0  0  0  0  0  0  0  0  0  0
    6.1695   11.6386   26.1988 C   0  0  0  0  0  0  0  0  0  0  0  0
    6.5351   10.1576   26.0376 C   0  0  0  0  0  0  0  0  0  0  0  0
    7.4149    9.8717   24.8108 C   0  0  0  0  0  0  0  0  0  0  0  0
    9.3075   15.3600   24.5631 C   0  0  0  0  0  0  0  0  0  0  0  0
    8.5091   15.2593   23.2698 C   0  0  0  0  0  0  0  0  0  0  0  0
   10.9130   15.2668   21.9774 N   0  0  0  0  0  0  0  0  0  0  0  0
    9.3404   15.7712   21.7839 S   0  0  0  0  0  0  0  0  0  0  0  0
    8.8035   15.0524   20.6600 O   0  0  0  0  0  0  0  0  0  0  0  0
    9.4269   17.2047   21.7449 O   0  0  0  0  0  0  0  0  0  0  0  0
   11.4574   15.5280   21.1554 H   0  0  0  0  0  0  0  0  0  0  0  0
   10.9335   14.2533   22.0909 H   0  0  0  0  0  0  0  0  0  0  0  0
 13 14  1  0  0  0
 14 15  2  0  0  0
 14 16  2  0  0  0
 14 12  1  0  0  0
 12 11  1  0  0  0
 11  1  1  0  0  0
  1  2  1  0  0  0
  2  3  1  0  0  0
  3  4  2  0  0  0
  4  5  1  0  0  0
  5  6  2  0  0  0
  6  7  1  0  0  0
  7  8  1  0  0  0
  8  9  1  0  0  0
  9 10  1  0  0  0
  6  2  1  0  0  0
 10  5  1  0  0  0
 13 17  1  0  0  0
 13 18  1  0  0  0
M  END
> <minimizedAffinity>
-5.62509

> <minimizedRMSD>
1.43697

$$$$
C33925-P219


 24 26  0  0  0  0  0  0  0  0999 V2000
    9.6764   13.5694   23.7457 N   0  0  0  0  0  0  0  0  0  0  0  0
   11.1963   13.4292   23.6383 C   0  0  0  0  0  0  0  0  0  0  0  0
   11.9156   12.6442   24.1036 O   0  0  0  0  0  0  0  0  0  0  0  0
    9.3056   14.3736   23.3156 H   0  0  0  0  0  0  0  0  0  0  0  0
   11.7311   14.5510   22.8697 C   0  0  0  0  0  0  0  0  0  0  0  0
   13.0604   14.8910   23.0148 C   0  0  0  0  0  0  0  0  0  0  0  0
   13.5420   16.0284   22.3823 C   0  0  0  0  0  0  0  0  0  0  0  0
   12.7323   16.7952   21.5384 C   0  0  0  0  0  0  0  0  0  0  0  0
   11.4296   16.3282   21.2856 C   0  0  0  0  0  0  0  0  0  0  0  0
   10.9087   15.2491   22.0070 C   0  0  0  0  0  0  0  0  0  0  0  0
   10.5534   16.9082   20.2249 C   0  0  0  0  0  0  0  0  0  0  0  0
   10.2049   18.3328   20.5602 C   0  0  0  0  0  0  0  0  0  0  0  0
   11.3704   19.3195   20.6682 C   0  0  0  0  0  0  0  0  0  0  0  0
   12.6590   18.8124   20.0502 C   0  0  0  0  0  0  0  0  0  0  0  0
   13.3480   17.8744   20.9205 N   0  0  0  0  0  0  0  0  0  0  0  0
   14.3093   18.0130   21.0813 H   0  0  0  0  0  0  0  0  0  0  0  0
    7.1763   11.3036   26.0155 C   0  0  0  0  0  0  0  0  0  0  0  0
    7.9852   10.6430   25.1044 C   0  0  0  0  0  0  0  0  0  0  0  0
    8.8092   11.3820   24.2627 C   0  0  0  0  0  0  0  0  0  0  0  0
    8.7503   12.7610   24.3408 C   0  0  0  0  0  0  0  0  0  0  0  0
    7.8488   13.4199   25.0768 N   0  0  0  0  0  0  0  0  0  0  0  0
    7.0892   12.6796   25.9028 C   0  0  0  0  0  0  0  0  0  0  0  0
    6.0386   11.2812   28.0570 C   0  0  0  0  0  0  0  0  0  0  0  0
    6.5276   10.5475   26.9389 O   0  0  0  0  0  0  0  0  0  0  0  0
 23 24  1  0  0  0
 24 17  1  0  0  0
 17 18  2  0  0  0
 18 19  1  0  0  0
 19 20  2  0  0  0
 20  1  1  0  0  0
  1  2  1  0  0  0
  2  3  2  0  0  0
  2  5  1  0  0  0
  5  6  2  0  0  0
  6  7  1  0  0  0
  7  8  2  0  0  0
  8  9  1  0  0  0
  9 10  2  0  0  0
  9 11  1  0  0  0
 11 12  1  0  0  0
 12 13  1  0  0  0
 13 14  1  0  0  0
 14 15  1  0  0  0
 20 21  1  0  0  0
 21 22  2  0  0  0
 22 17  1  0  0  0
 10  5  1  0  0  0
 15  8  1  0  0  0
  1  4  1  0  0  0
 15 16  1  0  0  0
M  END
> <minimizedAffinity>
-8.12592

> <minimizedRMSD>
1.37332

$$$$
C1800-P190


 17 19  0  0  0  0  0  0  0  0999 V2000
    8.4342   14.6200   24.5903 C   0  0  0  0  0  0  0  0  0  0  0  0
    7.7541   13.6405   25.2102 N   0  0  0  0  0  0  0  0  0  0  0  0
    7.9686   12.3738   24.7896 C   0  0  0  0  0  0  0  0  0  0  0  0
    8.9171   12.0459   23.8330 C   0  0  0  0  0  0  0  0  0  0  0  0
    9.6124   13.0993   23.2153 C   0  0  0  0  0  0  0  0  0  0  0  0
    9.3351   14.4229   23.5514 C   0  0  0  0  0  0  0  0  0  0  0  0
    9.2650   10.6210   23.5286 C   0  0  0  0  0  0  0  0  0  0  0  0
    8.2485    9.5695   23.9282 C   0  0  0  0  0  0  0  0  0  0  0  0
    7.2679    9.9201   25.0267 C   0  0  0  0  0  0  0  0  0  0  0  0
    7.0895   11.3638   25.4340 C   0  0  0  0  0  0  0  0  0  0  0  0
    9.8942   15.6490   22.8625 C   0  0  0  0  0  0  0  0  0  0  0  0
   11.0239   16.2935   23.6730 C   0  0  0  0  0  0  0  0  0  0  0  0
   12.3979   15.8113   23.2574 C   0  0  0  0  0  0  0  0  0  0  0  0
   12.5951   16.0054   21.8283 N   0  0  0  0  0  0  0  0  0  0  0  0
   11.6825   15.1517   21.0741 C   0  0  0  0  0  0  0  0  0  0  0  0
   10.2272   15.4994   21.3660 C   0  0  0  0  0  0  0  0  0  0  0  0
   13.5570   15.7682   21.5854 H   0  0  0  0  0  0  0  0  0  0  0  0
  1  2  2  0  0  0
  2  3  1  0  0  0
  3  4  2  0  0  0
  4  5  1  0  0  0
  5  6  2  0  0  0
  6 11  1  0  0  0
 11 12  1  0  0  0
 12 13  1  0  0  0
 13 14  1  0  0  0
 14 15  1  0  0  0
 15 16  1  0  0  0
  4  7  1  0  0  0
  7  8  1  0  0  0
  8  9  1  0  0  0
  9 10  1  0  0  0
  6  1  1  0  0  0
 16 11  1  0  0  0
 10  3  1  0  0  0
 14 17  1  0  0  0
M  END
> <minimizedAffinity>
-6.02245

> <minimizedRMSD>
0.32763

$$$$
C1814-P190


 17 19  0  0  0  0  0  0  0  0999 V2000
    8.2799   14.7728   24.3465 C   0  0  0  0  0  0  0  0  0  0  0  0
    7.6413   13.8161   25.0422 N   0  0  0  0  0  0  0  0  0  0  0  0
    7.8715   12.5318   24.6878 C   0  0  0  0  0  0  0  0  0  0  0  0
    8.7898   12.1690   23.7131 C   0  0  0  0  0  0  0  0  0  0  0  0
    9.4303   13.2008   23.0013 C   0  0  0  0  0  0  0  0  0  0  0  0
    9.1422   14.5371   23.2846 C   0  0  0  0  0  0  0  0  0  0  0  0
    9.1684   10.7358   23.4970 C   0  0  0  0  0  0  0  0  0  0  0  0
    8.2162    9.6793   24.0268 C   0  0  0  0  0  0  0  0  0  0  0  0
    7.2674   10.0788   25.1355 C   0  0  0  0  0  0  0  0  0  0  0  0
    7.0329   11.5442   25.4174 C   0  0  0  0  0  0  0  0  0  0  0  0
    9.6545   15.7341   22.5098 C   0  0  0  0  0  0  0  0  0  0  0  0
   11.0029   16.2437   23.0334 C   0  0  0  0  0  0  0  0  0  0  0  0
   12.1889   15.6780   22.2732 C   0  0  0  0  0  0  0  0  0  0  0  0
   11.9921   15.8000   20.7676 C   0  0  0  0  0  0  0  0  0  0  0  0
   10.8149   15.0377   20.3726 N   0  0  0  0  0  0  0  0  0  0  0  0
    9.6035   15.5914   20.9717 C   0  0  0  0  0  0  0  0  0  0  0  0
   10.9260   14.0711   20.6787 H   0  0  0  0  0  0  0  0  0  0  0  0
  1  2  2  0  0  0
  2  3  1  0  0  0
  3  4  2  0  0  0
  4  5  1  0  0  0
  5  6  2  0  0  0
 11  6  1  0  0  0
 11 12  1  0  0  0
 12 13  1  0  0  0
 13 14  1  0  0  0
 14 15  1  0  0  0
 15 16  1  0  0  0
  4  7  1  0  0  0
  7  8  1  0  0  0
  8  9  1  0  0  0
  9 10  1  0  0  0
  6  1  1  0  0  0
 16 11  1  0  0  0
 10  3  1  0  0  0
 15 17  1  0  0  0
M  END
> <minimizedAffinity>
-6.21860

> <minimizedRMSD>
0.54501

$$$$
C1820-P190


 12 13  0  0  0  0  0  0  0  0999 V2000
    7.9385   11.9391   24.1289 C   0  0  0  0  0  0  0  0  0  0  0  0
    9.3668   11.5145   23.7903 C   0  0  0  0  0  0  0  0  0  0  0  0
    9.4790   10.0368   23.4120 C   0  0  0  0  0  0  0  0  0  0  0  0
    8.2637    9.1857   23.7394 C   0  0  0  0  0  0  0  0  0  0  0  0
    7.5683    9.5531   24.9600 N   0  0  0  0  0  0  0  0  0  0  0  0
    7.2630   10.9674   25.1105 C   0  0  0  0  0  0  0  0  0  0  0  0
    8.1505    9.2724   25.7491 H   0  0  0  0  0  0  0  0  0  0  0  0
    8.8599   14.1689   25.1929 C   0  0  0  0  0  0  0  0  0  0  0  0
    8.5427   15.3956   25.5954 N   0  0  0  0  0  0  0  0  0  0  0  0
    6.9406   15.6547   25.2640 S   0  0  0  0  0  0  0  0  0  0  0  0
    6.6505   14.1079   24.5968 C   0  0  0  0  0  0  0  0  0  0  0  0
    7.8207   13.3646   24.6176 C   0  0  0  0  0  0  0  0  0  0  0  0
  8  9  2  0  0  0
  9 10  1  0  0  0
 10 11  1  0  0  0
 11 12  2  0  0  0
  1 12  1  0  0  0
  1  2  1  0  0  0
  2  3  1  0  0  0
  3  4  1  0  0  0
  4  5  1  0  0  0
  5  6  1  0  0  0
 12  8  1  0  0  0
  6  1  1  0  0  0
  5  7  1  0  0  0
M  END
> <minimizedAffinity>
-3.60449

> <minimizedRMSD>
0.44425

$$$$
C3508-P535


 26 28  0  0  0  0  0  0  0  0999 V2000
    2.8521   13.6433    2.7007 C   0  0  0  0  0  0  0  0  0  0  0  0
    2.3457   14.7870    4.9364 C   0  0  0  0  0  0  0  0  0  0  0  0
    2.2991   14.9230    3.4051 C   0  0  0  0  0  0  0  0  0  0  0  0
    3.1123   16.1831    2.9985 C   0  0  0  0  0  0  0  0  0  0  0  0
    0.8358   15.1651    2.9773 C   0  0  0  0  0  0  0  0  0  0  0  0
    4.1544   13.3462    3.2601 N   0  0  0  0  0  0  0  0  0  0  0  0
    5.5374   13.3691    2.6188 C   0  0  0  0  0  0  0  0  0  0  0  0
    5.8539   13.5552    1.5171 O   0  0  0  0  0  0  0  0  0  0  0  0
    4.1452   13.0870    4.2098 H   0  0  0  0  0  0  0  0  0  0  0  0
    6.4975   13.2080    3.6791 C   0  0  0  0  0  0  0  0  0  0  0  0
    6.6744   14.0759    4.7652 C   0  0  0  0  0  0  0  0  0  0  0  0
    7.4512   13.5428    5.7064 N   0  0  0  0  0  0  0  0  0  0  0  0
    7.8883   12.3359    5.1810 O   0  0  0  0  0  0  0  0  0  0  0  0
    7.3165   12.1356    3.9631 C   0  0  0  0  0  0  0  0  0  0  0  0
    7.4950   10.8336    3.1286 C   0  0  0  0  0  0  0  0  0  0  0  0
    8.7452   10.0101    3.2643 C   0  0  0  0  0  0  0  0  0  0  0  0
    8.5106   10.7986    2.0128 C   0  0  0  0  0  0  0  0  0  0  0  0
    1.9304   12.4057    2.7638 C   0  0  0  0  0  0  0  0  0  0  0  0
    2.5792   11.2046    2.2890 N   0  0  0  0  0  0  0  0  0  0  0  0
    3.2310   10.8885    0.9251 C   0  0  0  0  0  0  0  0  0  0  0  0
    3.2789   11.5221   -0.0571 O   0  0  0  0  0  0  0  0  0  0  0  0
    2.6107   10.4679    2.9413 H   0  0  0  0  0  0  0  0  0  0  0  0
    3.8767    9.4683    0.9665 C   0  0  0  0  0  0  0  0  0  0  0  0
    4.2619    8.8324    2.3271 C   0  0  0  0  0  0  0  0  0  0  0  0
    5.4628    8.1798    1.6158 C   0  0  0  0  0  0  0  0  0  0  0  0
    5.3543    9.2759    0.5384 C   0  0  0  0  0  0  0  0  0  0  0  0
  2  3  1  0  0  0
  3  4  1  0  0  0
  3  5  1  0  0  0
  3  1  1  0  0  0
  1 18  1  0  0  0
 18 19  1  0  0  0
 19 20  1  0  0  0
 20 21  2  0  0  0
 20 23  1  0  0  0
 23 24  1  0  0  0
 24 25  1  0  0  0
 25 26  1  0  0  0
  1  6  1  0  0  0
  6  7  1  0  0  0
  7  8  2  0  0  0
  7 10  1  0  0  0
 10 11  1  0  0  0
 11 12  2  0  0  0
 12 13  1  0  0  0
 13 14  1  0  0  0
 14 15  1  0  0  0
 15 16  1  0  0  0
 16 17  1  0  0  0
 26 23  1  0  0  0
 14 10  2  0  0  0
 17 15  1  0  0  0
 19 22  1  0  0  0
  6  9  1  0  0  0
M  END
> <minimizedAffinity>
-3.52468

> <minimizedRMSD>
5.10398

$$$$
C1360-P303


 22 23  0  0  0  0  0  0  0  0999 V2000
    9.9280   13.8142   25.1436 C   0  0  0  0  0  0  0  0  0  0  0  0
    8.7102   13.1498   24.5049 C   0  0  0  0  0  0  0  0  0  0  0  0
    7.6901   12.7326   25.5607 C   0  0  0  0  0  0  0  0  0  0  0  0
    7.4947   11.3469   25.7492 C   0  0  0  0  0  0  0  0  0  0  0  0
    6.6261   10.8597   26.7256 C   0  0  0  0  0  0  0  0  0  0  0  0
    5.9527   11.7367   27.5584 C   0  0  0  0  0  0  0  0  0  0  0  0
    6.1062   13.1055   27.3741 C   0  0  0  0  0  0  0  0  0  0  0  0
    6.9524   13.6258   26.3714 C   0  0  0  0  0  0  0  0  0  0  0  0
    6.9971   15.1304   26.2169 C   0  0  0  0  0  0  0  0  0  0  0  0
    6.1180   15.7764   27.0352 F   0  0  0  0  0  0  0  0  0  0  0  0
    8.2286   15.5988   26.5718 F   0  0  0  0  0  0  0  0  0  0  0  0
    6.7473   15.5758   24.9648 F   0  0  0  0  0  0  0  0  0  0  0  0
    8.1461   13.7441   23.1939 C   0  0  0  0  0  0  0  0  0  0  0  0
    7.2807   13.1951   22.6516 O   0  0  0  0  0  0  0  0  0  0  0  0
    8.9462   14.9672   22.7840 N   0  0  0  0  0  0  0  0  0  0  0  0
    9.5846   15.2876   23.4615 H   0  0  0  0  0  0  0  0  0  0  0  0
    8.9252   15.7032   21.6175 O   0  0  0  0  0  0  0  0  0  0  0  0
    9.7568   14.9778   20.7293 C   0  0  0  0  0  0  0  0  0  0  0  0
    9.8183   15.5866   19.3491 C   0  0  0  0  0  0  0  0  0  0  0  0
   11.0206   14.8850   18.7539 C   0  0  0  0  0  0  0  0  0  0  0  0
   11.9697   14.6305   19.9285 C   0  0  0  0  0  0  0  0  0  0  0  0
   11.2111   14.9788   21.1811 C   0  0  0  0  0  0  0  0  0  0  0  0
  2  1  1  0  0  0
  2 13  1  0  0  0
 13 14  2  0  0  0
 13 15  1  0  0  0
 15 17  1  0  0  0
 17 18  1  0  0  0
 18 19  1  0  0  0
 19 20  1  0  0  0
 20 21  1  0  0  0
 21 22  1  0  0  0
  2  3  1  0  0  0
  3  4  2  0  0  0
  4  5  1  0  0  0
  5  6  2  0  0  0
  6  7  1  0  0  0
  7  8  2  0  0  0
  8  9  1  0  0  0
  9 10  1  0  0  0
  9 11  1  0  0  0
  9 12  1  0  0  0
 22 18  1  0  0  0
  8  3  1  0  0  0
 15 16  1  0  0  0
M  END
> <minimizedAffinity>
-5.93333

> <minimizedRMSD>
0.96132

$$$$
C2086-P296


 17 19  0  0  0  0  0  0  0  0999 V2000
    8.9386   14.5638   23.2588 C   0  0  0  0  0  0  0  0  0  0  0  0
    9.3420   13.3133   23.1046 N   0  0  0  0  0  0  0  0  0  0  0  0
    8.6450   12.5867   24.0238 C   0  0  0  0  0  0  0  0  0  0  0  0
    7.8373   13.3987   24.7772 C   0  0  0  0  0  0  0  0  0  0  0  0
    7.9504   14.6358   24.2203 N   0  0  0  0  0  0  0  0  0  0  0  0
    7.0000   12.9991   25.9224 C   0  0  0  0  0  0  0  0  0  0  0  0
    6.7161   11.4975   25.8269 C   0  0  0  0  0  0  0  0  0  0  0  0
    7.9190   10.6424   25.3945 C   0  0  0  0  0  0  0  0  0  0  0  0
    8.7374   11.1244   24.1863 C   0  0  0  0  0  0  0  0  0  0  0  0
    7.4250   15.4336   24.4588 H   0  0  0  0  0  0  0  0  0  0  0  0
   10.9575   15.4838   20.1462 C   0  0  0  0  0  0  0  0  0  0  0  0
   11.5882   14.9826   21.4339 C   0  0  0  0  0  0  0  0  0  0  0  0
   11.0405   15.7658   22.6180 C   0  0  0  0  0  0  0  0  0  0  0  0
    9.5066   15.8198   22.6504 C   0  0  0  0  0  0  0  0  0  0  0  0
    8.9074   16.2092   21.3711 N   0  0  0  0  0  0  0  0  0  0  0  0
    9.4381   15.4375   20.2419 C   0  0  0  0  0  0  0  0  0  0  0  0
    9.0971   17.1982   21.2089 H   0  0  0  0  0  0  0  0  0  0  0  0
 11 12  1  0  0  0
 12 13  1  0  0  0
 13 14  1  0  0  0
 14  1  1  0  0  0
  1  2  2  0  0  0
  2  3  1  0  0  0
  3  4  2  0  0  0
  4  5  1  0  0  0
  4  6  1  0  0  0
  6  7  1  0  0  0
  7  8  1  0  0  0
  8  9  1  0  0  0
 14 15  1  0  0  0
 15 16  1  0  0  0
 16 11  1  0  0  0
  5  1  1  0  0  0
  9  3  1  0  0  0
  5 10  1  0  0  0
 15 17  1  0  0  0
M  END
> <minimizedAffinity>
-5.46698

> <minimizedRMSD>
0.84513

$$$$
C3758-P497


 13 14  0  0  0  0  0  0  0  0999 V2000
    8.8280   13.4908   24.5096 C   0  0  0  0  0  0  0  0  0  0  0  0
   10.1745   13.9952   23.9587 C   0  0  0  0  0  0  0  0  0  0  0  0
   10.2759   15.5189   24.0320 C   0  0  0  0  0  0  0  0  0  0  0  0
    9.9266   16.0243   25.4278 C   0  0  0  0  0  0  0  0  0  0  0  0
    8.5932   15.4530   25.8990 C   0  0  0  0  0  0  0  0  0  0  0  0
    8.6219   13.9901   25.8805 N   0  0  0  0  0  0  0  0  0  0  0  0
    7.7354   13.6332   26.2371 H   0  0  0  0  0  0  0  0  0  0  0  0
    8.9156    9.7970   24.4058 C   0  0  0  0  0  0  0  0  0  0  0  0
    9.5363   10.9970   24.0122 C   0  0  0  0  0  0  0  0  0  0  0  0
    8.7505   12.0002   24.5390 C   0  0  0  0  0  0  0  0  0  0  0  0
    7.6961   11.3525   25.1290 N   0  0  0  0  0  0  0  0  0  0  0  0
    7.8107   10.0132   25.1264 N   0  0  0  0  0  0  0  0  0  0  0  0
    6.9254   11.8250   25.5189 H   0  0  0  0  0  0  0  0  0  0  0  0
  8  9  1  0  0  0
  9 10  2  0  0  0
  1 10  1  0  0  0
  1  2  1  0  0  0
  2  3  1  0  0  0
  3  4  1  0  0  0
  4  5  1  0  0  0
  5  6  1  0  0  0
 10 11  1  0  0  0
 11 12  1  0  0  0
 12  8  2  0  0  0
  6  1  1  0  0  0
  6  7  1  0  0  0
 11 13  1  0  0  0
M  END
> <minimizedAffinity>
-3.64481

> <minimizedRMSD>
0.20628

$$$$
C16020-P135


 19 19  0  0  0  0  0  0  0  0999 V2000
   11.7897   14.3275   22.1113 C   0  0  0  0  0  0  0  0  0  0  0  0
   11.2171   15.1725   22.6699 O   0  0  0  0  0  0  0  0  0  0  0  0
   12.5345   14.3486   20.7605 N   0  0  0  0  0  0  0  0  0  0  0  0
   12.8772   13.4742   20.4650 H   0  0  0  0  0  0  0  0  0  0  0  0
   12.7995   15.3978   19.8958 C   0  0  0  0  0  0  0  0  0  0  0  0
   12.5086   15.2901   18.5494 C   0  0  0  0  0  0  0  0  0  0  0  0
   12.8249   16.3495   17.7034 C   0  0  0  0  0  0  0  0  0  0  0  0
   13.4265   17.4751   18.2434 C   0  0  0  0  0  0  0  0  0  0  0  0
   13.6971   17.6291   19.5539 N   0  0  0  0  0  0  0  0  0  0  0  0
   13.3603   16.5852   20.3511 C   0  0  0  0  0  0  0  0  0  0  0  0
   11.9635   12.9475   22.6939 C   0  0  0  0  0  0  0  0  0  0  0  0
   11.2587   12.8042   24.0393 C   0  0  0  0  0  0  0  0  0  0  0  0
    9.7511   13.0271   23.9163 C   0  0  0  0  0  0  0  0  0  0  0  0
    9.0083   12.8985   25.2374 C   0  0  0  0  0  0  0  0  0  0  0  0
    8.7762   11.4761   25.7161 C   0  0  0  0  0  0  0  0  0  0  0  0
    9.1640    9.6689   23.9482 C   0  0  0  0  0  0  0  0  0  0  0  0
    8.1636   10.5778   24.6575 C   0  0  0  0  0  0  0  0  0  0  0  0
    7.1777    9.7448   25.2522 O   0  0  0  0  0  0  0  0  0  0  0  0
    7.5969    9.1643   25.9065 H   0  0  0  0  0  0  0  0  0  0  0  0
 17 16  1  0  0  0
 17 18  1  0  0  0
 17 15  1  0  0  0
 15 14  1  0  0  0
 14 13  1  0  0  0
 13 12  1  0  0  0
 12 11  1  0  0  0
 11  1  1  0  0  0
  1  2  2  0  0  0
  1  3  1  0  0  0
  3  5  1  0  0  0
  5  6  2  0  0  0
  6  7  1  0  0  0
  7  8  2  0  0  0
  8  9  1  0  0  0
  9 10  2  0  0  0
 10  5  1  0  0  0
 18 19  1  0  0  0
  3  4  1  0  0  0
M  END
> <minimizedAffinity>
-5.25652

> <minimizedRMSD>
0.48064

$$$$
C1783-P444


 16 18  0  0  0  0  0  0  0  0999 V2000
    7.8632   13.8428   24.8754 C   0  0  0  0  0  0  0  0  0  0  0  0
    7.9049   14.4902   26.0274 N   0  0  0  0  0  0  0  0  0  0  0  0
    7.2156   15.6793   25.9158 C   0  0  0  0  0  0  0  0  0  0  0  0
    6.7058   15.9398   24.6594 C   0  0  0  0  0  0  0  0  0  0  0  0
    7.1365   14.6950   23.5749 S   0  0  0  0  0  0  0  0  0  0  0  0
    5.8768   17.0966   24.2398 C   0  0  0  0  0  0  0  0  0  0  0  0
    4.9557   17.7779   25.6683 S   0  0  0  0  0  0  0  0  0  0  0  0
    6.3677   17.8857   26.8245 C   0  0  0  0  0  0  0  0  0  0  0  0
    6.9726   16.5134   27.1320 C   0  0  0  0  0  0  0  0  0  0  0  0
    8.6135    9.6132   24.1025 C   0  0  0  0  0  0  0  0  0  0  0  0
    9.7256   10.6253   23.8333 C   0  0  0  0  0  0  0  0  0  0  0  0
    9.2402   12.0646   23.6435 C   0  0  0  0  0  0  0  0  0  0  0  0
    8.2692   12.4011   24.7520 C   0  0  0  0  0  0  0  0  0  0  0  0
    7.0927   11.5151   24.6565 N   0  0  0  0  0  0  0  0  0  0  0  0
    7.4733   10.1428   24.9626 C   0  0  0  0  0  0  0  0  0  0  0  0
    6.7145   11.5573   23.7102 H   0  0  0  0  0  0  0  0  0  0  0  0
 10 11  1  0  0  0
 11 12  1  0  0  0
 12 13  1  0  0  0
 13  1  1  0  0  0
  1  2  2  0  0  0
  2  3  1  0  0  0
  3  4  2  0  0  0
  4  5  1  0  0  0
  4  6  1  0  0  0
  6  7  1  0  0  0
  7  8  1  0  0  0
  8  9  1  0  0  0
 13 14  1  0  0  0
 14 15  1  0  0  0
 15 10  1  0  0  0
  5  1  1  0  0  0
  9  3  1  0  0  0
 14 16  1  0  0  0
M  END
> <minimizedAffinity>
-4.45006

> <minimizedRMSD>
0.41749

$$$$
C1795-P444


 15 17  0  0  0  0  0  0  0  0999 V2000
    8.5479   14.3809   23.1895 C   0  0  0  0  0  0  0  0  0  0  0  0
    8.5657   13.2824   23.9268 N   0  0  0  0  0  0  0  0  0  0  0  0
    7.3518   13.0868   24.5505 C   0  0  0  0  0  0  0  0  0  0  0  0
    6.4278   14.0860   24.3596 C   0  0  0  0  0  0  0  0  0  0  0  0
    7.0004   15.1795   23.2000 S   0  0  0  0  0  0  0  0  0  0  0  0
    5.0885   14.1703   25.0085 C   0  0  0  0  0  0  0  0  0  0  0  0
    4.9408   13.0830   26.0919 C   0  0  0  0  0  0  0  0  0  0  0  0
    5.5916   11.7436   25.6989 C   0  0  0  0  0  0  0  0  0  0  0  0
    7.0936   11.9093   25.4233 C   0  0  0  0  0  0  0  0  0  0  0  0
   11.9909   16.1698   21.4215 C   0  0  0  0  0  0  0  0  0  0  0  0
   12.1041   14.9297   22.2960 C   0  0  0  0  0  0  0  0  0  0  0  0
   10.9073   14.7889   23.2303 C   0  0  0  0  0  0  0  0  0  0  0  0
    9.6390   14.8401   22.4917 N   0  0  0  0  0  0  0  0  0  0  0  0
    9.4880   15.9947   21.5916 C   0  0  0  0  0  0  0  0  0  0  0  0
   10.6815   16.1354   20.6516 C   0  0  0  0  0  0  0  0  0  0  0  0
 10 11  1  0  0  0
 11 12  1  0  0  0
 12 13  1  0  0  0
 13  1  1  0  0  0
  1  2  2  0  0  0
  2  3  1  0  0  0
  3  4  2  0  0  0
  4  5  1  0  0  0
  4  6  1  0  0  0
  6  7  1  0  0  0
  7  8  1  0  0  0
  8  9  1  0  0  0
 13 14  1  0  0  0
 14 15  1  0  0  0
 15 10  1  0  0  0
  5  1  1  0  0  0
  9  3  1  0  0  0
M  END
> <minimizedAffinity>
-5.28441

> <minimizedRMSD>
0.69605

$$$$
C31081-P273


 17 17  0  0  0  0  0  0  0  0999 V2000
    8.7911   13.2370   23.1686 C   0  0  0  0  0  0  0  0  0  0  0  0
    9.5657   12.4029   22.9207 O   0  0  0  0  0  0  0  0  0  0  0  0
    8.9470   14.7745   23.1891 N   0  0  0  0  0  0  0  0  0  0  0  0
    8.1555   15.2651   23.5085 H   0  0  0  0  0  0  0  0  0  0  0  0
   10.0058   15.5639   22.8354 N   0  0  0  0  0  0  0  0  0  0  0  0
   10.0198   15.9322   21.4235 C   0  0  0  0  0  0  0  0  0  0  0  0
   11.2935   15.5255   20.7075 C   0  0  0  0  0  0  0  0  0  0  0  0
   12.4886   15.8971   21.5640 C   0  0  0  0  0  0  0  0  0  0  0  0
   12.4231   15.1481   22.8721 C   0  0  0  0  0  0  0  0  0  0  0  0
   11.1419   15.3823   23.6253 C   0  0  0  0  0  0  0  0  0  0  0  0
   11.1117   15.2541   24.8528 O   0  0  0  0  0  0  0  0  0  0  0  0
    7.3394   12.9320   23.5024 C   0  0  0  0  0  0  0  0  0  0  0  0
    7.0677   13.3566   24.9472 C   0  0  0  0  0  0  0  0  0  0  0  0
    7.1801   10.7859   25.6153 C   0  0  0  0  0  0  0  0  0  0  0  0
    6.8473   12.2165   25.9577 C   0  0  0  0  0  0  0  0  0  0  0  0
    5.6566   14.5195   25.1812 S   0  0  0  0  0  0  0  0  0  0  0  0
    5.3111   15.1064   23.5243 C   0  0  0  0  0  0  0  0  0  0  0  0
 14 15  1  0  0  0
 13 15  1  0  0  0
 13 12  1  0  0  0
 12  1  1  0  0  0
  1  2  2  0  0  0
  1  3  1  0  0  0
  3  5  1  0  0  0
  5  6  1  0  0  0
  6  7  1  0  0  0
  7  8  1  0  0  0
  8  9  1  0  0  0
  9 10  1  0  0  0
 10 11  2  0  0  0
 13 16  1  0  0  0
 16 17  1  0  0  0
 10  5  1  0  0  0
  3  4  1  0  0  0
M  END
> <minimizedAffinity>
-4.68692

> <minimizedRMSD>
2.07969

$$$$
C8153-P611


 17 17  0  0  0  0  0  0  0  0999 V2000
    9.5064   13.5021   24.4440 C   0  0  0  0  0  0  0  0  0  0  0  0
   10.1324   13.9651   25.4025 O   0  0  0  0  0  0  0  0  0  0  0  0
    8.3972   12.4419   24.6313 C   0  0  0  0  0  0  0  0  0  0  0  0
    8.9062   11.0125   24.5734 C   0  0  0  0  0  0  0  0  0  0  0  0
    7.7788   10.0127   24.7695 C   0  0  0  0  0  0  0  0  0  0  0  0
    6.7563   10.3712   25.8385 C   0  0  0  0  0  0  0  0  0  0  0  0
    6.4690   11.8638   25.9350 C   0  0  0  0  0  0  0  0  0  0  0  0
    7.7051   12.6409   25.9259 N   0  0  0  0  0  0  0  0  0  0  0  0
    8.3090   12.3298   26.6868 H   0  0  0  0  0  0  0  0  0  0  0  0
    9.7140   14.0590   23.0148 C   0  0  0  0  0  0  0  0  0  0  0  0
    8.3283   14.2653   22.3874 C   0  0  0  0  0  0  0  0  0  0  0  0
   10.4793   13.1559   22.2219 O   0  0  0  0  0  0  0  0  0  0  0  0
   10.5961   13.5254   21.3327 H   0  0  0  0  0  0  0  0  0  0  0  0
   10.3453   15.4627   22.9801 C   0  0  0  0  0  0  0  0  0  0  0  0
   11.8327   15.5066   22.6686 C   0  0  0  0  0  0  0  0  0  0  0  0
   11.8701   15.5753   20.1038 C   0  0  0  0  0  0  0  0  0  0  0  0
   12.1652   16.0667   21.3160 C   0  0  0  0  0  0  0  0  0  0  0  0
 16 17  2  0  0  0
 17 15  1  0  0  0
 15 14  1  0  0  0
 14 10  1  0  0  0
 10 11  1  0  0  0
 10 12  1  0  0  0
 10  1  1  0  0  0
  1  2  2  0  0  0
  3  1  1  0  0  0
  3  4  1  0  0  0
  4  5  1  0  0  0
  5  6  1  0  0  0
  6  7  1  0  0  0
  7  8  1  0  0  0
  8  3  1  0  0  0
 12 13  1  0  0  0
  8  9  1  0  0  0
M  END
> <minimizedAffinity>
-5.13167

> <minimizedRMSD>
1.42906

$$$$
C8173-P611


 19 19  0  0  0  0  0  0  0  0999 V2000
    7.4985   13.3650   22.7273 O   0  0  0  0  0  0  0  0  0  0  0  0
    8.3750   13.8245   23.3479 C   0  0  0  0  0  0  0  0  0  0  0  0
    9.3301   15.0097   23.0194 N   0  0  0  0  0  0  0  0  0  0  0  0
    9.9457   15.2571   23.7468 H   0  0  0  0  0  0  0  0  0  0  0  0
    8.8998   13.2673   24.6866 C   0  0  0  0  0  0  0  0  0  0  0  0
    8.6155   14.1181   25.7195 F   0  0  0  0  0  0  0  0  0  0  0  0
    8.4875   11.8585   25.0997 C   0  0  0  0  0  0  0  0  0  0  0  0
    8.7699   10.7991   24.0371 C   0  0  0  0  0  0  0  0  0  0  0  0
    8.3255    9.4231   24.5041 C   0  0  0  0  0  0  0  0  0  0  0  0
    6.9632    9.3642   24.9985 N   0  0  0  0  0  0  0  0  0  0  0  0
    6.6723   10.3622   26.0202 C   0  0  0  0  0  0  0  0  0  0  0  0
    7.0447   11.7820   25.5952 C   0  0  0  0  0  0  0  0  0  0  0  0
    6.8039    8.4386   25.3965 H   0  0  0  0  0  0  0  0  0  0  0  0
    9.4591   15.8045   21.8212 C   0  0  0  0  0  0  0  0  0  0  0  0
   10.6924   15.3629   21.0540 C   0  0  0  0  0  0  0  0  0  0  0  0
   10.7119   15.9156   19.6541 C   0  0  0  0  0  0  0  0  0  0  0  0
    9.8254   15.3111   18.8508 F   0  0  0  0  0  0  0  0  0  0  0  0
   10.4551   17.2372   19.6502 F   0  0  0  0  0  0  0  0  0  0  0  0
   11.9253   15.7119   19.1031 F   0  0  0  0  0  0  0  0  0  0  0  0
  1  2  2  0  0  0
  2  3  1  0  0  0
  3 14  1  0  0  0
 14 15  1  0  0  0
 15 16  1  0  0  0
 16 17  1  0  0  0
 16 18  1  0  0  0
 16 19  1  0  0  0
  2  5  1  0  0  0
  5  6  1  0  0  0
  5  7  1  0  0  0
  7  8  1  0  0  0
  8  9  1  0  0  0
  9 10  1  0  0  0
 10 11  1  0  0  0
 11 12  1  0  0  0
 12  7  1  0  0  0
  3  4  1  0  0  0
 10 13  1  0  0  0
M  END
> <minimizedAffinity>
-5.74288

> <minimizedRMSD>
0.88121

$$$$
C8137-P325


 20 20  0  0  0  0  0  0  0  0999 V2000
    8.7141   14.7194   24.0991 N   0  0  0  0  0  0  0  0  0  0  0  0
    8.9313   15.6137   24.5391 H   0  0  0  0  0  0  0  0  0  0  0  0
    8.0997   15.0490   22.5670 S   0  0  0  0  0  0  0  0  0  0  0  0
    7.5579   13.8439   21.9876 O   0  0  0  0  0  0  0  0  0  0  0  0
    7.2836   16.2283   22.7127 O   0  0  0  0  0  0  0  0  0  0  0  0
    9.5576   15.4182   21.8549 N   0  0  0  0  0  0  0  0  0  0  0  0
    9.7460   16.6825   21.1559 C   0  0  0  0  0  0  0  0  0  0  0  0
   10.7218   14.5226   21.9608 C   0  0  0  0  0  0  0  0  0  0  0  0
   11.8841   15.0187   22.8334 C   0  0  0  0  0  0  0  0  0  0  0  0
   11.8559   14.5494   25.3591 C   0  0  0  0  0  0  0  0  0  0  0  0
   12.3108   14.1059   23.9860 C   0  0  0  0  0  0  0  0  0  0  0  0
    7.8609   13.9682   25.0300 C   0  0  0  0  0  0  0  0  0  0  0  0
    7.8585   14.7085   26.3757 C   0  0  0  0  0  0  0  0  0  0  0  0
    8.3556   12.5124   25.2435 C   0  0  0  0  0  0  0  0  0  0  0  0
    7.1198   11.6119   25.3274 C   0  0  0  0  0  0  0  0  0  0  0  0
    7.4696   10.1442   25.3871 C   0  0  0  0  0  0  0  0  0  0  0  0
    8.3826    9.6894   24.3566 N   0  0  0  0  0  0  0  0  0  0  0  0
    9.6098   10.4678   24.3530 C   0  0  0  0  0  0  0  0  0  0  0  0
    9.3167   11.9487   24.1914 C   0  0  0  0  0  0  0  0  0  0  0  0
    7.9290    9.7811   23.4476 H   0  0  0  0  0  0  0  0  0  0  0  0
 10 11  1  0  0  0
 11  9  1  0  0  0
  9  8  1  0  0  0
  8  6  1  0  0  0
  6  7  1  0  0  0
  6  3  1  0  0  0
  3  4  2  0  0  0
  3  5  2  0  0  0
  3  1  1  0  0  0
  1 12  1  0  0  0
 12 13  1  0  0  0
 12 14  1  0  0  0
 14 15  1  0  0  0
 15 16  1  0  0  0
 16 17  1  0  0  0
 17 18  1  0  0  0
 18 19  1  0  0  0
 19 14  1  0  0  0
  1  2  1  0  0  0
 17 20  1  0  0  0
M  END
> <minimizedAffinity>
-4.84276

> <minimizedRMSD>
1.07562

$$$$
C8152-P325


 15 15  0  0  0  0  0  0  0  0999 V2000
    9.1041   13.4516   24.6238 C   0  0  0  0  0  0  0  0  0  0  0  0
    8.4841   14.3921   25.5119 O   0  0  0  0  0  0  0  0  0  0  0  0
    7.6022   14.6192   25.1780 H   0  0  0  0  0  0  0  0  0  0  0  0
    8.2546   12.1768   24.5592 C   0  0  0  0  0  0  0  0  0  0  0  0
    7.1837   12.0625   25.1493 O   0  0  0  0  0  0  0  0  0  0  0  0
    8.7077   11.1641   23.7826 O   0  0  0  0  0  0  0  0  0  0  0  0
    9.3753    8.8854   23.7059 C   0  0  0  0  0  0  0  0  0  0  0  0
    9.7220   10.2594   24.2402 C   0  0  0  0  0  0  0  0  0  0  0  0
    9.2661   14.0774   23.2177 C   0  0  0  0  0  0  0  0  0  0  0  0
    9.7127   15.4823   23.2116 N   0  0  0  0  0  0  0  0  0  0  0  0
   11.1174   15.6939   23.5751 C   0  0  0  0  0  0  0  0  0  0  0  0
   12.1074   15.2971   22.4832 C   0  0  0  0  0  0  0  0  0  0  0  0
   11.7991   16.0276   21.1822 C   0  0  0  0  0  0  0  0  0  0  0  0
   10.3385   15.8323   20.7926 C   0  0  0  0  0  0  0  0  0  0  0  0
    9.3954   16.1733   21.9487 C   0  0  0  0  0  0  0  0  0  0  0  0
  7  8  1  0  0  0
  8  6  1  0  0  0
  6  4  1  0  0  0
  4  5  2  0  0  0
  4  1  1  0  0  0
  1  2  1  0  0  0
  1  9  1  0  0  0
  9 10  1  0  0  0
 10 11  1  0  0  0
 11 12  1  0  0  0
 12 13  1  0  0  0
 13 14  1  0  0  0
 14 15  1  0  0  0
 15 10  1  0  0  0
  2  3  1  0  0  0
M  END
> <minimizedAffinity>
-4.80724

> <minimizedRMSD>
0.55134

$$$$
C8176-P325


 17 17  0  0  0  0  0  0  0  0999 V2000
    8.2142   14.9140   25.4301 C   0  0  0  0  0  0  0  0  0  0  0  0
    8.5129   13.5526   24.7914 C   0  0  0  0  0  0  0  0  0  0  0  0
    9.7733   13.1105   25.3059 O   0  0  0  0  0  0  0  0  0  0  0  0
   10.4598   13.7573   25.0794 H   0  0  0  0  0  0  0  0  0  0  0  0
    7.3973   12.5039   25.1584 C   0  0  0  0  0  0  0  0  0  0  0  0
    6.5524   12.8277   26.4047 C   0  0  0  0  0  0  0  0  0  0  0  0
    5.4350   11.8019   26.5680 C   0  0  0  0  0  0  0  0  0  0  0  0
    5.9589   10.3750   26.5944 C   0  0  0  0  0  0  0  0  0  0  0  0
    6.9078   10.0756   25.5350 N   0  0  0  0  0  0  0  0  0  0  0  0
    7.9490   11.0734   25.3009 C   0  0  0  0  0  0  0  0  0  0  0  0
    6.3818    9.9654   24.6680 H   0  0  0  0  0  0  0  0  0  0  0  0
    8.5731   13.7221   23.2342 C   0  0  0  0  0  0  0  0  0  0  0  0
    7.6123   13.4311   22.5089 O   0  0  0  0  0  0  0  0  0  0  0  0
    9.8520   14.3054   22.6507 C   0  0  0  0  0  0  0  0  0  0  0  0
   10.3438   15.3444   23.3904 F   0  0  0  0  0  0  0  0  0  0  0  0
   10.8563   13.4001   22.5625 F   0  0  0  0  0  0  0  0  0  0  0  0
    9.4145   14.8990   20.8581 Br  0  0  0  0  0  0  0  0  0  0  0  0
  2  1  1  0  0  0
  2  3  1  0  0  0
  2 12  1  0  0  0
 12 13  2  0  0  0
 12 14  1  0  0  0
 14 15  1  0  0  0
 14 16  1  0  0  0
 14 17  1  0  0  0
  2  5  1  0  0  0
  5  6  1  0  0  0
  6  7  1  0  0  0
  7  8  1  0  0  0
  8  9  1  0  0  0
  9 10  1  0  0  0
 10  5  1  0  0  0
  3  4  1  0  0  0
  9 11  1  0  0  0
M  END
> <minimizedAffinity>
-4.64636

> <minimizedRMSD>
0.74830

$$$$
C7585-P457


 15 15  0  0  0  0  0  0  0  0999 V2000
    7.2161   11.5023   26.3827 N   0  0  0  0  0  0  0  0  0  0  0  0
    7.5893   12.2677   26.9442 H   0  0  0  0  0  0  0  0  0  0  0  0
    5.8043   11.5481   26.4619 N   0  0  0  0  0  0  0  0  0  0  0  0
    5.4091   12.4439   27.5809 C   0  0  0  0  0  0  0  0  0  0  0  0
    3.8815   12.5553   27.7842 C   0  0  0  0  0  0  0  0  0  0  0  0
    3.1184   11.4534   27.1711 N   0  0  0  0  0  0  0  0  0  0  0  0
    3.8614   10.1977   27.4076 C   0  0  0  0  0  0  0  0  0  0  0  0
    5.2316   10.1920   26.6874 C   0  0  0  0  0  0  0  0  0  0  0  0
    3.0217   11.6150   26.1686 H   0  0  0  0  0  0  0  0  0  0  0  0
    7.8587   11.6417   24.8012 S   0  0  0  0  0  0  0  0  0  0  0  0
    9.1740   12.2094   25.0234 O   0  0  0  0  0  0  0  0  0  0  0  0
    6.9196   12.3024   23.9283 O   0  0  0  0  0  0  0  0  0  0  0  0
    8.0442    9.9285   24.3235 C   0  0  0  0  0  0  0  0  0  0  0  0
    9.5679    8.2645   23.2268 C   0  0  0  0  0  0  0  0  0  0  0  0
    9.2936    9.7301   23.4854 C   0  0  0  0  0  0  0  0  0  0  0  0
 14 15  1  0  0  0
 15 13  1  0  0  0
 13 10  1  0  0  0
 10 11  2  0  0  0
 10 12  2  0  0  0
 10  1  1  0  0  0
  1  3  1  0  0  0
  3  4  1  0  0  0
  4  5  1  0  0  0
  5  6  1  0  0  0
  6  7  1  0  0  0
  7  8  1  0  0  0
  8  3  1  0  0  0
  1  2  1  0  0  0
  6  9  1  0  0  0
M  END
> <minimizedAffinity>
-3.81647

> <minimizedRMSD>
0.49661

$$$$
C12320-P135


 13 13  0  0  0  0  0  0  0  0999 V2000
   11.7759   13.4088   21.9196 N   0  0  0  0  0  0  0  0  0  0  0  0
   12.2831   12.5665   21.9697 H   0  0  0  0  0  0  0  0  0  0  0  0
   12.2571   14.4557   21.1277 C   0  0  0  0  0  0  0  0  0  0  0  0
   12.2281   14.3972   19.6976 C   0  0  0  0  0  0  0  0  0  0  0  0
   12.8004   15.5239   19.1462 C   0  0  0  0  0  0  0  0  0  0  0  0
   13.2997   16.5443   20.4233 S   0  0  0  0  0  0  0  0  0  0  0  0
   12.8631   15.5188   21.6435 N   0  0  0  0  0  0  0  0  0  0  0  0
   10.3436   13.5659   22.7883 S   0  0  0  0  0  0  0  0  0  0  0  0
   10.1034   14.9256   23.1990 O   0  0  0  0  0  0  0  0  0  0  0  0
    9.2810   12.7988   22.1622 O   0  0  0  0  0  0  0  0  0  0  0  0
   10.8229   12.6866   24.2559 C   0  0  0  0  0  0  0  0  0  0  0  0
    8.8148   12.5325   25.8196 C   0  0  0  0  0  0  0  0  0  0  0  0
    9.7171   11.8163   24.8324 C   0  0  0  0  0  0  0  0  0  0  0  0
 12 13  1  0  0  0
 13 11  1  0  0  0
 11  8  1  0  0  0
  8  9  2  0  0  0
  8 10  2  0  0  0
  8  1  1  0  0  0
  1  3  1  0  0  0
  3  4  1  0  0  0
  4  5  2  0  0  0
  5  6  1  0  0  0
  6  7  1  0  0  0
  7  3  2  0  0  0
  1  2  1  0  0  0
M  END
> <minimizedAffinity>
-4.74901

> <minimizedRMSD>
0.79973

$$$$
C12323-P135


 13 13  0  0  0  0  0  0  0  0999 V2000
   11.8203   13.4513   21.9626 N   0  0  0  0  0  0  0  0  0  0  0  0
   12.3829   12.6525   22.0835 H   0  0  0  0  0  0  0  0  0  0  0  0
   12.2633   14.4673   21.0865 C   0  0  0  0  0  0  0  0  0  0  0  0
   12.8532   15.7271   21.4352 C   0  0  0  0  0  0  0  0  0  0  0  0
   13.2414   16.5335   20.4449 N   0  0  0  0  0  0  0  0  0  0  0  0
   12.8845   15.7799   19.0142 S   0  0  0  0  0  0  0  0  0  0  0  0
   12.2225   14.3684   19.7121 C   0  0  0  0  0  0  0  0  0  0  0  0
   10.3655   13.5535   22.8092 S   0  0  0  0  0  0  0  0  0  0  0  0
   10.1197   14.9189   23.1996 O   0  0  0  0  0  0  0  0  0  0  0  0
    9.3277   12.7859   22.1460 O   0  0  0  0  0  0  0  0  0  0  0  0
   10.8138   12.6737   24.2874 C   0  0  0  0  0  0  0  0  0  0  0  0
    8.7939   12.5232   25.8353 C   0  0  0  0  0  0  0  0  0  0  0  0
    9.6898   11.8099   24.8400 C   0  0  0  0  0  0  0  0  0  0  0  0
 12 13  1  0  0  0
 13 11  1  0  0  0
 11  8  1  0  0  0
  8  9  2  0  0  0
  8 10  2  0  0  0
  8  1  1  0  0  0
  1  3  1  0  0  0
  3  4  1  0  0  0
  4  5  2  0  0  0
  5  6  1  0  0  0
  6  7  1  0  0  0
  7  3  2  0  0  0
  1  2  1  0  0  0
M  END
> <minimizedAffinity>
-4.40099

> <minimizedRMSD>
0.86210

$$$$
C8141-P214


 16 16  0  0  0  0  0  0  0  0999 V2000
    8.1368   13.6371   24.4279 C   0  0  0  0  0  0  0  0  0  0  0  0
    7.9104   15.0257   25.0303 C   0  0  0  0  0  0  0  0  0  0  0  0
    9.5154   13.3050   24.6924 O   0  0  0  0  0  0  0  0  0  0  0  0
   10.0929   13.9508   24.2563 H   0  0  0  0  0  0  0  0  0  0  0  0
    7.2764   12.5735   25.1482 C   0  0  0  0  0  0  0  0  0  0  0  0
    7.4493   11.1566   24.5996 C   0  0  0  0  0  0  0  0  0  0  0  0
    6.7027   10.1473   25.4586 C   0  0  0  0  0  0  0  0  0  0  0  0
    5.3113   10.4863   25.6889 N   0  0  0  0  0  0  0  0  0  0  0  0
    5.1201   11.8330   26.2058 C   0  0  0  0  0  0  0  0  0  0  0  0
    5.7896   12.8939   25.3259 C   0  0  0  0  0  0  0  0  0  0  0  0
    4.9248    9.8243   26.3617 H   0  0  0  0  0  0  0  0  0  0  0  0
    7.9383   13.7487   22.8955 C   0  0  0  0  0  0  0  0  0  0  0  0
    6.8607   13.5473   22.3389 O   0  0  0  0  0  0  0  0  0  0  0  0
   10.4205   15.5819   20.5320 C   0  0  0  0  0  0  0  0  0  0  0  0
    9.2503   15.2383   21.3969 C   0  0  0  0  0  0  0  0  0  0  0  0
    9.1640   14.1084   22.1082 C   0  0  0  0  0  0  0  0  0  0  0  0
 14 15  1  0  0  0
 15 16  2  0  0  0
 16 12  1  0  0  0
 12 13  2  0  0  0
 12  1  1  0  0  0
  1  2  1  0  0  0
  1  3  1  0  0  0
  1  5  1  0  0  0
  5  6  1  0  0  0
  6  7  1  0  0  0
  7  8  1  0  0  0
  8  9  1  0  0  0
  9 10  1  0  0  0
 10  5  1  0  0  0
  3  4  1  0  0  0
  8 11  1  0  0  0
M  END
> <minimizedAffinity>
-4.67559

> <minimizedRMSD>
0.44749

$$$$
C8142-P214


 14 14  0  0  0  0  0  0  0  0999 V2000
    8.8949   12.8850   24.2859 C   0  0  0  0  0  0  0  0  0  0  0  0
    9.3949   14.0034   25.0222 O   0  0  0  0  0  0  0  0  0  0  0  0
    8.7310   14.7106   25.0265 H   0  0  0  0  0  0  0  0  0  0  0  0
    7.6656   12.3348   25.0279 C   0  0  0  0  0  0  0  0  0  0  0  0
    7.4209   10.8505   24.8130 C   0  0  0  0  0  0  0  0  0  0  0  0
    6.3713   10.3547   25.7928 C   0  0  0  0  0  0  0  0  0  0  0  0
    5.1515   11.2572   25.9378 C   0  0  0  0  0  0  0  0  0  0  0  0
    5.4307   12.6918   25.9618 N   0  0  0  0  0  0  0  0  0  0  0  0
    6.3521   13.1050   24.8925 C   0  0  0  0  0  0  0  0  0  0  0  0
    5.8474   12.9288   26.8621 H   0  0  0  0  0  0  0  0  0  0  0  0
    8.7199   13.2646   22.8181 C   0  0  0  0  0  0  0  0  0  0  0  0
    9.5044   15.1693   21.2738 C   0  0  0  0  0  0  0  0  0  0  0  0
    9.8567   14.1653   22.3390 C   0  0  0  0  0  0  0  0  0  0  0  0
   11.0059   14.0840   22.7723 O   0  0  0  0  0  0  0  0  0  0  0  0
 12 13  1  0  0  0
 13 14  2  0  0  0
 13 11  1  0  0  0
 11  1  1  0  0  0
  1  2  1  0  0  0
  1  4  1  0  0  0
  4  5  1  0  0  0
  5  6  1  0  0  0
  6  7  1  0  0  0
  7  8  1  0  0  0
  8  9  1  0  0  0
  9  4  1  0  0  0
  2  3  1  0  0  0
  8 10  1  0  0  0
M  END
> <minimizedAffinity>
-3.79073

> <minimizedRMSD>
0.82889

$$$$
C1304-P208


 15 15  0  0  0  0  0  0  0  0999 V2000
    9.1404   15.1328   22.0963 C   0  0  0  0  0  0  0  0  0  0  0  0
   10.0012   16.3137   22.1436 N   0  0  0  0  0  0  0  0  0  0  0  0
   11.2103   16.1759   22.9706 C   0  0  0  0  0  0  0  0  0  0  0  0
   12.3606   15.3806   22.3232 C   0  0  0  0  0  0  0  0  0  0  0  0
   12.7386   15.9271   21.0245 N   0  0  0  0  0  0  0  0  0  0  0  0
   11.5664   15.9948   20.1412 C   0  0  0  0  0  0  0  0  0  0  0  0
   10.3927   16.7687   20.7845 C   0  0  0  0  0  0  0  0  0  0  0  0
   13.4462   15.3276   20.5998 H   0  0  0  0  0  0  0  0  0  0  0  0
    9.0752   14.4275   23.4536 C   0  0  0  0  0  0  0  0  0  0  0  0
    6.7769   13.9292   23.2717 O   0  0  0  0  0  0  0  0  0  0  0  0
    7.8363   13.5554   23.5754 C   0  0  0  0  0  0  0  0  0  0  0  0
    8.2947   12.1911   24.1178 N   0  0  0  0  0  0  0  0  0  0  0  0
    7.5614   11.0746   24.4760 O   0  0  0  0  0  0  0  0  0  0  0  0
    9.2685   12.0974   24.2280 H   0  0  0  0  0  0  0  0  0  0  0  0
    6.6174   11.2498   24.3378 H   0  0  0  0  0  0  0  0  0  0  0  0
 10 11  2  0  0  0
 11  9  1  0  0  0
  9  1  1  0  0  0
  1  2  1  0  0  0
  2  3  1  0  0  0
  3  4  1  0  0  0
  4  5  1  0  0  0
  5  6  1  0  0  0
  6  7  1  0  0  0
 11 12  1  0  0  0
 12 13  1  0  0  0
  7  2  1  0  0  0
  5  8  1  0  0  0
 12 14  1  0  0  0
 13 15  1  0  0  0
M  END
> <minimizedAffinity>
-4.61398

> <minimizedRMSD>
1.24313

$$$$
C7596-P190


 15 15  0  0  0  0  0  0  0  0999 V2000
    9.7864   12.7144   22.8782 N   0  0  0  0  0  0  0  0  0  0  0  0
   10.3609   12.3108   22.1383 H   0  0  0  0  0  0  0  0  0  0  0  0
    9.2744   11.6230   23.7381 C   0  0  0  0  0  0  0  0  0  0  0  0
    9.5242   10.2841   23.0759 C   0  0  0  0  0  0  0  0  0  0  0  0
    8.7343    9.1330   23.6683 C   0  0  0  0  0  0  0  0  0  0  0  0
    7.4848    9.4349   24.3485 N   0  0  0  0  0  0  0  0  0  0  0  0
    7.4118   10.7076   25.0340 C   0  0  0  0  0  0  0  0  0  0  0  0
    7.8386   11.8535   24.1394 C   0  0  0  0  0  0  0  0  0  0  0  0
    7.3231    8.7018   25.0390 H   0  0  0  0  0  0  0  0  0  0  0  0
   10.7188   13.8146   23.7572 S   0  0  0  0  0  0  0  0  0  0  0  0
   11.6554   13.0197   24.5206 O   0  0  0  0  0  0  0  0  0  0  0  0
    9.8055   14.7127   24.4251 O   0  0  0  0  0  0  0  0  0  0  0  0
   11.5753   14.6508   22.4476 C   0  0  0  0  0  0  0  0  0  0  0  0
   12.6952   16.7649   21.8031 C   0  0  0  0  0  0  0  0  0  0  0  0
   12.2273   15.9186   22.9647 C   0  0  0  0  0  0  0  0  0  0  0  0
 14 15  1  0  0  0
 15 13  1  0  0  0
 13 10  1  0  0  0
 10 11  2  0  0  0
 10 12  2  0  0  0
 10  1  1  0  0  0
  1  3  1  0  0  0
  3  4  1  0  0  0
  4  5  1  0  0  0
  5  6  1  0  0  0
  6  7  1  0  0  0
  7  8  1  0  0  0
  8  3  1  0  0  0
  1  2  1  0  0  0
  6  9  1  0  0  0
M  END
> <minimizedAffinity>
-5.24142

> <minimizedRMSD>
0.65587

$$$$
C7644-P190


 14 14  0  0  0  0  0  0  0  0999 V2000
   10.0267   13.2279   22.9314 N   0  0  0  0  0  0  0  0  0  0  0  0
   10.6411   12.6645   22.3436 H   0  0  0  0  0  0  0  0  0  0  0  0
    8.9739   12.3277   23.3634 C   0  0  0  0  0  0  0  0  0  0  0  0
    8.0912   12.7878   24.4609 C   0  0  0  0  0  0  0  0  0  0  0  0
    7.3753   11.9209   25.1792 C   0  0  0  0  0  0  0  0  0  0  0  0
    7.4199   10.4569   24.9350 C   0  0  0  0  0  0  0  0  0  0  0  0
    8.4464    9.9149   23.9430 C   0  0  0  0  0  0  0  0  0  0  0  0
    9.5004   10.9041   23.4832 C   0  0  0  0  0  0  0  0  0  0  0  0
   11.0391   14.0754   23.9451 S   0  0  0  0  0  0  0  0  0  0  0  0
   12.3396   13.4608   23.8406 O   0  0  0  0  0  0  0  0  0  0  0  0
   10.4176   14.2793   25.2326 O   0  0  0  0  0  0  0  0  0  0  0  0
   10.9848   15.6190   23.0608 C   0  0  0  0  0  0  0  0  0  0  0  0
   12.6915   16.7020   21.5823 C   0  0  0  0  0  0  0  0  0  0  0  0
   12.3069   16.3481   23.0030 C   0  0  0  0  0  0  0  0  0  0  0  0
 13 14  1  0  0  0
 14 12  1  0  0  0
 12  9  1  0  0  0
  9 10  2  0  0  0
  9 11  2  0  0  0
  9  1  1  0  0  0
  3  1  1  0  0  0
  3  4  1  0  0  0
  4  5  2  0  0  0
  5  6  1  0  0  0
  6  7  1  0  0  0
  7  8  1  0  0  0
  8  3  1  0  0  0
  1  2  1  0  0  0
M  END
> <minimizedAffinity>
-5.11794

> <minimizedRMSD>
1.05551

$$$$
C7652-P190


 13 13  0  0  0  0  0  0  0  0999 V2000
   10.1145   12.8327   23.9410 N   0  0  0  0  0  0  0  0  0  0  0  0
   10.2610   12.7427   24.9464 H   0  0  0  0  0  0  0  0  0  0  0  0
    8.8894   12.1097   23.6399 C   0  0  0  0  0  0  0  0  0  0  0  0
    7.9139   12.0832   24.7675 C   0  0  0  0  0  0  0  0  0  0  0  0
    7.4659   10.8491   25.0226 C   0  0  0  0  0  0  0  0  0  0  0  0
    8.1312    9.8349   24.1613 C   0  0  0  0  0  0  0  0  0  0  0  0
    9.2394   10.6226   23.4906 C   0  0  0  0  0  0  0  0  0  0  0  0
   10.2845   14.4489   23.5859 S   0  0  0  0  0  0  0  0  0  0  0  0
   10.7720   15.0502   24.8057 O   0  0  0  0  0  0  0  0  0  0  0  0
    9.0703   14.9140   22.9565 O   0  0  0  0  0  0  0  0  0  0  0  0
   11.6131   14.4481   22.3858 C   0  0  0  0  0  0  0  0  0  0  0  0
   12.6647   16.7213   21.9711 C   0  0  0  0  0  0  0  0  0  0  0  0
   11.6104   15.7134   21.5334 C   0  0  0  0  0  0  0  0  0  0  0  0
 12 13  1  0  0  0
 13 11  1  0  0  0
 11  8  1  0  0  0
  8  9  2  0  0  0
  8 10  2  0  0  0
  8  1  1  0  0  0
  3  1  1  0  0  0
  3  4  1  0  0  0
  4  5  2  0  0  0
  5  6  1  0  0  0
  6  7  1  0  0  0
  7  3  1  0  0  0
  1  2  1  0  0  0
M  END
> <minimizedAffinity>
-4.54082

> <minimizedRMSD>
1.19157

$$$$
C1783-P270


 16 18  0  0  0  0  0  0  0  0999 V2000
    8.8321   14.5631   23.3922 C   0  0  0  0  0  0  0  0  0  0  0  0
    9.4131   13.3922   23.2327 N   0  0  0  0  0  0  0  0  0  0  0  0
    8.6884   12.3992   23.8452 C   0  0  0  0  0  0  0  0  0  0  0  0
    7.5958   12.8405   24.5461 C   0  0  0  0  0  0  0  0  0  0  0  0
    7.3436   14.5038   24.2431 S   0  0  0  0  0  0  0  0  0  0  0  0
    6.7099   12.0999   25.4547 C   0  0  0  0  0  0  0  0  0  0  0  0
    6.9316   10.3042   25.4910 S   0  0  0  0  0  0  0  0  0  0  0  0
    8.2107    9.9416   24.2358 C   0  0  0  0  0  0  0  0  0  0  0  0
    9.1763   11.0105   23.7653 C   0  0  0  0  0  0  0  0  0  0  0  0
   11.6002   15.6302   21.0606 C   0  0  0  0  0  0  0  0  0  0  0  0
   11.8534   15.2826   22.5195 C   0  0  0  0  0  0  0  0  0  0  0  0
   10.8753   16.0236   23.4207 C   0  0  0  0  0  0  0  0  0  0  0  0
    9.4119   15.8962   22.9683 C   0  0  0  0  0  0  0  0  0  0  0  0
    9.2243   16.1907   21.5379 N   0  0  0  0  0  0  0  0  0  0  0  0
   10.1371   15.4231   20.6847 C   0  0  0  0  0  0  0  0  0  0  0  0
    9.3903   17.1853   21.3838 H   0  0  0  0  0  0  0  0  0  0  0  0
 10 11  1  0  0  0
 11 12  1  0  0  0
 12 13  1  0  0  0
 13  1  1  0  0  0
  1  2  2  0  0  0
  2  3  1  0  0  0
  3  4  2  0  0  0
  4  5  1  0  0  0
  4  6  1  0  0  0
  6  7  1  0  0  0
  7  8  1  0  0  0
  8  9  1  0  0  0
 13 14  1  0  0  0
 14 15  1  0  0  0
 15 10  1  0  0  0
  5  1  1  0  0  0
  9  3  1  0  0  0
 14 16  1  0  0  0
M  END
> <minimizedAffinity>
-5.60609

> <minimizedRMSD>
0.29821

$$$$
C1805-P270


 16 18  0  0  0  0  0  0  0  0999 V2000
    8.7841   14.5640   23.3641 C   0  0  0  0  0  0  0  0  0  0  0  0
    9.3424   13.3918   23.1709 N   0  0  0  0  0  0  0  0  0  0  0  0
    8.6415   12.4039   23.8187 C   0  0  0  0  0  0  0  0  0  0  0  0
    7.5620   12.8483   24.5378 C   0  0  0  0  0  0  0  0  0  0  0  0
    7.3105   14.5128   24.2371 S   0  0  0  0  0  0  0  0  0  0  0  0
    6.6970   12.1118   25.4704 C   0  0  0  0  0  0  0  0  0  0  0  0
    6.9198   10.3156   25.5126 S   0  0  0  0  0  0  0  0  0  0  0  0
    8.1921    9.9483   24.2507 C   0  0  0  0  0  0  0  0  0  0  0  0
    9.1450   11.0200   23.7600 C   0  0  0  0  0  0  0  0  0  0  0  0
   11.8573   15.2863   22.7354 C   0  0  0  0  0  0  0  0  0  0  0  0
   10.7997   16.0140   23.5549 C   0  0  0  0  0  0  0  0  0  0  0  0
    9.3887   15.8826   22.9656 C   0  0  0  0  0  0  0  0  0  0  0  0
    9.3819   16.1008   21.4499 C   0  0  0  0  0  0  0  0  0  0  0  0
   10.5250   15.3840   20.7389 C   0  0  0  0  0  0  0  0  0  0  0  0
   11.8170   15.6982   21.3400 N   0  0  0  0  0  0  0  0  0  0  0  0
   11.9747   16.7044   21.2846 H   0  0  0  0  0  0  0  0  0  0  0  0
 10 11  1  0  0  0
 11 12  1  0  0  0
 12  1  1  0  0  0
  1  2  2  0  0  0
  2  3  1  0  0  0
  3  4  2  0  0  0
  4  5  1  0  0  0
  4  6  1  0  0  0
  6  7  1  0  0  0
  7  8  1  0  0  0
  8  9  1  0  0  0
 12 13  1  0  0  0
 13 14  1  0  0  0
 14 15  1  0  0  0
 15 10  1  0  0  0
  5  1  1  0  0  0
  9  3  1  0  0  0
 15 16  1  0  0  0
M  END
> <minimizedAffinity>
-5.41019

> <minimizedRMSD>
0.27630

$$$$
C2414-P440


 16 16  0  0  0  0  0  0  0  0999 V2000
    8.3394   13.9694   23.1805 C   0  0  0  0  0  0  0  0  0  0  0  0
    7.2460   13.4498   22.2257 C   0  0  0  0  0  0  0  0  0  0  0  0
    9.5632   14.3614   22.4299 N   0  0  0  0  0  0  0  0  0  0  0  0
   10.4896   15.2415   23.1502 C   0  0  0  0  0  0  0  0  0  0  0  0
   11.8777   15.1335   22.5359 C   0  0  0  0  0  0  0  0  0  0  0  0
   11.8493   15.5812   21.0871 C   0  0  0  0  0  0  0  0  0  0  0  0
   10.8053   14.7959   20.3136 C   0  0  0  0  0  0  0  0  0  0  0  0
    9.4460   14.7648   21.0233 C   0  0  0  0  0  0  0  0  0  0  0  0
    8.7660   12.7946   24.1615 C   0  0  0  0  0  0  0  0  0  0  0  0
    9.8382   12.7920   24.7851 O   0  0  0  0  0  0  0  0  0  0  0  0
    7.7410   11.6958   24.4515 C   0  0  0  0  0  0  0  0  0  0  0  0
    8.3745   10.5040   25.1577 C   0  0  0  0  0  0  0  0  0  0  0  0
    9.2868    8.9250   23.2407 C   0  0  0  0  0  0  0  0  0  0  0  0
    8.8050    9.5397   24.1480 C   0  0  0  0  0  0  0  0  0  0  0  0
    7.7305   15.0750   24.0972 C   0  0  0  0  0  0  0  0  0  0  0  0
    6.8090   16.0760   23.4166 C   0  0  0  0  0  0  0  0  0  0  0  0
 13 14  3  0  0  0
 14 12  1  0  0  0
 12 11  1  0  0  0
 11  9  1  0  0  0
  9 10  2  0  0  0
  9  1  1  0  0  0
  1  2  1  0  0  0
  1 15  1  0  0  0
 15 16  1  0  0  0
  1  3  1  0  0  0
  3  4  1  0  0  0
  4  5  1  0  0  0
  5  6  1  0  0  0
  6  7  1  0  0  0
  7  8  1  0  0  0
  8  3  1  0  0  0
M  END
> <minimizedAffinity>
-5.08407

> <minimizedRMSD>
0.75139

$$$$
C7479-P440


 24 25  0  0  0  0  0  0  0  0999 V2000
    7.0875   14.2804   22.8554 S   0  0  0  0  0  0  0  0  0  0  0  0
    6.9866   12.9648   22.2345 O   0  0  0  0  0  0  0  0  0  0  0  0
    7.9765   15.1985   22.1704 O   0  0  0  0  0  0  0  0  0  0  0  0
    7.0197   14.3690   24.3844 N   0  0  0  0  0  0  0  0  0  0  0  0
    8.3563   14.0729   25.0827 S   0  0  0  0  0  0  0  0  0  0  0  0
    8.1438   14.6654   26.7510 C   0  0  0  0  0  0  0  0  0  0  0  0
    9.6537   14.5878   24.6864 O   0  0  0  0  0  0  0  0  0  0  0  0
    8.5695   12.3089   25.3550 C   0  0  0  0  0  0  0  0  0  0  0  0
    9.5119   11.6747   24.3268 C   0  0  0  0  0  0  0  0  0  0  0  0
    9.7383   10.1958   24.6255 C   0  0  0  0  0  0  0  0  0  0  0  0
    8.4307    9.4305   24.7548 C   0  0  0  0  0  0  0  0  0  0  0  0
    7.4715   10.0773   25.7432 C   0  0  0  0  0  0  0  0  0  0  0  0
    7.2450   11.5528   25.4362 C   0  0  0  0  0  0  0  0  0  0  0  0
    5.5813   14.9443   22.5442 N   0  0  0  0  0  0  0  0  0  0  0  0
    5.4249   15.6715   23.2423 H   0  0  0  0  0  0  0  0  0  0  0  0
    4.4115   14.0771   22.5614 C   0  0  0  0  0  0  0  0  0  0  0  0
    3.2198   14.0175   20.2313 C   0  0  0  0  0  0  0  0  0  0  0  0
    2.1672   14.6864   19.6796 O   0  0  0  0  0  0  0  0  0  0  0  0
    1.8538   15.6192   20.6001 C   0  0  0  0  0  0  0  0  0  0  0  0
    2.5836   15.5915   21.6931 N   0  0  0  0  0  0  0  0  0  0  0  0
    3.4510   14.5300   21.4952 C   0  0  0  0  0  0  0  0  0  0  0  0
    3.6731   13.2653   17.9120 C   0  0  0  0  0  0  0  0  0  0  0  0
    3.8015   12.9495   19.3994 C   0  0  0  0  0  0  0  0  0  0  0  0
    3.1536   11.6111   19.7098 C   0  0  0  0  0  0  0  0  0  0  0  0
 22 23  1  0  0  0
 23 24  1  0  0  0
 23 17  1  0  0  0
 17 18  1  0  0  0
 18 19  1  0  0  0
 19 20  2  0  0  0
 20 21  1  0  0  0
 21 16  1  0  0  0
 16 14  1  0  0  0
 14  1  1  0  0  0
  1  2  2  0  0  0
  1  3  2  0  0  0
  1  4  1  0  0  0
  4  5  2  0  0  0
  5  6  1  0  0  0
  5  7  2  0  0  0
  5  8  1  0  0  0
  8  9  1  0  0  0
  9 10  1  0  0  0
 10 11  1  0  0  0
 11 12  1  0  0  0
 12 13  1  0  0  0
 21 17  2  0  0  0
 13  8  1  0  0  0
 14 15  1  0  0  0
M  END
> <minimizedAffinity>
-6.04666

> <minimizedRMSD>
0.54074

$$$$
C26145-P124


 23 24  0  0  0  0  0  0  0  0999 V2000
    6.4899   13.2718   26.4323 C   0  0  0  0  0  0  0  0  0  0  0  0
    3.9048   13.7035   27.1636 C   0  0  0  0  0  0  0  0  0  0  0  0
    3.3236   13.9744   26.1893 O   0  0  0  0  0  0  0  0  0  0  0  0
    5.3914   13.3144   27.3709 N   0  0  0  0  0  0  0  0  0  0  0  0
    5.6251   13.0541   28.2911 H   0  0  0  0  0  0  0  0  0  0  0  0
    3.2625   13.7580   28.5744 C   0  0  0  0  0  0  0  0  0  0  0  0
    1.7014   11.7430   28.4628 C   0  0  0  0  0  0  0  0  0  0  0  0
    1.7752   13.2792   28.4749 C   0  0  0  0  0  0  0  0  0  0  0  0
    0.8737   13.7788   29.6084 C   0  0  0  0  0  0  0  0  0  0  0  0
    3.4205   15.1835   29.2066 C   0  0  0  0  0  0  0  0  0  0  0  0
    3.8316   16.3068   28.2414 C   0  0  0  0  0  0  0  0  0  0  0  0
    4.4513   15.1584   30.3464 C   0  0  0  0  0  0  0  0  0  0  0  0
    6.9109   11.9059   25.7688 C   0  0  0  0  0  0  0  0  0  0  0  0
    6.4472   10.7615   26.6534 C   0  0  0  0  0  0  0  0  0  0  0  0
    8.3866   11.9748   25.5016 N   0  0  0  0  0  0  0  0  0  0  0  0
    8.8857   13.3571   25.2760 C   0  0  0  0  0  0  0  0  0  0  0  0
   10.3233   13.2905   24.8003 C   0  0  0  0  0  0  0  0  0  0  0  0
   10.3209   11.9442   24.1882 C   0  0  0  0  0  0  0  0  0  0  0  0
   11.3054   11.4153   23.3595 C   0  0  0  0  0  0  0  0  0  0  0  0
   11.1697   10.1049   22.9375 C   0  0  0  0  0  0  0  0  0  0  0  0
   10.0647    9.3687   23.3539 C   0  0  0  0  0  0  0  0  0  0  0  0
    9.0866    9.9334   24.1928 C   0  0  0  0  0  0  0  0  0  0  0  0
    9.1859   11.2368   24.6199 C   0  0  0  0  0  0  0  0  0  0  0  0
  7  8  1  0  0  0
  8  9  1  0  0  0
  8  6  1  0  0  0
  6  2  1  0  0  0
  2  3  2  0  0  0
  2  4  1  0  0  0
  4  1  1  0  0  0
  1 13  1  0  0  0
 13 14  1  0  0  0
 13 15  1  0  0  0
 15 16  1  0  0  0
 16 17  1  0  0  0
 17 18  1  0  0  0
 18 19  2  0  0  0
 19 20  1  0  0  0
 20 21  2  0  0  0
 21 22  1  0  0  0
 22 23  2  0  0  0
  6 10  1  0  0  0
 10 11  1  0  0  0
 10 12  1  0  0  0
 23 15  1  0  0  0
 23 18  1  0  0  0
  4  5  1  0  0  0
M  END
> <minimizedAffinity>
-5.12278

> <minimizedRMSD>
0.98817

$$$$
C2376-P151


 15 15  0  0  0  0  0  0  0  0999 V2000
    9.8013   13.1005   24.3283 C   0  0  0  0  0  0  0  0  0  0  0  0
    9.3555   13.8537   25.5953 C   0  0  0  0  0  0  0  0  0  0  0  0
   11.0798   12.6984   24.6309 F   0  0  0  0  0  0  0  0  0  0  0  0
    8.9618   11.8087   24.0444 C   0  0  0  0  0  0  0  0  0  0  0  0
    8.1272   11.3399   25.2467 C   0  0  0  0  0  0  0  0  0  0  0  0
    7.5616    9.9410   25.1259 C   0  0  0  0  0  0  0  0  0  0  0  0
    8.5795    8.9936   24.7487 N   0  0  0  0  0  0  0  0  0  0  0  0
    9.2919    9.2898   23.5240 C   0  0  0  0  0  0  0  0  0  0  0  0
    9.8597   10.6989   23.4735 C   0  0  0  0  0  0  0  0  0  0  0  0
    8.1342    8.0825   24.6393 H   0  0  0  0  0  0  0  0  0  0  0  0
    9.8460   14.1327   23.1472 C   0  0  0  0  0  0  0  0  0  0  0  0
    8.6752   13.9958   22.1662 C   0  0  0  0  0  0  0  0  0  0  0  0
   11.1466   14.2080   22.3397 C   0  0  0  0  0  0  0  0  0  0  0  0
   12.2699   16.2566   21.4885 C   0  0  0  0  0  0  0  0  0  0  0  0
   12.0177   15.4033   22.7137 C   0  0  0  0  0  0  0  0  0  0  0  0
 14 15  1  0  0  0
 15 13  1  0  0  0
 13 11  1  0  0  0
 11 12  1  0  0  0
 11  1  1  0  0  0
  1  2  1  0  0  0
  1  3  1  0  0  0
  1  4  1  0  0  0
  4  5  1  0  0  0
  5  6  1  0  0  0
  6  7  1  0  0  0
  7  8  1  0  0  0
  8  9  1  0  0  0
  9  4  1  0  0  0
  7 10  1  0  0  0
M  END
> <minimizedAffinity>
-5.31395

> <minimizedRMSD>
1.36300

$$$$
C2384-P151


 16 16  0  0  0  0  0  0  0  0999 V2000
   10.1072   13.6269   23.9291 C   0  0  0  0  0  0  0  0  0  0  0  0
    9.8178   14.5658   25.1126 C   0  0  0  0  0  0  0  0  0  0  0  0
   11.5561   13.1673   24.0455 C   0  0  0  0  0  0  0  0  0  0  0  0
    9.1551   12.3635   23.9326 C   0  0  0  0  0  0  0  0  0  0  0  0
    8.4451   12.0465   25.2508 C   0  0  0  0  0  0  0  0  0  0  0  0
    7.7633   10.6852   25.2967 C   0  0  0  0  0  0  0  0  0  0  0  0
    8.4274    9.6075   24.4431 C   0  0  0  0  0  0  0  0  0  0  0  0
    9.7938    9.9338   24.1177 N   0  0  0  0  0  0  0  0  0  0  0  0
    9.8570   11.1301   23.3058 C   0  0  0  0  0  0  0  0  0  0  0  0
   10.2094    9.1577   23.6025 H   0  0  0  0  0  0  0  0  0  0  0  0
    9.8343   14.3763   22.5931 C   0  0  0  0  0  0  0  0  0  0  0  0
    9.0102   13.9114   21.7918 O   0  0  0  0  0  0  0  0  0  0  0  0
   10.4769   15.7435   22.3077 C   0  0  0  0  0  0  0  0  0  0  0  0
    9.4839   16.6170   21.5340 C   0  0  0  0  0  0  0  0  0  0  0  0
   11.8101   15.3284   20.1390 C   0  0  0  0  0  0  0  0  0  0  0  0
   11.8324   15.7566   21.5963 C   0  0  0  0  0  0  0  0  0  0  0  0
 15 16  1  0  0  0
 16 13  1  0  0  0
 13 14  1  0  0  0
 13 11  1  0  0  0
 11 12  2  0  0  0
 11  1  1  0  0  0
  1  2  1  0  0  0
  1  3  1  0  0  0
  4  1  1  0  0  0
  4  5  1  0  0  0
  5  6  1  0  0  0
  6  7  1  0  0  0
  7  8  1  0  0  0
  8  9  1  0  0  0
  9  4  1  0  0  0
  8 10  1  0  0  0
M  END
> <minimizedAffinity>
-5.41613

> <minimizedRMSD>
1.38941

$$$$
C3219-P551


 23 25  0  0  0  0  0  0  0  0999 V2000
    8.8906   14.9569   23.3271 C   0  0  0  0  0  0  0  0  0  0  0  0
   10.2046   15.3151   22.7464 N   0  0  0  0  0  0  0  0  0  0  0  0
   10.1930   15.7329   21.3422 C   0  0  0  0  0  0  0  0  0  0  0  0
   11.5388   15.5968   20.6536 C   0  0  0  0  0  0  0  0  0  0  0  0
   12.5944   16.2857   21.4920 C   0  0  0  0  0  0  0  0  0  0  0  0
   12.6550   15.6300   22.8527 C   0  0  0  0  0  0  0  0  0  0  0  0
   11.3194   15.5064   23.5458 C   0  0  0  0  0  0  0  0  0  0  0  0
   11.2767   15.4722   24.7791 O   0  0  0  0  0  0  0  0  0  0  0  0
    8.7993   13.5165   23.8435 C   0  0  0  0  0  0  0  0  0  0  0  0
    9.6399   12.5091   23.3323 C   0  0  0  0  0  0  0  0  0  0  0  0
    9.4719   11.1739   23.6970 C   0  0  0  0  0  0  0  0  0  0  0  0
    8.4581   10.8227   24.5786 C   0  0  0  0  0  0  0  0  0  0  0  0
    7.6096   11.7968   25.0923 C   0  0  0  0  0  0  0  0  0  0  0  0
    7.7715   13.1318   24.7201 C   0  0  0  0  0  0  0  0  0  0  0  0
    8.6392   15.7001   25.7386 N   0  0  0  0  0  0  0  0  0  0  0  0
    8.2781   16.0553   24.2681 C   0  0  0  0  0  0  0  0  0  0  0  0
    7.6481   16.9411   23.8352 O   0  0  0  0  0  0  0  0  0  0  0  0
    9.1238   14.8505   25.8505 H   0  0  0  0  0  0  0  0  0  0  0  0
   10.8611   16.7527   29.1905 O   0  0  0  0  0  0  0  0  0  0  0  0
    9.9168   16.6715   28.4321 C   0  0  0  0  0  0  0  0  0  0  0  0
    8.7941   15.6415   28.2489 C   0  0  0  0  0  0  0  0  0  0  0  0
    8.3765   16.4214   26.9786 C   0  0  0  0  0  0  0  0  0  0  0  0
    9.3952   17.5492   27.2860 C   0  0  0  0  0  0  0  0  0  0  0  0
 19 20  2  0  0  0
 20 21  1  0  0  0
 21 22  1  0  0  0
 22 15  1  0  0  0
 15 16  1  0  0  0
 16 17  2  0  0  0
 16  1  1  0  0  0
  1  9  1  0  0  0
  9 10  2  0  0  0
 10 11  1  0  0  0
 11 12  2  0  0  0
 12 13  1  0  0  0
 13 14  2  0  0  0
  1  2  1  0  0  0
  2  3  1  0  0  0
  3  4  1  0  0  0
  4  5  1  0  0  0
  5  6  1  0  0  0
  6  7  1  0  0  0
  7  8  2  0  0  0
 22 23  1  0  0  0
 23 20  1  0  0  0
 14  9  1  0  0  0
  7  2  1  0  0  0
 15 18  1  0  0  0
M  END
> <minimizedAffinity>
-6.55386

> <minimizedRMSD>
0.70692

$$$$
C935-P213


 23 26  0  0  0  0  0  0  0  0999 V2000
   22.6281   13.8888    0.9012 C   0  0  0  0  0  0  0  0  0  0  0  0
   22.0020   13.7008   -0.2474 N   0  0  0  0  0  0  0  0  0  0  0  0
   22.7097   12.8066   -0.9983 N   0  0  0  0  0  0  0  0  0  0  0  0
   23.7566   12.4427   -0.2987 C   0  0  0  0  0  0  0  0  0  0  0  0
   23.7208   13.0540    0.9286 N   0  0  0  0  0  0  0  0  0  0  0  0
   24.7613   12.9128    1.9277 C   0  0  0  0  0  0  0  0  0  0  0  0
   25.8013   11.8265    1.5986 C   0  0  0  0  0  0  0  0  0  0  0  0
   26.1109   11.7907    0.0916 C   0  0  0  0  0  0  0  0  0  0  0  0
   24.8481   11.5366   -0.7191 C   0  0  0  0  0  0  0  0  0  0  0  0
   27.0670   12.0772    2.3416 C   0  0  0  0  0  0  0  0  0  0  0  0
   27.8141   13.1582    2.3650 N   0  0  0  0  0  0  0  0  0  0  0  0
   28.8992   12.7398    3.1022 C   0  0  0  0  0  0  0  0  0  0  0  0
   28.8364   11.4690    3.5183 N   0  0  0  0  0  0  0  0  0  0  0  0
   27.6102   11.0264    3.0187 O   0  0  0  0  0  0  0  0  0  0  0  0
   30.1386   13.6698    3.4014 C   0  0  0  0  0  0  0  0  0  0  0  0
   30.5089   13.8056    4.8880 C   0  0  0  0  0  0  0  0  0  0  0  0
   29.6212   15.0570    4.8753 C   0  0  0  0  0  0  0  0  0  0  0  0
   29.7937   15.1207    3.4070 N   0  0  0  0  0  0  0  0  0  0  0  0
   30.5504   15.7321    3.1004 H   0  0  0  0  0  0  0  0  0  0  0  0
   21.0833   15.7883    1.3791 C   0  0  0  0  0  0  0  0  0  0  0  0
   22.1436   14.8350    1.9716 C   0  0  0  0  0  0  0  0  0  0  0  0
   23.2662   15.7060    2.5481 C   0  0  0  0  0  0  0  0  0  0  0  0
   21.4279   14.0301    3.0388 C   0  0  0  0  0  0  0  0  0  0  0  0
 20 21  1  0  0  0
 21 22  1  0  0  0
 21 23  1  0  0  0
 21  1  1  0  0  0
  1  2  2  0  0  0
  2  3  1  0  0  0
  3  4  2  0  0  0
  4  5  1  0  0  0
  5  6  1  0  0  0
  6  7  1  0  0  0
  7 10  1  0  0  0
 10 11  2  0  0  0
 11 12  1  0  0  0
 15 12  1  0  0  0
 15 16  1  0  0  0
 16 17  1  0  0  0
 17 18  1  0  0  0
 12 13  2  0  0  0
 13 14  1  0  0  0
  7  8  1  0  0  0
  8  9  1  0  0  0
  5  1  1  0  0  0
 14 10  1  0  0  0
  9  4  1  0  0  0
 18 15  1  0  0  0
 18 19  1  0  0  0
M  END
> <minimizedAffinity>
-4.52027

> <minimizedRMSD>
0.55162

$$$$
C1800-P191


 17 19  0  0  0  0  0  0  0  0999 V2000
    8.4459   14.4705   24.8028 C   0  0  0  0  0  0  0  0  0  0  0  0
    7.7753   13.4169   25.3016 N   0  0  0  0  0  0  0  0  0  0  0  0
    8.0642   12.1993   24.7905 C   0  0  0  0  0  0  0  0  0  0  0  0
    9.0752   11.9897   23.8648 C   0  0  0  0  0  0  0  0  0  0  0  0
    9.7583   13.1170   23.3777 C   0  0  0  0  0  0  0  0  0  0  0  0
    9.4097   14.3961   23.8050 C   0  0  0  0  0  0  0  0  0  0  0  0
    9.4952   10.6101   23.4586 C   0  0  0  0  0  0  0  0  0  0  0  0
    8.4935    9.4975   23.6975 C   0  0  0  0  0  0  0  0  0  0  0  0
    7.4590    9.7086   24.7806 C   0  0  0  0  0  0  0  0  0  0  0  0
    7.1881   11.1060   25.2885 C   0  0  0  0  0  0  0  0  0  0  0  0
    9.9494   15.6963   23.2481 C   0  0  0  0  0  0  0  0  0  0  0  0
   11.0553   16.2812   24.1351 C   0  0  0  0  0  0  0  0  0  0  0  0
   12.4465   15.8660   23.6986 C   0  0  0  0  0  0  0  0  0  0  0  0
   12.6603   16.1937   22.2990 N   0  0  0  0  0  0  0  0  0  0  0  0
   11.7705   15.4068   21.4488 C   0  0  0  0  0  0  0  0  0  0  0  0
   10.3066   15.7091   21.7498 C   0  0  0  0  0  0  0  0  0  0  0  0
   13.6286   15.9907   22.0507 H   0  0  0  0  0  0  0  0  0  0  0  0
  1  2  2  0  0  0
  2  3  1  0  0  0
  3  4  2  0  0  0
  4  5  1  0  0  0
  5  6  2  0  0  0
  6 11  1  0  0  0
 11 12  1  0  0  0
 12 13  1  0  0  0
 13 14  1  0  0  0
 14 15  1  0  0  0
 15 16  1  0  0  0
  4  7  1  0  0  0
  7  8  1  0  0  0
  8  9  1  0  0  0
  9 10  1  0  0  0
  6  1  1  0  0  0
 16 11  1  0  0  0
 10  3  1  0  0  0
 14 17  1  0  0  0
M  END
> <minimizedAffinity>
-6.03841

> <minimizedRMSD>
0.34972

$$$$
C8160-P465


 15 15  0  0  0  0  0  0  0  0999 V2000
    8.0507   14.2668   23.3463 S   0  0  0  0  0  0  0  0  0  0  0  0
    7.3416   13.3199   22.5169 O   0  0  0  0  0  0  0  0  0  0  0  0
    7.4086   15.4490   23.8641 O   0  0  0  0  0  0  0  0  0  0  0  0
    9.4839   14.6857   22.5994 N   0  0  0  0  0  0  0  0  0  0  0  0
   10.4242   15.5260   23.3721 C   0  0  0  0  0  0  0  0  0  0  0  0
   11.7905   15.3925   22.7167 C   0  0  0  0  0  0  0  0  0  0  0  0
   11.7344   15.9317   21.2962 C   0  0  0  0  0  0  0  0  0  0  0  0
   10.6409   15.2395   20.4915 C   0  0  0  0  0  0  0  0  0  0  0  0
    9.3029   15.2438   21.2260 C   0  0  0  0  0  0  0  0  0  0  0  0
    8.6309   13.4538   24.6884 N   0  0  0  0  0  0  0  0  0  0  0  0
    9.1270   14.1395   25.2577 H   0  0  0  0  0  0  0  0  0  0  0  0
    9.5359   12.3118   24.5136 C   0  0  0  0  0  0  0  0  0  0  0  0
    7.7739   10.8244   25.5343 C   0  0  0  0  0  0  0  0  0  0  0  0
    8.8009   10.9788   24.4203 C   0  0  0  0  0  0  0  0  0  0  0  0
    9.7892    9.8188   24.3994 C   0  0  0  0  0  0  0  0  0  0  0  0
 13 14  1  0  0  0
 14 15  1  0  0  0
 14 12  1  0  0  0
 12 10  1  0  0  0
 10  1  1  0  0  0
  1  2  2  0  0  0
  1  3  2  0  0  0
  1  4  1  0  0  0
  4  5  1  0  0  0
  5  6  1  0  0  0
  6  7  1  0  0  0
  7  8  1  0  0  0
  8  9  1  0  0  0
  9  4  1  0  0  0
 10 11  1  0  0  0
M  END
> <minimizedAffinity>
-4.92185

> <minimizedRMSD>
0.38920

$$$$
C8169-P465


 15 15  0  0  0  0  0  0  0  0999 V2000
    7.4273   13.2948   22.5853 O   0  0  0  0  0  0  0  0  0  0  0  0
    8.1513   14.2615   23.3787 S   0  0  0  0  0  0  0  0  0  0  0  0
    7.5130   15.4390   23.9111 O   0  0  0  0  0  0  0  0  0  0  0  0
    9.5378   14.6954   22.5655 N   0  0  0  0  0  0  0  0  0  0  0  0
   10.4662   15.6155   23.2520 C   0  0  0  0  0  0  0  0  0  0  0  0
   11.8217   15.4456   22.5862 C   0  0  0  0  0  0  0  0  0  0  0  0
   11.7259   15.8673   21.1293 C   0  0  0  0  0  0  0  0  0  0  0  0
   10.6293   15.1005   20.3995 C   0  0  0  0  0  0  0  0  0  0  0  0
    9.3077   15.1376   21.1615 C   0  0  0  0  0  0  0  0  0  0  0  0
    8.8233   13.4732   24.6992 N   0  0  0  0  0  0  0  0  0  0  0  0
    8.0681   12.9593   25.1531 H   0  0  0  0  0  0  0  0  0  0  0  0
    9.9225   12.5227   24.4942 C   0  0  0  0  0  0  0  0  0  0  0  0
    9.4843   11.2277   23.8406 C   0  0  0  0  0  0  0  0  0  0  0  0
    8.8710   10.2371   24.8063 C   0  0  0  0  0  0  0  0  0  0  0  0
    7.4157   10.7648   25.6700 Cl  0  0  0  0  0  0  0  0  0  0  0  0
  1  2  2  0  0  0
  2  3  2  0  0  0
  2 10  1  0  0  0
 10 12  1  0  0  0
 12 13  1  0  0  0
 13 14  1  0  0  0
 14 15  1  0  0  0
  2  4  1  0  0  0
  4  5  1  0  0  0
  5  6  1  0  0  0
  6  7  1  0  0  0
  7  8  1  0  0  0
  8  9  1  0  0  0
  9  4  1  0  0  0
 10 11  1  0  0  0
M  END
> <minimizedAffinity>
-4.75681

> <minimizedRMSD>
0.52930

$$$$
C8172-P465


 16 16  0  0  0  0  0  0  0  0999 V2000
    7.9458   14.2882   23.3376 S   0  0  0  0  0  0  0  0  0  0  0  0
    7.3219   13.1907   22.6374 O   0  0  0  0  0  0  0  0  0  0  0  0
    7.2245   15.4984   23.6471 O   0  0  0  0  0  0  0  0  0  0  0  0
    9.3889   14.6908   22.5999 N   0  0  0  0  0  0  0  0  0  0  0  0
   10.3562   15.4654   23.4092 C   0  0  0  0  0  0  0  0  0  0  0  0
   11.7237   15.3058   22.7657 C   0  0  0  0  0  0  0  0  0  0  0  0
   11.6947   15.8888   21.3625 C   0  0  0  0  0  0  0  0  0  0  0  0
   10.5808   15.2679   20.5270 C   0  0  0  0  0  0  0  0  0  0  0  0
    9.2368   15.3009   21.2506 C   0  0  0  0  0  0  0  0  0  0  0  0
    8.5282   13.7496   24.7964 N   0  0  0  0  0  0  0  0  0  0  0  0
    9.2563   14.4089   25.0713 H   0  0  0  0  0  0  0  0  0  0  0  0
    9.1047   12.4095   24.9717 C   0  0  0  0  0  0  0  0  0  0  0  0
   10.3603   12.5823   25.8196 C   0  0  0  0  0  0  0  0  0  0  0  0
    9.5074   11.6594   23.7191 C   0  0  0  0  0  0  0  0  0  0  0  0
    7.0225   11.1724   26.0267 C   0  0  0  0  0  0  0  0  0  0  0  0
    8.0594   11.6290   25.6371 C   0  0  0  0  0  0  0  0  0  0  0  0
 15 16  3  0  0  0
 16 12  1  0  0  0
 12 13  1  0  0  0
 12 14  1  0  0  0
 12 10  1  0  0  0
 10  1  1  0  0  0
  1  2  2  0  0  0
  1  3  2  0  0  0
  1  4  1  0  0  0
  4  5  1  0  0  0
  5  6  1  0  0  0
  6  7  1  0  0  0
  7  8  1  0  0  0
  8  9  1  0  0  0
  9  4  1  0  0  0
 10 11  1  0  0  0
M  END
> <minimizedAffinity>
-5.48930

> <minimizedRMSD>
0.43911

$$$$
C8041-P161


 20 20  0  0  0  0  0  0  0  0999 V2000
    9.5842   14.5055   22.7019 N   0  0  0  0  0  0  0  0  0  0  0  0
    8.5119   13.4567   23.1312 C   0  0  0  0  0  0  0  0  0  0  0  0
    7.4757   13.1917   22.6532 O   0  0  0  0  0  0  0  0  0  0  0  0
   10.3467   14.5919   23.3185 H   0  0  0  0  0  0  0  0  0  0  0  0
    9.1232   12.7241   24.3788 C   0  0  0  0  0  0  0  0  0  0  0  0
    9.6946   13.6374   25.2337 F   0  0  0  0  0  0  0  0  0  0  0  0
   10.2014   11.9647   23.9821 F   0  0  0  0  0  0  0  0  0  0  0  0
    8.1025   11.8618   25.0789 C   0  0  0  0  0  0  0  0  0  0  0  0
    8.0184   10.5080   24.7528 C   0  0  0  0  0  0  0  0  0  0  0  0
    7.0868    9.7348   25.4074 C   0  0  0  0  0  0  0  0  0  0  0  0
    6.2358   10.2065   26.3413 N   0  0  0  0  0  0  0  0  0  0  0  0
    6.3062   11.5254   26.6179 C   0  0  0  0  0  0  0  0  0  0  0  0
    7.2165   12.3845   26.0260 C   0  0  0  0  0  0  0  0  0  0  0  0
    9.0225   16.7115   21.8788 C   0  0  0  0  0  0  0  0  0  0  0  0
    9.6396   15.3730   21.5428 C   0  0  0  0  0  0  0  0  0  0  0  0
   11.0803   15.4933   21.0755 C   0  0  0  0  0  0  0  0  0  0  0  0
   11.1809   15.6120   19.5776 C   0  0  0  0  0  0  0  0  0  0  0  0
   12.4439   15.3757   19.1705 F   0  0  0  0  0  0  0  0  0  0  0  0
   10.8242   16.8379   19.1763 F   0  0  0  0  0  0  0  0  0  0  0  0
   10.3702   14.7605   18.9310 F   0  0  0  0  0  0  0  0  0  0  0  0
 15 14  1  0  0  0
 15 16  1  0  0  0
 16 17  1  0  0  0
 17 18  1  0  0  0
 17 19  1  0  0  0
 17 20  1  0  0  0
 15  1  1  0  0  0
  1  2  1  0  0  0
  2  3  2  0  0  0
  2  5  1  0  0  0
  5  6  1  0  0  0
  5  7  1  0  0  0
  5  8  1  0  0  0
  8  9  2  0  0  0
  9 10  1  0  0  0
 10 11  2  0  0  0
 11 12  1  0  0  0
 12 13  2  0  0  0
 13  8  1  0  0  0
  1  4  1  0  0  0
M  END
> <minimizedAffinity>
-6.29148

> <minimizedRMSD>
0.53783

$$$$
C2382-P152


 15 15  0  0  0  0  0  0  0  0999 V2000
    8.9443   14.6121   23.3214 C   0  0  0  0  0  0  0  0  0  0  0  0
    7.8469   15.4473   23.9967 C   0  0  0  0  0  0  0  0  0  0  0  0
    8.2165   13.8530   22.2083 C   0  0  0  0  0  0  0  0  0  0  0  0
    9.9039   15.6155   22.7973 N   0  0  0  0  0  0  0  0  0  0  0  0
   11.3170   15.5184   23.1509 C   0  0  0  0  0  0  0  0  0  0  0  0
   12.1255   14.7392   22.1112 C   0  0  0  0  0  0  0  0  0  0  0  0
   11.9334   15.3222   20.7135 C   0  0  0  0  0  0  0  0  0  0  0  0
   10.4531   15.4589   20.3835 C   0  0  0  0  0  0  0  0  0  0  0  0
    9.7247   16.2224   21.4799 C   0  0  0  0  0  0  0  0  0  0  0  0
    9.5513   13.6694   24.4264 C   0  0  0  0  0  0  0  0  0  0  0  0
    9.7010   14.0205   25.6043 O   0  0  0  0  0  0  0  0  0  0  0  0
    9.9467   12.2524   24.1080 C   0  0  0  0  0  0  0  0  0  0  0  0
    8.0721   11.1140   25.5116 C   0  0  0  0  0  0  0  0  0  0  0  0
    8.8611   11.1842   24.2197 C   0  0  0  0  0  0  0  0  0  0  0  0
    9.4795    9.8280   23.9133 C   0  0  0  0  0  0  0  0  0  0  0  0
 13 14  1  0  0  0
 14 15  1  0  0  0
 14 12  1  0  0  0
 12 10  1  0  0  0
 10 11  2  0  0  0
 10  1  1  0  0  0
  1  2  1  0  0  0
  1  3  1  0  0  0
  1  4  1  0  0  0
  4  5  1  0  0  0
  5  6  1  0  0  0
  6  7  1  0  0  0
  7  8  1  0  0  0
  8  9  1  0  0  0
  9  4  1  0  0  0
M  END
> <minimizedAffinity>
-5.55771

> <minimizedRMSD>
0.97665

$$$$
C2384-P152


 16 16  0  0  0  0  0  0  0  0999 V2000
   10.1477   13.7447   24.7181 C   0  0  0  0  0  0  0  0  0  0  0  0
   11.5951   13.4119   24.2940 C   0  0  0  0  0  0  0  0  0  0  0  0
   10.1507   14.5888   26.0005 C   0  0  0  0  0  0  0  0  0  0  0  0
    9.4887   12.3493   24.9141 C   0  0  0  0  0  0  0  0  0  0  0  0
    9.5791   11.5232   23.6286 C   0  0  0  0  0  0  0  0  0  0  0  0
    9.4214   10.0559   23.9180 C   0  0  0  0  0  0  0  0  0  0  0  0
    8.1783    9.8303   24.7486 C   0  0  0  0  0  0  0  0  0  0  0  0
    7.8910   10.7724   25.8358 N   0  0  0  0  0  0  0  0  0  0  0  0
    8.0834   12.1852   25.4635 C   0  0  0  0  0  0  0  0  0  0  0  0
    8.5092   10.5588   26.6184 H   0  0  0  0  0  0  0  0  0  0  0  0
    9.3774   14.5861   23.6830 C   0  0  0  0  0  0  0  0  0  0  0  0
    8.1759   14.8347   23.8763 O   0  0  0  0  0  0  0  0  0  0  0  0
   10.0681   15.3034   22.5095 C   0  0  0  0  0  0  0  0  0  0  0  0
    9.9134   14.4396   21.2581 C   0  0  0  0  0  0  0  0  0  0  0  0
   12.3589   15.6916   21.3369 C   0  0  0  0  0  0  0  0  0  0  0  0
   11.5019   15.8355   22.5927 C   0  0  0  0  0  0  0  0  0  0  0  0
 15 16  1  0  0  0
 16 13  1  0  0  0
 13 14  1  0  0  0
 13 11  1  0  0  0
 11 12  2  0  0  0
 11  1  1  0  0  0
  1  2  1  0  0  0
  1  3  1  0  0  0
  4  1  1  0  0  0
  4  5  1  0  0  0
  5  6  1  0  0  0
  6  7  1  0  0  0
  7  8  1  0  0  0
  8  9  1  0  0  0
  9  4  1  0  0  0
  8 10  1  0  0  0
M  END
> <minimizedAffinity>
-5.62263

> <minimizedRMSD>
1.08991

$$$$
C21693-P248


 17 17  0  0  0  0  0  0  0  0999 V2000
    7.3631   14.2379   26.5864 C   0  0  0  0  0  0  0  0  0  0  0  0
    7.2310   13.8658   25.1005 C   0  0  0  0  0  0  0  0  0  0  0  0
    8.0108   12.6520   24.8120 N   0  0  0  0  0  0  0  0  0  0  0  0
    9.3915   12.7158   24.3586 C   0  0  0  0  0  0  0  0  0  0  0  0
    9.5914   11.6857   23.2802 C   0  0  0  0  0  0  0  0  0  0  0  0
    9.1987   10.3040   23.7356 C   0  0  0  0  0  0  0  0  0  0  0  0
    8.1392   10.3229   24.7173 N   0  0  0  0  0  0  0  0  0  0  0  0
    7.4711   11.4244   25.1564 C   0  0  0  0  0  0  0  0  0  0  0  0
    6.4595   11.2801   25.8374 O   0  0  0  0  0  0  0  0  0  0  0  0
    7.8754    9.4574   25.1053 H   0  0  0  0  0  0  0  0  0  0  0  0
    7.5472   15.1063   24.2787 C   0  0  0  0  0  0  0  0  0  0  0  0
    7.2162   15.0297   22.5268 S   0  0  0  0  0  0  0  0  0  0  0  0
    5.9116   16.0598   22.3775 N   0  0  0  0  0  0  0  0  0  0  0  0
    8.3222   15.6762   21.8616 O   0  0  0  0  0  0  0  0  0  0  0  0
    6.7653   13.7260   22.0995 O   0  0  0  0  0  0  0  0  0  0  0  0
    6.1842   16.9982   22.6699 H   0  0  0  0  0  0  0  0  0  0  0  0
    5.1478   15.7286   22.9668 H   0  0  0  0  0  0  0  0  0  0  0  0
  2  1  1  0  0  0
  2 11  1  0  0  0
 11 12  1  0  0  0
 12 13  1  0  0  0
 12 14  2  0  0  0
 12 15  2  0  0  0
  2  3  1  0  0  0
  3  4  1  0  0  0
  4  5  1  0  0  0
  5  6  1  0  0  0
  6  7  1  0  0  0
  7  8  1  0  0  0
  8  9  2  0  0  0
  8  3  1  0  0  0
 13 16  1  0  0  0
 13 17  1  0  0  0
  7 10  1  0  0  0
M  END
> <minimizedAffinity>
-4.60492

> <minimizedRMSD>
0.42274

$$$$
C21712-P248


 21 22  0  0  0  0  0  0  0  0999 V2000
    7.6209   15.0299   22.3498 S   0  0  0  0  0  0  0  0  0  0  0  0
    8.6553   15.6623   21.5601 O   0  0  0  0  0  0  0  0  0  0  0  0
    7.0328   13.8007   21.8786 O   0  0  0  0  0  0  0  0  0  0  0  0
    6.3952   16.1584   22.4985 N   0  0  0  0  0  0  0  0  0  0  0  0
    6.2294   16.4799   21.5448 H   0  0  0  0  0  0  0  0  0  0  0  0
    5.0354   15.9912   23.0736 C   0  0  0  0  0  0  0  0  0  0  0  0
    4.8389   15.1734   24.3123 C   0  0  0  0  0  0  0  0  0  0  0  0
    3.3840   14.7468   24.3247 C   0  0  0  0  0  0  0  0  0  0  0  0
    3.1045   14.6059   22.9421 N   0  0  0  0  0  0  0  0  0  0  0  0
    4.0726   15.2179   22.1829 C   0  0  0  0  0  0  0  0  0  0  0  0
    4.0864   15.1815   20.9685 O   0  0  0  0  0  0  0  0  0  0  0  0
    2.3225   14.1335   22.5754 H   0  0  0  0  0  0  0  0  0  0  0  0
    8.2628   14.8591   24.0175 C   0  0  0  0  0  0  0  0  0  0  0  0
   10.3973   14.1817   25.1741 C   0  0  0  0  0  0  0  0  0  0  0  0
    9.3620   13.7862   24.1131 C   0  0  0  0  0  0  0  0  0  0  0  0
    8.7820   12.4098   24.3983 C   0  0  0  0  0  0  0  0  0  0  0  0
    7.7023   12.2150   25.2778 C   0  0  0  0  0  0  0  0  0  0  0  0
    7.1487   10.9457   25.4554 C   0  0  0  0  0  0  0  0  0  0  0  0
    7.6618    9.8627   24.7486 C   0  0  0  0  0  0  0  0  0  0  0  0
    8.7405   10.0355   23.8883 C   0  0  0  0  0  0  0  0  0  0  0  0
    9.3012   11.2992   23.7174 C   0  0  0  0  0  0  0  0  0  0  0  0
 15 14  1  0  0  0
 15 13  1  0  0  0
 13  1  1  0  0  0
  1  2  2  0  0  0
  1  3  2  0  0  0
  1  4  1  0  0  0
  6  4  1  0  0  0
  6  7  1  0  0  0
  7  8  1  0  0  0
  8  9  1  0  0  0
  9 10  1  0  0  0
 10 11  2  0  0  0
 15 16  1  0  0  0
 16 17  2  0  0  0
 17 18  1  0  0  0
 18 19  2  0  0  0
 19 20  1  0  0  0
 20 21  2  0  0  0
 10  6  1  0  0  0
 21 16  1  0  0  0
  4  5  1  0  0  0
  9 12  1  0  0  0
M  END
> <minimizedAffinity>
-6.01659

> <minimizedRMSD>
1.93381

$$$$
C956-P337


 19 21  0  0  0  0  0  0  0  0999 V2000
   22.9560   14.3741    2.8537 C   0  0  0  0  0  0  0  0  0  0  0  0
   23.6621   13.5522    1.8497 C   0  0  0  0  0  0  0  0  0  0  0  0
   23.2542   13.2887    0.6236 N   0  0  0  0  0  0  0  0  0  0  0  0
   24.2126   12.5181    0.0055 N   0  0  0  0  0  0  0  0  0  0  0  0
   25.1898   12.3263    0.8681 C   0  0  0  0  0  0  0  0  0  0  0  0
   24.8763   12.9555    2.0433 N   0  0  0  0  0  0  0  0  0  0  0  0
   25.7611   13.0590    3.1833 C   0  0  0  0  0  0  0  0  0  0  0  0
   26.9425   12.0899    3.1045 C   0  0  0  0  0  0  0  0  0  0  0  0
   27.5259   12.0433    1.6903 C   0  0  0  0  0  0  0  0  0  0  0  0
   26.4670   11.5820    0.6810 C   0  0  0  0  0  0  0  0  0  0  0  0
   26.9037   11.7603   -0.6789 N   0  0  0  0  0  0  0  0  0  0  0  0
   28.0603   11.0923   -1.4578 C   0  0  0  0  0  0  0  0  0  0  0  0
   28.8850   10.3525   -1.0971 O   0  0  0  0  0  0  0  0  0  0  0  0
   26.3810   12.4139   -1.1975 H   0  0  0  0  0  0  0  0  0  0  0  0
   27.9504   11.6023   -2.8897 C   0  0  0  0  0  0  0  0  0  0  0  0
   28.9747   10.9803   -3.8375 C   0  0  0  0  0  0  0  0  0  0  0  0
   29.1293   11.7252   -5.1938 C   0  0  0  0  0  0  0  0  0  0  0  0
   29.5277   10.1431   -6.0050 S   0  0  0  0  0  0  0  0  0  0  0  0
   28.5416    9.6615   -4.5451 C   0  0  0  0  0  0  0  0  0  0  0  0
  1  2  1  0  0  0
  2  3  2  0  0  0
  3  4  1  0  0  0
  4  5  2  0  0  0
  5  6  1  0  0  0
  6  7  1  0  0  0
  7  8  1  0  0  0
  8  9  1  0  0  0
  9 10  1  0  0  0
 10 11  1  0  0  0
 11 12  1  0  0  0
 12 13  2  0  0  0
 12 15  1  0  0  0
 15 16  1  0  0  0
 16 17  1  0  0  0
 17 18  1  0  0  0
 18 19  1  0  0  0
  6  2  1  0  0  0
 19 16  1  0  0  0
 10  5  1  0  0  0
 11 14  1  0  0  0
M  END
> <minimizedAffinity>
-3.16471

> <minimizedRMSD>
2.06337

$$$$
C1002-P337


 21 23  0  0  0  0  0  0  0  0999 V2000
   28.8380   10.9574    1.3518 N   0  0  0  0  0  0  0  0  0  0  0  0
   27.8799   11.8168    2.2156 C   0  0  0  0  0  0  0  0  0  0  0  0
   28.0904   12.4583    3.1665 O   0  0  0  0  0  0  0  0  0  0  0  0
   28.4287   10.5676    0.5458 H   0  0  0  0  0  0  0  0  0  0  0  0
   26.4974   11.7461    1.5523 C   0  0  0  0  0  0  0  0  0  0  0  0
   26.5831   12.0232    0.0392 C   0  0  0  0  0  0  0  0  0  0  0  0
   25.2112   11.8740   -0.6176 C   0  0  0  0  0  0  0  0  0  0  0  0
   24.1842   12.6353    0.1268 C   0  0  0  0  0  0  0  0  0  0  0  0
   23.0255   13.0768   -0.3064 N   0  0  0  0  0  0  0  0  0  0  0  0
   22.4303   13.7652    0.7253 N   0  0  0  0  0  0  0  0  0  0  0  0
   23.2350   13.7223    1.7693 C   0  0  0  0  0  0  0  0  0  0  0  0
   23.0030   14.3613    3.0793 C   0  0  0  0  0  0  0  0  0  0  0  0
   24.3440   12.9963    1.4367 N   0  0  0  0  0  0  0  0  0  0  0  0
   25.5409   12.7566    2.2179 C   0  0  0  0  0  0  0  0  0  0  0  0
   30.2301   10.6367    1.5369 C   0  0  0  0  0  0  0  0  0  0  0  0
   31.0209   11.7961    0.9404 C   0  0  0  0  0  0  0  0  0  0  0  0
   31.4115   12.9667    1.8900 C   0  0  0  0  0  0  0  0  0  0  0  0
   32.7406   13.0574    1.1149 C   0  0  0  0  0  0  0  0  0  0  0  0
   32.5513   11.5683    0.7648 C   0  0  0  0  0  0  0  0  0  0  0  0
   30.7756    8.3588    0.2514 C   0  0  0  0  0  0  0  0  0  0  0  0
   30.5273    9.3829    0.8284 C   0  0  0  0  0  0  0  0  0  0  0  0
 20 21  3  0  0  0
 15 21  1  0  0  0
 15  1  1  0  0  0
  1  2  1  0  0  0
  2  3  2  0  0  0
  5  2  1  0  0  0
  5  6  1  0  0  0
  6  7  1  0  0  0
  7  8  1  0  0  0
  8  9  2  0  0  0
  9 10  1  0  0  0
 10 11  2  0  0  0
 11 12  1  0  0  0
 11 13  1  0  0  0
 13 14  1  0  0  0
 15 16  1  0  0  0
 16 17  1  0  0  0
 17 18  1  0  0  0
 18 19  1  0  0  0
 14  5  1  0  0  0
 19 16  1  0  0  0
 13  8  1  0  0  0
  1  4  1  0  0  0
M  END
> <minimizedAffinity>
-3.46494

> <minimizedRMSD>
0.52409

$$$$
C4702-P152


 11 11  0  0  0  0  0  0  0  0999 V2000
   11.3928   15.0839   19.0089 C   0  0  0  0  0  0  0  0  0  0  0  0
   11.1064   15.2065   20.3152 C   0  0  0  0  0  0  0  0  0  0  0  0
   12.0703   15.8654   21.2604 C   0  0  0  0  0  0  0  0  0  0  0  0
   12.2434   15.0107   22.5072 C   0  0  0  0  0  0  0  0  0  0  0  0
   10.8947   14.6364   23.1177 C   0  0  0  0  0  0  0  0  0  0  0  0
   10.0741   13.9059   22.1431 N   0  0  0  0  0  0  0  0  0  0  0  0
    9.8177   14.7320   20.9478 C   0  0  0  0  0  0  0  0  0  0  0  0
    8.8416   13.3180   22.7117 C   0  0  0  0  0  0  0  0  0  0  0  0
    8.0214   14.2444   23.6007 C   0  0  0  0  0  0  0  0  0  0  0  0
    9.2077   12.0516   23.4958 C   0  0  0  0  0  0  0  0  0  0  0  0
    8.3917   11.2221   23.9013 O   0  0  0  0  0  0  0  0  0  0  0  0
  1  2  2  0  0  0
  2  3  1  0  0  0
  3  4  1  0  0  0
  4  5  1  0  0  0
  5  6  1  0  0  0
  6  8  1  0  0  0
  8  9  1  0  0  0
  8 10  1  0  0  0
 10 11  2  0  0  0
  6  7  1  0  0  0
  7  2  1  0  0  0
M  END
> <minimizedAffinity>
-5.08655

> <minimizedRMSD>
1.07702

$$$$
C22606-P136


 27 31  0  0  0  0  0  0  0  0999 V2000
   22.8466   15.3570   25.8656 N   0  0  0  0  0  0  0  0  0  0  0  0
   22.2267   15.2610   24.6547 N   0  0  0  0  0  0  0  0  0  0  0  0
   23.0801   15.8077   23.7905 C   0  0  0  0  0  0  0  0  0  0  0  0
   24.2422   16.2912   24.4045 C   0  0  0  0  0  0  0  0  0  0  0  0
   25.4090   16.9621   24.0157 C   0  0  0  0  0  0  0  0  0  0  0  0
   26.3121   17.2635   24.9753 N   0  0  0  0  0  0  0  0  0  0  0  0
   26.0506   16.9167   26.2467 C   0  0  0  0  0  0  0  0  0  0  0  0
   24.9696   16.2830   26.7241 N   0  0  0  0  0  0  0  0  0  0  0  0
   24.0833   15.9887   25.7494 C   0  0  0  0  0  0  0  0  0  0  0  0
   20.4583   15.0126   28.6619 C   0  0  0  0  0  0  0  0  0  0  0  0
   21.0873   15.5247   27.5411 C   0  0  0  0  0  0  0  0  0  0  0  0
   22.1947   14.8410   27.0239 C   0  0  0  0  0  0  0  0  0  0  0  0
   22.6205   13.6756   27.6609 C   0  0  0  0  0  0  0  0  0  0  0  0
   21.9197   13.2463   28.7783 C   0  0  0  0  0  0  0  0  0  0  0  0
   20.8480   13.8863   29.2927 N   0  0  0  0  0  0  0  0  0  0  0  0
   25.7048   17.3492   22.6991 N   0  0  0  0  0  0  0  0  0  0  0  0
   26.2222   16.8103   22.0578 H   0  0  0  0  0  0  0  0  0  0  0  0
   25.1346   18.6689   22.4140 C   0  0  0  0  0  0  0  0  0  0  0  0
   25.9633   19.4677   21.4275 C   0  0  0  0  0  0  0  0  0  0  0  0
   25.3031   20.4366   20.6274 C   0  0  0  0  0  0  0  0  0  0  0  0
   26.0046   21.2276   19.7111 C   0  0  0  0  0  0  0  0  0  0  0  0
   27.3619   21.0278   19.6050 C   0  0  0  0  0  0  0  0  0  0  0  0
   28.0158   20.0949   20.3733 C   0  0  0  0  0  0  0  0  0  0  0  0
   27.3506   19.3023   21.2865 C   0  0  0  0  0  0  0  0  0  0  0  0
   29.3532   20.0689   20.1270 O   0  0  0  0  0  0  0  0  0  0  0  0
   29.4430   21.0044   19.0344 C   0  0  0  0  0  0  0  0  0  0  0  0
   28.2026   21.6944   18.7693 O   0  0  0  0  0  0  0  0  0  0  0  0
 10 11  2  0  0  0
 11 12  1  0  0  0
 12  1  1  0  0  0
  1  2  1  0  0  0
  2  3  2  0  0  0
  3  4  1  0  0  0
  4  5  2  0  0  0
  5 16  1  0  0  0
 16 18  1  0  0  0
 18 19  1  0  0  0
 19 20  2  0  0  0
 20 21  1  0  0  0
 21 22  2  0  0  0
 22 23  1  0  0  0
 23 24  2  0  0  0
 23 25  1  0  0  0
 25 26  1  0  0  0
 26 27  1  0  0  0
  5  6  1  0  0  0
  6  7  2  0  0  0
  7  8  1  0  0  0
  8  9  2  0  0  0
 12 13  2  0  0  0
 13 14  1  0  0  0
 14 15  2  0  0  0
 15 10  1  0  0  0
  9  1  1  0  0  0
  9  4  1  0  0  0
 24 19  1  0  0  0
 27 22  1  0  0  0
 16 17  1  0  0  0
M  END
> <minimizedAffinity>
-3.97408

> <minimizedRMSD>
1.32303

$$$$
C727-P93


 12 13  0  0  0  0  0  0  0  0999 V2000
    7.5517   12.1153   24.9419 C   0  0  0  0  0  0  0  0  0  0  0  0
    7.9779   13.1295   24.0976 C   0  0  0  0  0  0  0  0  0  0  0  0
    9.1203   12.9254   23.3336 C   0  0  0  0  0  0  0  0  0  0  0  0
    9.7643   11.6884   23.4401 C   0  0  0  0  0  0  0  0  0  0  0  0
    9.2642   10.7312   24.3004 C   0  0  0  0  0  0  0  0  0  0  0  0
    8.1756   10.9239   25.0721 N   0  0  0  0  0  0  0  0  0  0  0  0
    9.6558   13.8802   22.4786 N   0  0  0  0  0  0  0  0  0  0  0  0
   10.6520   14.7449   23.1162 C   0  0  0  0  0  0  0  0  0  0  0  0
   11.5921   15.2616   22.0405 C   0  0  0  0  0  0  0  0  0  0  0  0
   10.8373   15.9915   20.9417 C   0  0  0  0  0  0  0  0  0  0  0  0
    9.7003   15.1375   20.3932 C   0  0  0  0  0  0  0  0  0  0  0  0
    8.8064   14.5776   21.5039 C   0  0  0  0  0  0  0  0  0  0  0  0
  1  2  2  0  0  0
  2  3  1  0  0  0
  3  7  1  0  0  0
  7  8  1  0  0  0
  8  9  1  0  0  0
  9 10  1  0  0  0
 10 11  1  0  0  0
 11 12  1  0  0  0
  3  4  2  0  0  0
  4  5  1  0  0  0
  5  6  2  0  0  0
  6  1  1  0  0  0
 12  7  1  0  0  0
M  END
> <minimizedAffinity>
-5.54750

> <minimizedRMSD>
0.70868

$$$$
C2304-P137


 14 14  0  0  0  0  0  0  0  0999 V2000
   10.7294   12.5883   23.7904 C   0  0  0  0  0  0  0  0  0  0  0  0
   10.8572   12.9784   24.8832 O   0  0  0  0  0  0  0  0  0  0  0  0
   11.1413   13.2310   22.4382 N   0  0  0  0  0  0  0  0  0  0  0  0
   10.8524   12.7326   21.6399 H   0  0  0  0  0  0  0  0  0  0  0  0
    9.9904   11.3215   23.4055 C   0  0  0  0  0  0  0  0  0  0  0  0
    8.2172   10.4755   25.1280 N   0  0  0  0  0  0  0  0  0  0  0  0
    9.0473   10.8550   24.4128 C   0  0  0  0  0  0  0  0  0  0  0  0
   11.8737   14.4322   22.1636 C   0  0  0  0  0  0  0  0  0  0  0  0
   11.3645   14.9502   20.8663 C   0  0  0  0  0  0  0  0  0  0  0  0
   11.8073   14.7084   19.5818 C   0  0  0  0  0  0  0  0  0  0  0  0
   10.9901   15.4461   18.7657 N   0  0  0  0  0  0  0  0  0  0  0  0
   10.0983   16.0958   19.5692 C   0  0  0  0  0  0  0  0  0  0  0  0
   10.2576   15.7671   20.8290 N   0  0  0  0  0  0  0  0  0  0  0  0
   11.0375   15.4979   17.7837 H   0  0  0  0  0  0  0  0  0  0  0  0
  6  7  3  0  0  0
  7  5  1  0  0  0
  5  1  1  0  0  0
  1  2  2  0  0  0
  1  3  1  0  0  0
  3  8  1  0  0  0
  8  9  1  0  0  0
  9 10  2  0  0  0
 10 11  1  0  0  0
 11 12  1  0  0  0
 12 13  2  0  0  0
 13  9  1  0  0  0
  3  4  1  0  0  0
 11 14  1  0  0  0
M  END
> <minimizedAffinity>
-5.02220

> <minimizedRMSD>
0.26959

$$$$
C2384-P423


 16 16  0  0  0  0  0  0  0  0999 V2000
    9.8836   14.1884   24.5751 C   0  0  0  0  0  0  0  0  0  0  0  0
   11.3343   13.7463   24.3245 C   0  0  0  0  0  0  0  0  0  0  0  0
    9.8102   14.7808   26.0030 C   0  0  0  0  0  0  0  0  0  0  0  0
    8.8622   12.9640   24.3700 C   0  0  0  0  0  0  0  0  0  0  0  0
    7.9591   12.6811   25.5869 C   0  0  0  0  0  0  0  0  0  0  0  0
    6.9650   11.5642   25.3016 C   0  0  0  0  0  0  0  0  0  0  0  0
    7.6596   10.3186   24.7793 C   0  0  0  0  0  0  0  0  0  0  0  0
    8.5274   10.5908   23.6456 N   0  0  0  0  0  0  0  0  0  0  0  0
    9.5050   11.6451   23.8888 C   0  0  0  0  0  0  0  0  0  0  0  0
    7.9455   10.8686   22.8553 H   0  0  0  0  0  0  0  0  0  0  0  0
    9.4617   15.3234   23.5908 C   0  0  0  0  0  0  0  0  0  0  0  0
    8.7104   16.2270   23.9776 O   0  0  0  0  0  0  0  0  0  0  0  0
    9.9590   15.3331   22.1363 C   0  0  0  0  0  0  0  0  0  0  0  0
    8.8590   14.7856   21.2210 C   0  0  0  0  0  0  0  0  0  0  0  0
   11.8981   16.7709   21.3734 C   0  0  0  0  0  0  0  0  0  0  0  0
   10.4032   16.7092   21.6287 C   0  0  0  0  0  0  0  0  0  0  0  0
 15 16  1  0  0  0
 16 13  1  0  0  0
 13 14  1  0  0  0
 13 11  1  0  0  0
 11 12  2  0  0  0
 11  1  1  0  0  0
  1  2  1  0  0  0
  1  3  1  0  0  0
  4  1  1  0  0  0
  4  5  1  0  0  0
  5  6  1  0  0  0
  6  7  1  0  0  0
  7  8  1  0  0  0
  8  9  1  0  0  0
  9  4  1  0  0  0
  8 10  1  0  0  0
M  END
> <minimizedAffinity>
-5.09665

> <minimizedRMSD>
1.90187

$$$$
C2410-P423


 15 15  0  0  0  0  0  0  0  0999 V2000
    9.2894   13.9654   23.7912 C   0  0  0  0  0  0  0  0  0  0  0  0
   10.3524   14.3430   24.5707 F   0  0  0  0  0  0  0  0  0  0  0  0
    9.0009   12.4963   24.1429 C   0  0  0  0  0  0  0  0  0  0  0  0
    7.5318   12.2586   24.4905 C   0  0  0  0  0  0  0  0  0  0  0  0
    7.3759   10.8883   25.1393 C   0  0  0  0  0  0  0  0  0  0  0  0
    8.0492    9.7916   24.3262 C   0  0  0  0  0  0  0  0  0  0  0  0
    9.3810   10.1740   23.6856 C   0  0  0  0  0  0  0  0  0  0  0  0
    9.4047   11.5189   23.1166 N   0  0  0  0  0  0  0  0  0  0  0  0
    8.7576   11.5660   22.3295 H   0  0  0  0  0  0  0  0  0  0  0  0
    9.6244   14.2242   22.3212 C   0  0  0  0  0  0  0  0  0  0  0  0
    9.3187   15.6536   21.8631 C   0  0  0  0  0  0  0  0  0  0  0  0
   11.7616   16.2709   21.4224 C   0  0  0  0  0  0  0  0  0  0  0  0
   10.4334   16.6806   22.0113 C   0  0  0  0  0  0  0  0  0  0  0  0
   10.5988   17.0131   23.3176 F   0  0  0  0  0  0  0  0  0  0  0  0
   10.0385   17.8297   21.3969 F   0  0  0  0  0  0  0  0  0  0  0  0
 12 13  1  0  0  0
 13 14  1  0  0  0
 13 15  1  0  0  0
 13 11  1  0  0  0
 11 10  1  0  0  0
 10  1  1  0  0  0
  1  2  1  0  0  0
  1  3  1  0  0  0
  3  4  1  0  0  0
  4  5  1  0  0  0
  5  6  1  0  0  0
  6  7  1  0  0  0
  7  8  1  0  0  0
  8  3  1  0  0  0
  8  9  1  0  0  0
M  END
> <minimizedAffinity>
-4.96531

> <minimizedRMSD>
1.80282

$$$$
C7192-P364


  9  9  0  0  0  0  0  0  0  0999 V2000
    9.5770   12.1001   24.6118 C   0  0  0  0  0  0  0  0  0  0  0  0
    9.5184   10.7712   24.0830 C   0  0  0  0  0  0  0  0  0  0  0  0
    8.5575   10.0049   24.5985 N   0  0  0  0  0  0  0  0  0  0  0  0
    7.6530   11.0401   25.5524 S   0  0  0  0  0  0  0  0  0  0  0  0
    8.6243   12.3900   25.5050 N   0  0  0  0  0  0  0  0  0  0  0  0
   10.5261   13.1815   24.2327 C   0  0  0  0  0  0  0  0  0  0  0  0
   10.3058   13.6152   22.7908 C   0  0  0  0  0  0  0  0  0  0  0  0
    7.9587   13.5580   22.2417 O   0  0  0  0  0  0  0  0  0  0  0  0
    8.9313   14.2120   22.6155 C   0  0  0  0  0  0  0  0  0  0  0  0
  8  9  2  0  0  0
  9  7  1  0  0  0
  7  6  1  0  0  0
  6  1  1  0  0  0
  1  2  1  0  0  0
  2  3  2  0  0  0
  3  4  1  0  0  0
  4  5  1  0  0  0
  5  1  2  0  0  0
M  END
> <minimizedAffinity>
-3.03358

> <minimizedRMSD>
0.31837

$$$$
C2059-P257


 16 18  0  0  0  0  0  0  0  0999 V2000
    9.6496   11.8992   23.2108 C   0  0  0  0  0  0  0  0  0  0  0  0
    8.9846   11.1781   24.0847 N   0  0  0  0  0  0  0  0  0  0  0  0
    8.1057   12.0577   24.6452 C   0  0  0  0  0  0  0  0  0  0  0  0
    8.2531   13.3284   24.1242 C   0  0  0  0  0  0  0  0  0  0  0  0
    9.2707   13.2278   23.2187 N   0  0  0  0  0  0  0  0  0  0  0  0
    7.4719   14.5200   24.5526 C   0  0  0  0  0  0  0  0  0  0  0  0
    6.2686   14.0773   25.4120 C   0  0  0  0  0  0  0  0  0  0  0  0
    6.6033   12.9513   26.4031 C   0  0  0  0  0  0  0  0  0  0  0  0
    7.1114   11.6906   25.6829 C   0  0  0  0  0  0  0  0  0  0  0  0
    9.9982   14.2367   22.4627 C   0  0  0  0  0  0  0  0  0  0  0  0
   10.9488   15.0124   23.3820 C   0  0  0  0  0  0  0  0  0  0  0  0
   11.8559   15.8902   22.5342 C   0  0  0  0  0  0  0  0  0  0  0  0
   11.0794   16.8234   21.7359 N   0  0  0  0  0  0  0  0  0  0  0  0
   10.1427   16.1434   20.8369 C   0  0  0  0  0  0  0  0  0  0  0  0
    9.1940   15.2212   21.6087 C   0  0  0  0  0  0  0  0  0  0  0  0
   11.7192   17.3876   21.1767 H   0  0  0  0  0  0  0  0  0  0  0  0
  1  2  2  0  0  0
  2  3  1  0  0  0
  3  4  2  0  0  0
  4  5  1  0  0  0
  5 10  1  0  0  0
 10 11  1  0  0  0
 11 12  1  0  0  0
 12 13  1  0  0  0
 13 14  1  0  0  0
 14 15  1  0  0  0
  4  6  1  0  0  0
  6  7  1  0  0  0
  7  8  1  0  0  0
  8  9  1  0  0  0
  5  1  1  0  0  0
 15 10  1  0  0  0
  9  3  1  0  0  0
 13 16  1  0  0  0
M  END
> <minimizedAffinity>
-5.29918

> <minimizedRMSD>
1.90623

$$$$
C6703-P137


 16 16  0  0  0  0  0  0  0  0999 V2000
   10.0876   13.5713   22.7231 C   0  0  0  0  0  0  0  0  0  0  0  0
   10.1099   13.9356   25.2295 C   0  0  0  0  0  0  0  0  0  0  0  0
   10.3201   12.9266   24.0984 C   0  0  0  0  0  0  0  0  0  0  0  0
   11.7488   12.3767   24.1987 C   0  0  0  0  0  0  0  0  0  0  0  0
    9.2607   11.8213   24.2235 C   0  0  0  0  0  0  0  0  0  0  0  0
    9.5374   10.7685   23.4296 F   0  0  0  0  0  0  0  0  0  0  0  0
    8.0386   12.2829   23.8785 F   0  0  0  0  0  0  0  0  0  0  0  0
    9.1326   11.3627   25.4836 F   0  0  0  0  0  0  0  0  0  0  0  0
   11.1406   14.5417   22.2503 C   0  0  0  0  0  0  0  0  0  0  0  0
   12.1343   14.8010   22.9127 O   0  0  0  0  0  0  0  0  0  0  0  0
   10.8530   15.1469   20.9963 C   0  0  0  0  0  0  0  0  0  0  0  0
   11.4508   14.9153   19.7835 C   0  0  0  0  0  0  0  0  0  0  0  0
   10.8326   15.6212   18.8033 N   0  0  0  0  0  0  0  0  0  0  0  0
    9.9027   16.3287   19.4081 C   0  0  0  0  0  0  0  0  0  0  0  0
    9.8787   16.0790   20.7489 N   0  0  0  0  0  0  0  0  0  0  0  0
    9.2773   16.4894   21.4116 H   0  0  0  0  0  0  0  0  0  0  0  0
  2  3  1  0  0  0
  3  4  1  0  0  0
  3  1  1  0  0  0
  1  9  1  0  0  0
  9 10  2  0  0  0
  9 11  1  0  0  0
 11 12  2  0  0  0
 12 13  1  0  0  0
 13 14  2  0  0  0
 14 15  1  0  0  0
  3  5  1  0  0  0
  5  6  1  0  0  0
  5  7  1  0  0  0
  5  8  1  0  0  0
 15 11  1  0  0  0
 15 16  1  0  0  0
M  END
> <minimizedAffinity>
-5.19967

> <minimizedRMSD>
0.58199

$$$$
C7646-P354


 15 16  0  0  0  0  0  0  0  0999 V2000
    8.7658   14.2621   25.0564 C   0  0  0  0  0  0  0  0  0  0  0  0
    8.1026   15.2753   24.1257 C   0  0  0  0  0  0  0  0  0  0  0  0
    8.2973   16.9487   22.0773 N   0  0  0  0  0  0  0  0  0  0  0  0
    8.9859   15.5154   22.5877 S   0  0  0  0  0  0  0  0  0  0  0  0
   10.3651   15.8151   22.8779 O   0  0  0  0  0  0  0  0  0  0  0  0
    8.6145   14.5402   21.5852 O   0  0  0  0  0  0  0  0  0  0  0  0
    8.7092   17.2255   21.1861 H   0  0  0  0  0  0  0  0  0  0  0  0
    8.4702   17.6753   22.7720 H   0  0  0  0  0  0  0  0  0  0  0  0
    8.4948   12.7763   24.7886 C   0  0  0  0  0  0  0  0  0  0  0  0
    7.7286   12.0503   25.7808 N   0  0  0  0  0  0  0  0  0  0  0  0
    7.4490   10.6646   25.3565 C   0  0  0  0  0  0  0  0  0  0  0  0
    6.3464   10.2468   26.2705 C   0  0  0  0  0  0  0  0  0  0  0  0
    6.2642   10.5816   27.7285 C   0  0  0  0  0  0  0  0  0  0  0  0
    5.7007   11.4990   26.7461 C   0  0  0  0  0  0  0  0  0  0  0  0
    6.4688   12.6482   26.2208 C   0  0  0  0  0  0  0  0  0  0  0  0
  3  4  1  0  0  0
  4  5  2  0  0  0
  4  6  2  0  0  0
  4  2  1  0  0  0
  2  1  1  0  0  0
  1  9  1  0  0  0
  9 10  1  0  0  0
 10 11  1  0  0  0
 12 11  1  0  0  0
 12 13  1  0  0  0
 14 13  1  0  0  0
 14 15  1  0  0  0
 15 10  1  0  0  0
 14 12  1  0  0  0
  3  7  1  0  0  0
  3  8  1  0  0  0
M  END
> <minimizedAffinity>
-3.77041

> <minimizedRMSD>
1.97373

$$$$
C1595-P220


 14 14  0  0  0  0  0  0  0  0999 V2000
   11.7600   13.3654   23.6486 C   0  0  0  0  0  0  0  0  0  0  0  0
   12.8265   13.1486   24.0608 O   0  0  0  0  0  0  0  0  0  0  0  0
   11.3141   13.9681   22.3088 N   0  0  0  0  0  0  0  0  0  0  0  0
   10.3401   13.9782   22.1655 H   0  0  0  0  0  0  0  0  0  0  0  0
   10.4735   13.0615   24.3959 C   0  0  0  0  0  0  0  0  0  0  0  0
    9.6801   11.9448   23.7281 C   0  0  0  0  0  0  0  0  0  0  0  0
    7.8812   10.4158   24.5533 C   0  0  0  0  0  0  0  0  0  0  0  0
    8.4242   11.6367   24.4920 C   0  0  0  0  0  0  0  0  0  0  0  0
   12.0831   14.5175   21.2343 C   0  0  0  0  0  0  0  0  0  0  0  0
   11.0965   15.2527   20.4183 C   0  0  0  0  0  0  0  0  0  0  0  0
   10.8048   15.1925   19.0799 C   0  0  0  0  0  0  0  0  0  0  0  0
    9.7927   16.0716   18.8390 O   0  0  0  0  0  0  0  0  0  0  0  0
    9.5483   16.6503   20.0430 C   0  0  0  0  0  0  0  0  0  0  0  0
   10.2405   16.1492   21.0314 N   0  0  0  0  0  0  0  0  0  0  0  0
  7  8  2  0  0  0
  8  6  1  0  0  0
  6  5  1  0  0  0
  5  1  1  0  0  0
  1  2  2  0  0  0
  1  3  1  0  0  0
  3  9  1  0  0  0
  9 10  1  0  0  0
 10 11  2  0  0  0
 11 12  1  0  0  0
 12 13  1  0  0  0
 13 14  2  0  0  0
 14 10  1  0  0  0
  3  4  1  0  0  0
M  END
> <minimizedAffinity>
-5.59501

> <minimizedRMSD>
0.33800

$$$$
C1627-P220


 17 17  0  0  0  0  0  0  0  0999 V2000
   10.9437   13.1292   23.6348 C   0  0  0  0  0  0  0  0  0  0  0  0
   11.8609   12.7348   24.2279 O   0  0  0  0  0  0  0  0  0  0  0  0
   10.8742   13.9676   22.3614 N   0  0  0  0  0  0  0  0  0  0  0  0
    9.9658   14.2395   22.0965 H   0  0  0  0  0  0  0  0  0  0  0  0
    9.4829   12.9838   24.0635 C   0  0  0  0  0  0  0  0  0  0  0  0
    9.3892   13.8173   25.3292 C   0  0  0  0  0  0  0  0  0  0  0  0
    8.0983   14.6021   25.5081 C   0  0  0  0  0  0  0  0  0  0  0  0
    9.1216   11.5049   24.1609 C   0  0  0  0  0  0  0  0  0  0  0  0
    5.9251   11.0754   26.3230 C   0  0  0  0  0  0  0  0  0  0  0  0
    7.3417   11.1112   25.8676 C   0  0  0  0  0  0  0  0  0  0  0  0
    7.7022   11.3260   24.5982 C   0  0  0  0  0  0  0  0  0  0  0  0
   11.9069   14.4203   21.4947 C   0  0  0  0  0  0  0  0  0  0  0  0
   11.1027   15.2021   20.5428 C   0  0  0  0  0  0  0  0  0  0  0  0
   10.8923   15.0396   19.2031 C   0  0  0  0  0  0  0  0  0  0  0  0
    9.8738   15.8678   18.8475 O   0  0  0  0  0  0  0  0  0  0  0  0
    9.5708   16.5547   19.9785 C   0  0  0  0  0  0  0  0  0  0  0  0
   10.2281   16.1609   21.0347 N   0  0  0  0  0  0  0  0  0  0  0  0
  9 10  1  0  0  0
 10 11  2  0  0  0
 11  8  1  0  0  0
  5  8  1  0  0  0
  5  6  1  0  0  0
  6  7  1  0  0  0
  5  1  1  0  0  0
  1  2  2  0  0  0
  1  3  1  0  0  0
  3 12  1  0  0  0
 12 13  1  0  0  0
 13 14  2  0  0  0
 14 15  1  0  0  0
 15 16  1  0  0  0
 16 17  2  0  0  0
 17 13  1  0  0  0
  3  4  1  0  0  0
M  END
> <minimizedAffinity>
-5.52889

> <minimizedRMSD>
0.49263

$$$$
C12320-P183


 13 13  0  0  0  0  0  0  0  0999 V2000
    8.7506   14.1227   23.4580 N   0  0  0  0  0  0  0  0  0  0  0  0
    9.3967   14.7479   23.8592 H   0  0  0  0  0  0  0  0  0  0  0  0
    8.8102   12.7827   23.8236 C   0  0  0  0  0  0  0  0  0  0  0  0
    8.0122   12.1160   24.7985 C   0  0  0  0  0  0  0  0  0  0  0  0
    8.3493   10.7822   24.8728 C   0  0  0  0  0  0  0  0  0  0  0  0
    9.5131   10.4528   23.6658 S   0  0  0  0  0  0  0  0  0  0  0  0
    9.7364   12.0364   23.2413 N   0  0  0  0  0  0  0  0  0  0  0  0
    7.6321   14.7223   22.3680 S   0  0  0  0  0  0  0  0  0  0  0  0
    8.4026   15.5578   21.4793 O   0  0  0  0  0  0  0  0  0  0  0  0
    6.8963   13.5953   21.8389 O   0  0  0  0  0  0  0  0  0  0  0  0
    6.5140   15.7399   23.3438 C   0  0  0  0  0  0  0  0  0  0  0  0
    5.1349   14.9116   25.2761 C   0  0  0  0  0  0  0  0  0  0  0  0
    6.4883   15.4313   24.8337 C   0  0  0  0  0  0  0  0  0  0  0  0
 12 13  1  0  0  0
 13 11  1  0  0  0
 11  8  1  0  0  0
  8  9  2  0  0  0
  8 10  2  0  0  0
  8  1  1  0  0  0
  1  3  1  0  0  0
  3  4  1  0  0  0
  4  5  2  0  0  0
  5  6  1  0  0  0
  6  7  1  0  0  0
  7  3  2  0  0  0
  1  2  1  0  0  0
M  END
> <minimizedAffinity>
-3.56174

> <minimizedRMSD>
1.10184

$$$$
C12328-P183


 22 24  0  0  0  0  0  0  0  0999 V2000
    7.6321   15.6843   22.0922 O   0  0  0  0  0  0  0  0  0  0  0  0
    7.5548   14.5886   23.0153 S   0  0  0  0  0  0  0  0  0  0  0  0
    7.1930   13.2759   22.5251 O   0  0  0  0  0  0  0  0  0  0  0  0
    8.9779   14.4685   23.9955 N   0  0  0  0  0  0  0  0  0  0  0  0
    8.6696   13.9541   24.8206 H   0  0  0  0  0  0  0  0  0  0  0  0
   10.3273   13.8755   23.6743 C   0  0  0  0  0  0  0  0  0  0  0  0
   10.4764   13.1445   22.3737 C   0  0  0  0  0  0  0  0  0  0  0  0
   11.5426   14.1417   21.9080 C   0  0  0  0  0  0  0  0  0  0  0  0
   11.5994   14.6460   23.3469 C   0  0  0  0  0  0  0  0  0  0  0  0
   10.9738   15.0788   20.9440 N   0  0  0  0  0  0  0  0  0  0  0  0
   10.6122   14.7066   19.6930 C   0  0  0  0  0  0  0  0  0  0  0  0
    9.7784   15.7044   19.2654 C   0  0  0  0  0  0  0  0  0  0  0  0
    9.8623   16.7098   20.2351 C   0  0  0  0  0  0  0  0  0  0  0  0
   10.6353   16.3283   21.2493 N   0  0  0  0  0  0  0  0  0  0  0  0
    6.3674   15.0429   24.2675 C   0  0  0  0  0  0  0  0  0  0  0  0
    6.8496   15.0252   25.7190 C   0  0  0  0  0  0  0  0  0  0  0  0
    6.2356   13.9636   26.6426 C   0  0  0  0  0  0  0  0  0  0  0  0
    6.5515   12.5668   26.4724 N   0  0  0  0  0  0  0  0  0  0  0  0
    5.9122   11.5139   27.0621 C   0  0  0  0  0  0  0  0  0  0  0  0
    6.4482   10.3828   26.4886 C   0  0  0  0  0  0  0  0  0  0  0  0
    7.4425   10.8576   25.6300 C   0  0  0  0  0  0  0  0  0  0  0  0
    7.6295   12.1751   25.7764 N   0  0  0  0  0  0  0  0  0  0  0  0
  1  2  2  0  0  0
  2  3  2  0  0  0
  2 15  1  0  0  0
 15 16  1  0  0  0
 16 17  1  0  0  0
 17 18  1  0  0  0
 18 19  1  0  0  0
 19 20  2  0  0  0
 20 21  1  0  0  0
 21 22  2  0  0  0
  2  4  1  0  0  0
  6  4  1  0  0  0
  6  7  1  0  0  0
  7  8  1  0  0  0
  8 10  1  0  0  0
 10 11  1  0  0  0
 11 12  2  0  0  0
 12 13  1  0  0  0
 13 14  2  0  0  0
  8  9  1  0  0  0
 22 18  1  0  0  0
  9  6  1  0  0  0
 14 10  1  0  0  0
  4  5  1  0  0  0
M  END
> <minimizedAffinity>
-4.52615

> <minimizedRMSD>
1.16129

$$$$
C4803-P390


 11 12  0  0  0  0  0  0  0  0999 V2000
    8.2362   12.2481   24.8518 C   0  0  0  0  0  0  0  0  0  0  0  0
    8.6633   10.9651   24.5015 C   0  0  0  0  0  0  0  0  0  0  0  0
    9.5330   10.9929   23.4937 N   0  0  0  0  0  0  0  0  0  0  0  0
    9.6185   12.2916   23.1584 N   0  0  0  0  0  0  0  0  0  0  0  0
    8.8670   13.0968   23.9737 C   0  0  0  0  0  0  0  0  0  0  0  0
   10.1614   12.6276   22.4090 H   0  0  0  0  0  0  0  0  0  0  0  0
    4.2863   12.7014   27.4965 C   0  0  0  0  0  0  0  0  0  0  0  0
    5.3739   12.5528   26.7382 C   0  0  0  0  0  0  0  0  0  0  0  0
    6.0235   13.4182   25.6706 C   0  0  0  0  0  0  0  0  0  0  0  0
    7.3033   12.6244   26.0333 C   0  0  0  0  0  0  0  0  0  0  0  0
    6.4224   11.4706   26.6089 C   0  0  0  0  0  0  0  0  0  0  0  0
  7  8  2  0  0  0
  8  9  1  0  0  0
  9 10  1  0  0  0
 10  1  1  0  0  0
  1  2  1  0  0  0
  2  3  2  0  0  0
  3  4  1  0  0  0
  4  5  1  0  0  0
 10 11  1  0  0  0
 11  8  1  0  0  0
  5  1  2  0  0  0
  4  6  1  0  0  0
M  END
> <minimizedAffinity>
-3.36978

> <minimizedRMSD>
1.69316

$$$$
C8152-P198


 15 15  0  0  0  0  0  0  0  0999 V2000
    8.3951   13.1224   24.3066 C   0  0  0  0  0  0  0  0  0  0  0  0
    7.6481   14.0751   25.0722 O   0  0  0  0  0  0  0  0  0  0  0  0
    6.7205   14.0615   24.7892 H   0  0  0  0  0  0  0  0  0  0  0  0
    7.9797   11.6692   24.5552 C   0  0  0  0  0  0  0  0  0  0  0  0
    8.4570   10.7121   23.9595 O   0  0  0  0  0  0  0  0  0  0  0  0
    7.0709   11.5732   25.5709 O   0  0  0  0  0  0  0  0  0  0  0  0
    5.1115   10.4421   26.3795 C   0  0  0  0  0  0  0  0  0  0  0  0
    6.4159   10.2973   25.6246 C   0  0  0  0  0  0  0  0  0  0  0  0
    8.3343   13.5180   22.8196 C   0  0  0  0  0  0  0  0  0  0  0  0
    9.5893   14.0619   22.2555 N   0  0  0  0  0  0  0  0  0  0  0  0
   10.4243   14.8110   23.2022 C   0  0  0  0  0  0  0  0  0  0  0  0
   11.7616   15.1546   22.5495 C   0  0  0  0  0  0  0  0  0  0  0  0
   11.5602   16.0275   21.3226 C   0  0  0  0  0  0  0  0  0  0  0  0
   10.5852   15.3599   20.3633 C   0  0  0  0  0  0  0  0  0  0  0  0
    9.3077   14.8944   21.0684 C   0  0  0  0  0  0  0  0  0  0  0  0
  7  8  1  0  0  0
  8  6  1  0  0  0
  6  4  1  0  0  0
  4  5  2  0  0  0
  4  1  1  0  0  0
  1  2  1  0  0  0
  1  9  1  0  0  0
  9 10  1  0  0  0
 10 11  1  0  0  0
 11 12  1  0  0  0
 12 13  1  0  0  0
 13 14  1  0  0  0
 14 15  1  0  0  0
 15 10  1  0  0  0
  2  3  1  0  0  0
M  END
> <minimizedAffinity>
-5.29955

> <minimizedRMSD>
1.14842

$$$$
C4755-P613


 12 13  0  0  0  0  0  0  0  0999 V2000
    8.1777   10.8540   24.8583 C   0  0  0  0  0  0  0  0  0  0  0  0
    7.7891    9.5802   24.8357 N   0  0  0  0  0  0  0  0  0  0  0  0
    8.7068    8.9812   24.0543 N   0  0  0  0  0  0  0  0  0  0  0  0
    9.6608    9.8463   23.5961 C   0  0  0  0  0  0  0  0  0  0  0  0
    9.3514   11.0978   24.1007 C   0  0  0  0  0  0  0  0  0  0  0  0
    8.6925    8.0213   23.8359 H   0  0  0  0  0  0  0  0  0  0  0  0
   10.1152   12.3757   23.9775 C   0  0  0  0  0  0  0  0  0  0  0  0
   10.1700   12.8410   22.5860 N   0  0  0  0  0  0  0  0  0  0  0  0
    9.1305   13.8609   22.4091 C   0  0  0  0  0  0  0  0  0  0  0  0
    9.1082   14.7825   23.6188 C   0  0  0  0  0  0  0  0  0  0  0  0
    9.4757   13.7063   25.0197 S   0  0  0  0  0  0  0  0  0  0  0  0
   10.0000   12.0597   21.9526 H   0  0  0  0  0  0  0  0  0  0  0  0
  1  2  2  0  0  0
  2  3  1  0  0  0
  3  4  1  0  0  0
  4  5  2  0  0  0
  7  5  1  0  0  0
  7  8  1  0  0  0
  8  9  1  0  0  0
  9 10  1  0  0  0
 10 11  1  0  0  0
  5  1  1  0  0  0
 11  7  1  0  0  0
  3  6  1  0  0  0
  8 12  1  0  0  0
M  END
> <minimizedAffinity>
-4.70080

> <minimizedRMSD>
2.37190

$$$$
C4790-P329


 11 12  0  0  0  0  0  0  0  0999 V2000
    8.9965   11.2599   25.0446 C   0  0  0  0  0  0  0  0  0  0  0  0
    7.8085   10.5638   25.3344 C   0  0  0  0  0  0  0  0  0  0  0  0
    7.7831    9.3446   24.7978 N   0  0  0  0  0  0  0  0  0  0  0  0
    8.9619    9.2542   24.1498 N   0  0  0  0  0  0  0  0  0  0  0  0
    9.7262   10.3831   24.2746 C   0  0  0  0  0  0  0  0  0  0  0  0
    9.2433    8.4600   23.6405 H   0  0  0  0  0  0  0  0  0  0  0  0
   10.4412   13.2833   25.1021 C   0  0  0  0  0  0  0  0  0  0  0  0
    9.3628   12.5670   25.4404 C   0  0  0  0  0  0  0  0  0  0  0  0
    8.4707   13.3150   26.3863 C   0  0  0  0  0  0  0  0  0  0  0  0
    9.0160   14.7418   26.2926 C   0  0  0  0  0  0  0  0  0  0  0  0
   10.4432   14.6215   25.7611 C   0  0  0  0  0  0  0  0  0  0  0  0
  7  8  2  0  0  0
  8  1  1  0  0  0
  1  2  1  0  0  0
  2  3  2  0  0  0
  3  4  1  0  0  0
  4  5  1  0  0  0
  8  9  1  0  0  0
  9 10  1  0  0  0
 10 11  1  0  0  0
 11  7  1  0  0  0
  5  1  2  0  0  0
  4  6  1  0  0  0
M  END
> <minimizedAffinity>
-4.23283

> <minimizedRMSD>
1.91966

$$$$
C10667-P136


 14 14  0  0  0  0  0  0  0  0999 V2000
    8.9268   11.2222   23.9307 C   0  0  0  0  0  0  0  0  0  0  0  0
    9.8816   10.2594   23.1958 C   0  0  0  0  0  0  0  0  0  0  0  0
    7.9796   10.4159   24.8206 C   0  0  0  0  0  0  0  0  0  0  0  0
    7.8615    9.2078   24.6300 O   0  0  0  0  0  0  0  0  0  0  0  0
    7.1145   11.0334   25.7988 C   0  0  0  0  0  0  0  0  0  0  0  0
    6.7493   12.3080   26.1704 C   0  0  0  0  0  0  0  0  0  0  0  0
    5.8587   12.2748   27.2178 N   0  0  0  0  0  0  0  0  0  0  0  0
    5.6369   10.9965   27.3866 C   0  0  0  0  0  0  0  0  0  0  0  0
    6.3544   10.1816   26.5769 O   0  0  0  0  0  0  0  0  0  0  0  0
    9.7892   12.3560   24.4489 C   0  0  0  0  0  0  0  0  0  0  0  0
   10.1692   13.4251   23.4580 C   0  0  0  0  0  0  0  0  0  0  0  0
   12.3911   13.4514   24.5271 C   0  0  0  0  0  0  0  0  0  0  0  0
   11.6728   13.4835   23.1866 C   0  0  0  0  0  0  0  0  0  0  0  0
   12.0769   14.7261   22.3988 C   0  0  0  0  0  0  0  0  0  0  0  0
 12 13  1  0  0  0
 13 14  1  0  0  0
 13 11  1  0  0  0
 11 10  1  0  0  0
 10  1  1  0  0  0
  1  2  1  0  0  0
  1  3  1  0  0  0
  3  4  2  0  0  0
  3  5  1  0  0  0
  5  6  2  0  0  0
  6  7  1  0  0  0
  7  8  2  0  0  0
  8  9  1  0  0  0
  9  5  1  0  0  0
M  END
> <minimizedAffinity>
-4.88393

> <minimizedRMSD>
1.11317

$$$$
C7479-P317


 24 25  0  0  0  0  0  0  0  0999 V2000
    6.8726   15.0252   22.7534 S   0  0  0  0  0  0  0  0  0  0  0  0
    6.8023   13.6942   22.1668 O   0  0  0  0  0  0  0  0  0  0  0  0
    7.8479   15.9007   22.1383 O   0  0  0  0  0  0  0  0  0  0  0  0
    6.6638   15.1096   24.2700 N   0  0  0  0  0  0  0  0  0  0  0  0
    7.9919   14.9898   25.0406 S   0  0  0  0  0  0  0  0  0  0  0  0
    7.5964   15.3314   26.7426 C   0  0  0  0  0  0  0  0  0  0  0  0
    9.1724   15.7803   24.7584 O   0  0  0  0  0  0  0  0  0  0  0  0
    8.5483   13.2794   25.1453 C   0  0  0  0  0  0  0  0  0  0  0  0
    9.4715   12.9380   23.9820 C   0  0  0  0  0  0  0  0  0  0  0  0
    9.8869   11.4841   23.9208 C   0  0  0  0  0  0  0  0  0  0  0  0
    8.8877   10.4415   24.3728 C   0  0  0  0  0  0  0  0  0  0  0  0
    7.8914   10.8766   25.4304 C   0  0  0  0  0  0  0  0  0  0  0  0
    7.3945   12.2977   25.2633 C   0  0  0  0  0  0  0  0  0  0  0  0
    5.4261   15.7223   22.2836 N   0  0  0  0  0  0  0  0  0  0  0  0
    5.3476   16.6179   22.7653 H   0  0  0  0  0  0  0  0  0  0  0  0
    4.2024   14.9741   22.5491 C   0  0  0  0  0  0  0  0  0  0  0  0
    3.2448   14.3537   20.2036 C   0  0  0  0  0  0  0  0  0  0  0  0
    2.1664   14.7746   19.4806 O   0  0  0  0  0  0  0  0  0  0  0  0
    1.6653   15.8007   20.2023 C   0  0  0  0  0  0  0  0  0  0  0  0
    2.2990   16.0586   21.3268 N   0  0  0  0  0  0  0  0  0  0  0  0
    3.2959   15.1026   21.3670 C   0  0  0  0  0  0  0  0  0  0  0  0
    3.9418   13.2323   18.0902 C   0  0  0  0  0  0  0  0  0  0  0  0
    4.0345   13.2467   19.6154 C   0  0  0  0  0  0  0  0  0  0  0  0
    3.6031   11.9006   20.1947 C   0  0  0  0  0  0  0  0  0  0  0  0
 22 23  1  0  0  0
 23 24  1  0  0  0
 23 17  1  0  0  0
 17 18  1  0  0  0
 18 19  1  0  0  0
 19 20  2  0  0  0
 20 21  1  0  0  0
 21 16  1  0  0  0
 16 14  1  0  0  0
 14  1  1  0  0  0
  1  2  2  0  0  0
  1  3  2  0  0  0
  1  4  1  0  0  0
  4  5  2  0  0  0
  5  6  1  0  0  0
  5  7  2  0  0  0
  5  8  1  0  0  0
  8  9  1  0  0  0
  9 10  1  0  0  0
 10 11  1  0  0  0
 11 12  1  0  0  0
 12 13  1  0  0  0
 21 17  2  0  0  0
 13  8  1  0  0  0
 14 15  1  0  0  0
M  END
> <minimizedAffinity>
-5.26467

> <minimizedRMSD>
0.64187

$$$$
C1405-P176


 20 20  0  0  0  0  0  0  0  0999 V2000
    9.4583   13.6761   22.6333 N   0  0  0  0  0  0  0  0  0  0  0  0
    8.9890   13.4358   24.0937 C   0  0  0  0  0  0  0  0  0  0  0  0
    9.2690   13.9947   25.0797 O   0  0  0  0  0  0  0  0  0  0  0  0
    9.1330   13.0139   21.9814 H   0  0  0  0  0  0  0  0  0  0  0  0
   10.3136   14.7370   22.0634 C   0  0  0  0  0  0  0  0  0  0  0  0
    9.9936   15.1150   20.6041 C   0  0  0  0  0  0  0  0  0  0  0  0
   10.9465   14.6813   19.7594 F   0  0  0  0  0  0  0  0  0  0  0  0
    8.8051   14.6141   20.2240 F   0  0  0  0  0  0  0  0  0  0  0  0
    9.9588   16.4320   20.3999 F   0  0  0  0  0  0  0  0  0  0  0  0
   11.7938   14.3554   22.0903 C   0  0  0  0  0  0  0  0  0  0  0  0
   12.5159   13.0650   24.2562 N   0  0  0  0  0  0  0  0  0  0  0  0
   12.2280   13.6714   23.3084 C   0  0  0  0  0  0  0  0  0  0  0  0
    8.1073   12.1930   24.1002 C   0  0  0  0  0  0  0  0  0  0  0  0
    7.4118   12.0315   25.4693 C   0  0  0  0  0  0  0  0  0  0  0  0
    6.9250   10.5994   25.6953 C   0  0  0  0  0  0  0  0  0  0  0  0
    6.0871   10.4780   26.9644 C   0  0  0  0  0  0  0  0  0  0  0  0
    4.9970   11.4459   27.0341 N   0  0  0  0  0  0  0  0  0  0  0  0
    5.5041   12.8176   26.9289 C   0  0  0  0  0  0  0  0  0  0  0  0
    6.2571   13.0314   25.6192 C   0  0  0  0  0  0  0  0  0  0  0  0
    4.5111   11.3374   27.9244 H   0  0  0  0  0  0  0  0  0  0  0  0
 11 12  3  0  0  0
 12 10  1  0  0  0
  5 10  1  0  0  0
  5  1  1  0  0  0
  1  2  1  0  0  0
  2  3  2  0  0  0
  2 13  1  0  0  0
 13 14  1  0  0  0
 14 15  1  0  0  0
 15 16  1  0  0  0
 16 17  1  0  0  0
 17 18  1  0  0  0
 18 19  1  0  0  0
  5  6  1  0  0  0
  6  7  1  0  0  0
  6  8  1  0  0  0
  6  9  1  0  0  0
 19 14  1  0  0  0
  1  4  1  0  0  0
 17 20  1  0  0  0
M  END
> <minimizedAffinity>
-5.67534

> <minimizedRMSD>
1.13825

$$$$
C3803-P457


 13 14  0  0  0  0  0  0  0  0999 V2000
    8.3099   12.8002   24.3331 C   0  0  0  0  0  0  0  0  0  0  0  0
    6.9448   13.2666   24.8802 C   0  0  0  0  0  0  0  0  0  0  0  0
    6.9085   14.7740   25.1203 C   0  0  0  0  0  0  0  0  0  0  0  0
    8.1123   15.2312   25.9357 C   0  0  0  0  0  0  0  0  0  0  0  0
    9.4144   14.7066   25.3374 C   0  0  0  0  0  0  0  0  0  0  0  0
    9.3934   13.2508   25.2161 N   0  0  0  0  0  0  0  0  0  0  0  0
    9.2585   12.8430   26.1412 H   0  0  0  0  0  0  0  0  0  0  0  0
    7.4809   10.3435   24.6801 C   0  0  0  0  0  0  0  0  0  0  0  0
    7.8441    9.0957   24.3998 N   0  0  0  0  0  0  0  0  0  0  0  0
    9.0045    9.2355   23.7401 N   0  0  0  0  0  0  0  0  0  0  0  0
    9.3812   10.5411   23.6053 C   0  0  0  0  0  0  0  0  0  0  0  0
    8.4048   11.3077   24.2170 C   0  0  0  0  0  0  0  0  0  0  0  0
    9.5279    8.4782   23.3910 H   0  0  0  0  0  0  0  0  0  0  0  0
  8  9  2  0  0  0
  9 10  1  0  0  0
 10 11  1  0  0  0
 11 12  2  0  0  0
  1 12  1  0  0  0
  1  2  1  0  0  0
  2  3  1  0  0  0
  3  4  1  0  0  0
  4  5  1  0  0  0
  5  6  1  0  0  0
 12  8  1  0  0  0
  6  1  1  0  0  0
 10 13  1  0  0  0
  6  7  1  0  0  0
M  END
> <minimizedAffinity>
-4.77517

> <minimizedRMSD>
1.71113

$$$$
C4784-P457


 10 11  0  0  0  0  0  0  0  0999 V2000
    7.5892   10.0032   24.7450 C   0  0  0  0  0  0  0  0  0  0  0  0
    7.7802   11.3207   25.0921 C   0  0  0  0  0  0  0  0  0  0  0  0
    9.0318   11.6542   24.5422 C   0  0  0  0  0  0  0  0  0  0  0  0
    9.5850   10.6263   23.8999 N   0  0  0  0  0  0  0  0  0  0  0  0
    8.6853    9.6395   24.0135 N   0  0  0  0  0  0  0  0  0  0  0  0
    8.8015    8.7477   23.6129 H   0  0  0  0  0  0  0  0  0  0  0  0
    9.7038   13.0532   24.6844 C   0  0  0  0  0  0  0  0  0  0  0  0
   11.1583   13.1770   24.1552 C   0  0  0  0  0  0  0  0  0  0  0  0
   10.7717   14.5537   23.5937 C   0  0  0  0  0  0  0  0  0  0  0  0
    9.3083   14.0723   23.5910 C   0  0  0  0  0  0  0  0  0  0  0  0
  1  2  2  0  0  0
  2  3  1  0  0  0
  3  7  1  0  0  0
  7  8  1  0  0  0
  8  9  1  0  0  0
  9 10  1  0  0  0
  3  4  2  0  0  0
  4  5  1  0  0  0
  5  1  1  0  0  0
 10  7  1  0  0  0
  5  6  1  0  0  0
M  END
> <minimizedAffinity>
-4.27362

> <minimizedRMSD>
0.84074

$$$$
C961-P278


 20 22  0  0  0  0  0  0  0  0999 V2000
   25.8262   12.8452   -1.1505 O   0  0  0  0  0  0  0  0  0  0  0  0
   24.9909   12.3627   -0.4881 C   0  0  0  0  0  0  0  0  0  0  0  0
   23.5890   11.8046   -0.8791 N   0  0  0  0  0  0  0  0  0  0  0  0
   23.0330   11.5168   -0.1193 H   0  0  0  0  0  0  0  0  0  0  0  0
   25.1765   12.0700    1.0101 C   0  0  0  0  0  0  0  0  0  0  0  0
   26.6401   12.2382    1.4546 C   0  0  0  0  0  0  0  0  0  0  0  0
   26.7680   12.0342    2.9682 C   0  0  0  0  0  0  0  0  0  0  0  0
   25.9177   13.0439    3.7435 C   0  0  0  0  0  0  0  0  0  0  0  0
   24.6366   13.2858    3.1228 N   0  0  0  0  0  0  0  0  0  0  0  0
   23.5833   13.9730    3.6289 C   0  0  0  0  0  0  0  0  0  0  0  0
   22.6208   14.0060    2.7344 N   0  0  0  0  0  0  0  0  0  0  0  0
   23.0568   13.3224    1.6206 N   0  0  0  0  0  0  0  0  0  0  0  0
   24.2840   12.9091    1.8561 C   0  0  0  0  0  0  0  0  0  0  0  0
   23.0056   11.6498   -2.1076 N   0  0  0  0  0  0  0  0  0  0  0  0
   22.9223   12.3839   -2.7582 H   0  0  0  0  0  0  0  0  0  0  0  0
   22.5480   10.3821   -2.3505 C   0  0  0  0  0  0  0  0  0  0  0  0
   22.2628    9.4748   -1.4706 N   0  0  0  0  0  0  0  0  0  0  0  0
   21.8851    8.2248   -2.1584 C   0  0  0  0  0  0  0  0  0  0  0  0
   21.3351    8.5387   -3.5381 C   0  0  0  0  0  0  0  0  0  0  0  0
   22.3147    9.9646   -4.0330 S   0  0  0  0  0  0  0  0  0  0  0  0
  1  2  2  0  0  0
  2  3  1  0  0  0
  3 14  1  0  0  0
 14 16  1  0  0  0
 16 17  2  0  0  0
 17 18  1  0  0  0
 18 19  1  0  0  0
 19 20  1  0  0  0
  5  2  1  0  0  0
  5  6  1  0  0  0
  6  7  1  0  0  0
  7  8  1  0  0  0
  8  9  1  0  0  0
  9 10  1  0  0  0
 10 11  2  0  0  0
 11 12  1  0  0  0
 12 13  2  0  0  0
 20 16  1  0  0  0
 13  5  1  0  0  0
 13  9  1  0  0  0
  3  4  1  0  0  0
 14 15  1  0  0  0
M  END
> <minimizedAffinity>
-3.79608

> <minimizedRMSD>
1.47500

$$$$
C11236-P276


 23 24  0  0  0  0  0  0  0  0999 V2000
    7.2253   14.8214   22.4368 S   0  0  0  0  0  0  0  0  0  0  0  0
    7.2815   13.4487   21.9616 O   0  0  0  0  0  0  0  0  0  0  0  0
    8.0243   15.7741   21.6952 O   0  0  0  0  0  0  0  0  0  0  0  0
    7.0633   15.0181   23.9530 N   0  0  0  0  0  0  0  0  0  0  0  0
    8.3220   14.6293   24.7409 S   0  0  0  0  0  0  0  0  0  0  0  0
    8.0324   15.2256   26.3970 C   0  0  0  0  0  0  0  0  0  0  0  0
    9.6600   15.0679   24.4082 O   0  0  0  0  0  0  0  0  0  0  0  0
    8.4023   12.8412   25.0093 C   0  0  0  0  0  0  0  0  0  0  0  0
    9.2486   12.1584   23.9388 C   0  0  0  0  0  0  0  0  0  0  0  0
    9.2366   10.6329   23.9398 C   0  0  0  0  0  0  0  0  0  0  0  0
    7.9713    9.9598   24.4373 C   0  0  0  0  0  0  0  0  0  0  0  0
    7.1293   10.7218   25.4433 C   0  0  0  0  0  0  0  0  0  0  0  0
    7.0274   12.2066   25.1580 C   0  0  0  0  0  0  0  0  0  0  0  0
    5.6638   15.3003   22.0686 N   0  0  0  0  0  0  0  0  0  0  0  0
    5.5382   16.2517   22.4142 H   0  0  0  0  0  0  0  0  0  0  0  0
    4.5939   14.4714   22.6327 C   0  0  0  0  0  0  0  0  0  0  0  0
    3.2326   12.9475   19.6942 C   0  0  0  0  0  0  0  0  0  0  0  0
    4.2690   13.4721   20.3134 N   0  0  0  0  0  0  0  0  0  0  0  0
    3.7945   13.7768   21.5743 C   0  0  0  0  0  0  0  0  0  0  0  0
    2.4631   13.4265   21.6278 C   0  0  0  0  0  0  0  0  0  0  0  0
    2.0938   12.8919   20.4385 O   0  0  0  0  0  0  0  0  0  0  0  0
    3.8458   13.4267   17.3855 C   0  0  0  0  0  0  0  0  0  0  0  0
    3.1393   12.4681   18.3072 C   0  0  0  0  0  0  0  0  0  0  0  0
 22 23  1  0  0  0
 23 17  1  0  0  0
 17 18  2  0  0  0
 18 19  1  0  0  0
 19 16  1  0  0  0
 16 14  1  0  0  0
 14  1  1  0  0  0
  1  2  2  0  0  0
  1  3  2  0  0  0
  1  4  1  0  0  0
  4  5  2  0  0  0
  5  6  1  0  0  0
  5  7  2  0  0  0
  5  8  1  0  0  0
  8  9  1  0  0  0
  9 10  1  0  0  0
 10 11  1  0  0  0
 11 12  1  0  0  0
 12 13  1  0  0  0
 19 20  2  0  0  0
 20 21  1  0  0  0
 21 17  1  0  0  0
 13  8  1  0  0  0
 14 15  1  0  0  0
M  END
> <minimizedAffinity>
-4.80498

> <minimizedRMSD>
0.48630

$$$$
C7646-P265


 15 16  0  0  0  0  0  0  0  0999 V2000
    8.7777   14.0219   25.1647 C   0  0  0  0  0  0  0  0  0  0  0  0
    8.0175   15.0665   24.3504 C   0  0  0  0  0  0  0  0  0  0  0  0
    8.0772   16.9792   22.5150 N   0  0  0  0  0  0  0  0  0  0  0  0
    8.8363   15.5170   22.8254 S   0  0  0  0  0  0  0  0  0  0  0  0
   10.2152   15.8248   23.1092 O   0  0  0  0  0  0  0  0  0  0  0  0
    8.4654   14.6406   21.7348 O   0  0  0  0  0  0  0  0  0  0  0  0
    8.4453   17.3766   21.6507 H   0  0  0  0  0  0  0  0  0  0  0  0
    8.2514   17.6232   23.2865 H   0  0  0  0  0  0  0  0  0  0  0  0
    8.4913   12.5456   24.8620 C   0  0  0  0  0  0  0  0  0  0  0  0
    7.7335   11.7986   25.8475 N   0  0  0  0  0  0  0  0  0  0  0  0
    7.4671   10.4185   25.3999 C   0  0  0  0  0  0  0  0  0  0  0  0
    6.3538    9.9772   26.2912 C   0  0  0  0  0  0  0  0  0  0  0  0
    6.2450   10.2811   27.7523 C   0  0  0  0  0  0  0  0  0  0  0  0
    5.6944   11.2203   26.7814 C   0  0  0  0  0  0  0  0  0  0  0  0
    6.4661   12.3821   26.2866 C   0  0  0  0  0  0  0  0  0  0  0  0
  3  4  1  0  0  0
  4  5  2  0  0  0
  4  6  2  0  0  0
  4  2  1  0  0  0
  2  1  1  0  0  0
  1  9  1  0  0  0
  9 10  1  0  0  0
 10 11  1  0  0  0
 12 11  1  0  0  0
 12 13  1  0  0  0
 14 13  1  0  0  0
 14 15  1  0  0  0
 15 10  1  0  0  0
 14 12  1  0  0  0
  3  7  1  0  0  0
  3  8  1  0  0  0
M  END
> <minimizedAffinity>
-3.62669

> <minimizedRMSD>
2.01456

$$$$
C7674-P265


 15 16  0  0  0  0  0  0  0  0999 V2000
    7.8064   16.0487   25.5447 C   0  0  0  0  0  0  0  0  0  0  0  0
    6.7435   15.4899   24.6107 C   0  0  0  0  0  0  0  0  0  0  0  0
    5.6451   16.6283   22.4566 N   0  0  0  0  0  0  0  0  0  0  0  0
    7.0896   15.8926   22.9067 S   0  0  0  0  0  0  0  0  0  0  0  0
    8.1052   16.9138   22.8508 O   0  0  0  0  0  0  0  0  0  0  0  0
    7.1541   14.7271   22.0603 O   0  0  0  0  0  0  0  0  0  0  0  0
    5.7007   16.9175   21.4800 H   0  0  0  0  0  0  0  0  0  0  0  0
    5.4821   17.4457   23.0446 H   0  0  0  0  0  0  0  0  0  0  0  0
    8.9064   15.0513   25.8730 C   0  0  0  0  0  0  0  0  0  0  0  0
    9.6339   14.5700   24.7215 N   0  0  0  0  0  0  0  0  0  0  0  0
   10.9959   15.1173   24.5980 C   0  0  0  0  0  0  0  0  0  0  0  0
   11.7077   14.1345   23.6588 C   0  0  0  0  0  0  0  0  0  0  0  0
   11.0077   12.8292   23.8015 C   0  0  0  0  0  0  0  0  0  0  0  0
    9.6393   12.4701   23.3138 C   0  0  0  0  0  0  0  0  0  0  0  0
    9.7879   13.1137   24.6219 C   0  0  0  0  0  0  0  0  0  0  0  0
  3  4  1  0  0  0
  4  5  2  0  0  0
  4  6  2  0  0  0
  4  2  1  0  0  0
  2  1  1  0  0  0
  1  9  1  0  0  0
  9 10  1  0  0  0
 10 11  1  0  0  0
 11 12  1  0  0  0
 13 12  1  0  0  0
 13 14  1  0  0  0
 15 14  1  0  0  0
 15 10  1  0  0  0
 15 13  1  0  0  0
  3  7  1  0  0  0
  3  8  1  0  0  0
M  END
> <minimizedAffinity>
-3.40008

> <minimizedRMSD>
2.50043

$$$$
C86465-P363


 14 14  0  0  0  0  0  0  0  0999 V2000
   11.5313   15.2960   23.4729 C   0  0  0  0  0  0  0  0  0  0  0  0
   10.9558   15.9465   24.3496 O   0  0  0  0  0  0  0  0  0  0  0  0
   11.7240   13.8156   23.6515 C   0  0  0  0  0  0  0  0  0  0  0  0
   10.3423   13.1513   23.6214 C   0  0  0  0  0  0  0  0  0  0  0  0
    9.4714   10.8772   24.2393 C   0  0  0  0  0  0  0  0  0  0  0  0
   10.0784   12.1572   24.7536 C   0  0  0  0  0  0  0  0  0  0  0  0
    9.1043   12.7717   25.7740 C   0  0  0  0  0  0  0  0  0  0  0  0
   11.3726   11.8363   25.4443 C   0  0  0  0  0  0  0  0  0  0  0  0
   12.1334   15.9610   22.2755 C   0  0  0  0  0  0  0  0  0  0  0  0
   11.3827   15.6745   21.0402 C   0  0  0  0  0  0  0  0  0  0  0  0
   10.0820   16.0580   20.7828 C   0  0  0  0  0  0  0  0  0  0  0  0
    9.7370   15.7530   19.1466 S   0  0  0  0  0  0  0  0  0  0  0  0
   11.2656   15.0574   18.9382 C   0  0  0  0  0  0  0  0  0  0  0  0
   12.0361   15.0375   19.9987 N   0  0  0  0  0  0  0  0  0  0  0  0
  5  6  1  0  0  0
  6  7  1  0  0  0
  6  8  1  0  0  0
  6  4  1  0  0  0
  4  3  1  0  0  0
  3  1  1  0  0  0
  1  2  2  0  0  0
  1  9  1  0  0  0
  9 10  1  0  0  0
 10 11  2  0  0  0
 11 12  1  0  0  0
 12 13  1  0  0  0
 13 14  2  0  0  0
 14 10  1  0  0  0
M  END
> <minimizedAffinity>
-4.73208

> <minimizedRMSD>
0.61308

$$$$
C10627-P494


 13 13  0  0  0  0  0  0  0  0999 V2000
    5.7662   15.5265   22.4594 C   0  0  0  0  0  0  0  0  0  0  0  0
    6.8495   14.4780   22.3476 C   0  0  0  0  0  0  0  0  0  0  0  0
    7.5521   14.4185   21.3316 O   0  0  0  0  0  0  0  0  0  0  0  0
    7.1456   13.5092   23.5096 C   0  0  0  0  0  0  0  0  0  0  0  0
    6.8862   14.0120   24.9235 C   0  0  0  0  0  0  0  0  0  0  0  0
    9.5525   13.1910   24.4116 C   0  0  0  0  0  0  0  0  0  0  0  0
    8.5195   12.8321   23.3533 C   0  0  0  0  0  0  0  0  0  0  0  0
    4.1160   14.8063   22.4384 S   0  0  0  0  0  0  0  0  0  0  0  0
    3.9067   14.3887   20.7695 C   0  0  0  0  0  0  0  0  0  0  0  0
    3.3893   15.2194   19.8848 N   0  0  0  0  0  0  0  0  0  0  0  0
    3.2323   14.4422   18.7605 C   0  0  0  0  0  0  0  0  0  0  0  0
    3.7110   13.1799   18.9940 C   0  0  0  0  0  0  0  0  0  0  0  0
    4.1443   13.1312   20.2842 O   0  0  0  0  0  0  0  0  0  0  0  0
  6  7  1  0  0  0
  7  4  1  0  0  0
  4  5  1  0  0  0
  4  2  1  0  0  0
  2  3  2  0  0  0
  2  1  1  0  0  0
  1  8  1  0  0  0
  8  9  1  0  0  0
  9 10  2  0  0  0
 10 11  1  0  0  0
 11 12  2  0  0  0
 12 13  1  0  0  0
 13  9  1  0  0  0
M  END
> <minimizedAffinity>
-3.31804

> <minimizedRMSD>
1.03847

$$$$
C10655-P494


 12 12  0  0  0  0  0  0  0  0999 V2000
    4.6543   14.9973   21.6147 C   0  0  0  0  0  0  0  0  0  0  0  0
    4.8242   16.1102   22.1142 O   0  0  0  0  0  0  0  0  0  0  0  0
    5.8221   14.0378   21.4531 C   0  0  0  0  0  0  0  0  0  0  0  0
    8.3240   14.2833   21.7066 C   0  0  0  0  0  0  0  0  0  0  0  0
    6.9735   14.3918   22.4145 C   0  0  0  0  0  0  0  0  0  0  0  0
    6.9879   13.4938   23.6550 C   0  0  0  0  0  0  0  0  0  0  0  0
    3.2807   14.5266   21.2233 C   0  0  0  0  0  0  0  0  0  0  0  0
    3.3256   13.8543   19.9129 C   0  0  0  0  0  0  0  0  0  0  0  0
    3.5408   14.3781   18.7223 N   0  0  0  0  0  0  0  0  0  0  0  0
    3.3398   13.3266   17.8615 C   0  0  0  0  0  0  0  0  0  0  0  0
    3.0374   12.1935   18.5715 C   0  0  0  0  0  0  0  0  0  0  0  0
    3.0237   12.5181   19.8951 O   0  0  0  0  0  0  0  0  0  0  0  0
  4  5  1  0  0  0
  5  6  1  0  0  0
  5  3  1  0  0  0
  3  1  1  0  0  0
  1  2  2  0  0  0
  1  7  1  0  0  0
  7  8  1  0  0  0
  8  9  2  0  0  0
  9 10  1  0  0  0
 10 11  2  0  0  0
 11 12  1  0  0  0
 12  8  1  0  0  0
M  END
> <minimizedAffinity>
-3.53684

> <minimizedRMSD>
1.49678

$$$$
C6791-P159


 12 13  0  0  0  0  0  0  0  0999 V2000
    9.2718   10.2569   24.0459 C   0  0  0  0  0  0  0  0  0  0  0  0
    9.6620   11.5622   23.8179 C   0  0  0  0  0  0  0  0  0  0  0  0
    8.9933   12.5638   24.4840 C   0  0  0  0  0  0  0  0  0  0  0  0
    8.0123   12.2456   25.3492 N   0  0  0  0  0  0  0  0  0  0  0  0
    7.6910   10.9515   25.4890 C   0  0  0  0  0  0  0  0  0  0  0  0
    8.2784    9.9212   24.8784 N   0  0  0  0  0  0  0  0  0  0  0  0
    9.2792   13.9085   24.3457 N   0  0  0  0  0  0  0  0  0  0  0  0
   10.5944   14.2604   24.8778 C   0  0  0  0  0  0  0  0  0  0  0  0
   11.6830   14.0551   23.8232 C   0  0  0  0  0  0  0  0  0  0  0  0
   11.4596   15.1003   22.3466 S   0  0  0  0  0  0  0  0  0  0  0  0
    9.7170   14.7476   22.0043 C   0  0  0  0  0  0  0  0  0  0  0  0
    8.8324   14.7880   23.2502 C   0  0  0  0  0  0  0  0  0  0  0  0
  1  2  2  0  0  0
  2  3  1  0  0  0
  3  7  1  0  0  0
  7  8  1  0  0  0
  8  9  1  0  0  0
  9 10  1  0  0  0
 10 11  1  0  0  0
 11 12  1  0  0  0
  3  4  2  0  0  0
  4  5  1  0  0  0
  5  6  2  0  0  0
  6  1  1  0  0  0
 12  7  1  0  0  0
M  END
> <minimizedAffinity>
-4.86712

> <minimizedRMSD>
0.91601

$$$$
C18187-P391


 12 12  0  0  0  0  0  0  0  0999 V2000
    9.5856   13.6733   24.3704 C   0  0  0  0  0  0  0  0  0  0  0  0
    9.8950   14.1630   25.4580 O   0  0  0  0  0  0  0  0  0  0  0  0
    9.5550    9.8182   24.0866 C   0  0  0  0  0  0  0  0  0  0  0  0
    9.1104   11.2098   24.4347 C   0  0  0  0  0  0  0  0  0  0  0  0
    7.7909   11.3627   25.1459 C   0  0  0  0  0  0  0  0  0  0  0  0
    9.8934   12.2423   24.0662 C   0  0  0  0  0  0  0  0  0  0  0  0
    8.8206   14.4781   23.3516 C   0  0  0  0  0  0  0  0  0  0  0  0
    9.6695   15.1203   22.3721 N   0  0  0  0  0  0  0  0  0  0  0  0
   10.7040   15.9830   22.6025 C   0  0  0  0  0  0  0  0  0  0  0  0
   11.2058   16.3075   21.3633 C   0  0  0  0  0  0  0  0  0  0  0  0
   10.3924   15.6097   20.4521 C   0  0  0  0  0  0  0  0  0  0  0  0
    9.4600   14.8771   21.0691 N   0  0  0  0  0  0  0  0  0  0  0  0
  3  4  1  0  0  0
  4  5  1  0  0  0
  4  6  2  0  0  0
  6  1  1  0  0  0
  1  2  2  0  0  0
  1  7  1  0  0  0
  7  8  1  0  0  0
  8  9  1  0  0  0
  9 10  2  0  0  0
 10 11  1  0  0  0
 11 12  2  0  0  0
 12  8  1  0  0  0
M  END
> <minimizedAffinity>
-4.28472

> <minimizedRMSD>
1.52700

$$$$
C18209-P391


 12 12  0  0  0  0  0  0  0  0999 V2000
    8.8662   13.0746   25.1796 C   0  0  0  0  0  0  0  0  0  0  0  0
    8.8060   11.6238   24.8600 C   0  0  0  0  0  0  0  0  0  0  0  0
    7.7526   10.7424   25.1656 C   0  0  0  0  0  0  0  0  0  0  0  0
    7.9826    9.4976   24.7474 N   0  0  0  0  0  0  0  0  0  0  0  0
    9.1751    9.5762   24.1352 N   0  0  0  0  0  0  0  0  0  0  0  0
    9.7229   10.8226   24.2066 C   0  0  0  0  0  0  0  0  0  0  0  0
    9.6073    8.8157   23.6834 H   0  0  0  0  0  0  0  0  0  0  0  0
    9.7841   13.7625   24.3353 O   0  0  0  0  0  0  0  0  0  0  0  0
    9.6318   15.1822   24.4296 C   0  0  0  0  0  0  0  0  0  0  0  0
   10.8228   15.8390   23.7470 C   0  0  0  0  0  0  0  0  0  0  0  0
   12.0959   16.3929   21.3688 C   0  0  0  0  0  0  0  0  0  0  0  0
   10.4366   16.0623   21.9979 S   0  0  0  0  0  0  0  0  0  0  0  0
 11 12  1  0  0  0
 12 10  1  0  0  0
 10  9  1  0  0  0
  9  8  1  0  0  0
  8  1  1  0  0  0
  1  2  1  0  0  0
  2  3  1  0  0  0
  3  4  2  0  0  0
  4  5  1  0  0  0
  5  6  1  0  0  0
  6  2  2  0  0  0
  5  7  1  0  0  0
M  END
> <minimizedAffinity>
-4.05690

> <minimizedRMSD>
1.32390

$$$$
C1304-P207


 15 15  0  0  0  0  0  0  0  0999 V2000
    8.4959   14.9999   22.8985 C   0  0  0  0  0  0  0  0  0  0  0  0
    9.5397   16.0134   22.7024 N   0  0  0  0  0  0  0  0  0  0  0  0
   10.8905   15.5611   23.0883 C   0  0  0  0  0  0  0  0  0  0  0  0
   11.5376   14.5388   22.1326 C   0  0  0  0  0  0  0  0  0  0  0  0
   11.5547   14.9734   20.7383 N   0  0  0  0  0  0  0  0  0  0  0  0
   10.2256   15.4320   20.3092 C   0  0  0  0  0  0  0  0  0  0  0  0
    9.6011   16.4545   21.2803 C   0  0  0  0  0  0  0  0  0  0  0  0
   11.8433   14.1920   20.1496 H   0  0  0  0  0  0  0  0  0  0  0  0
    8.4560   14.5280   24.3530 C   0  0  0  0  0  0  0  0  0  0  0  0
    6.2196   13.9311   24.8316 O   0  0  0  0  0  0  0  0  0  0  0  0
    7.2951   13.5714   24.5688 C   0  0  0  0  0  0  0  0  0  0  0  0
    7.8573   12.1481   24.3962 N   0  0  0  0  0  0  0  0  0  0  0  0
    7.2188   10.9218   24.4168 O   0  0  0  0  0  0  0  0  0  0  0  0
    8.8295   12.1042   24.2468 H   0  0  0  0  0  0  0  0  0  0  0  0
    6.2698   11.0540   24.5681 H   0  0  0  0  0  0  0  0  0  0  0  0
 10 11  2  0  0  0
 11  9  1  0  0  0
  9  1  1  0  0  0
  1  2  1  0  0  0
  2  3  1  0  0  0
  3  4  1  0  0  0
  4  5  1  0  0  0
  5  6  1  0  0  0
  6  7  1  0  0  0
 11 12  1  0  0  0
 12 13  1  0  0  0
  7  2  1  0  0  0
  5  8  1  0  0  0
 12 14  1  0  0  0
 13 15  1  0  0  0
M  END
> <minimizedAffinity>
-4.05854

> <minimizedRMSD>
0.85990

$$$$
C3858-P32


 18 20  0  0  0  0  0  0  0  0999 V2000
   18.1984   -5.3969   25.0749 C   0  0  0  0  0  0  0  0  0  0  0  0
   18.1011   -6.0441   23.8647 C   0  0  0  0  0  0  0  0  0  0  0  0
   18.2716   -5.0720   22.9201 N   0  0  0  0  0  0  0  0  0  0  0  0
   18.2443   -5.2585   21.5738 N   0  0  0  0  0  0  0  0  0  0  0  0
   18.4605   -4.1619   20.9170 C   0  0  0  0  0  0  0  0  0  0  0  0
   18.7587   -2.8359   21.4903 C   0  0  0  0  0  0  0  0  0  0  0  0
   18.7431   -2.7372   22.8253 C   0  0  0  0  0  0  0  0  0  0  0  0
   18.4846   -3.8855   23.5998 C   0  0  0  0  0  0  0  0  0  0  0  0
   18.4334   -4.0540   24.9026 N   0  0  0  0  0  0  0  0  0  0  0  0
   18.4506   -4.2363   19.5706 O   0  0  0  0  0  0  0  0  0  0  0  0
   17.5545   -3.4966   18.7056 C   0  0  0  0  0  0  0  0  0  0  0  0
   16.2730   -4.3138   18.5340 C   0  0  0  0  0  0  0  0  0  0  0  0
   16.4821   -5.6383   17.7916 C   0  0  0  0  0  0  0  0  0  0  0  0
   15.1706   -6.4232   17.7072 C   0  0  0  0  0  0  0  0  0  0  0  0
   14.0964   -5.6308   17.1126 N   0  0  0  0  0  0  0  0  0  0  0  0
   13.8854   -4.3628   17.8099 C   0  0  0  0  0  0  0  0  0  0  0  0
   15.1572   -3.5222   17.8785 C   0  0  0  0  0  0  0  0  0  0  0  0
   13.2323   -6.1717   17.1484 H   0  0  0  0  0  0  0  0  0  0  0  0
  1  2  2  0  0  0
  2  3  1  0  0  0
  3  4  1  0  0  0
  4  5  2  0  0  0
  5 10  1  0  0  0
 10 11  1  0  0  0
 11 12  1  0  0  0
 12 13  1  0  0  0
 13 14  1  0  0  0
 14 15  1  0  0  0
 15 16  1  0  0  0
 16 17  1  0  0  0
  5  6  1  0  0  0
  6  7  2  0  0  0
  7  8  1  0  0  0
  8  9  2  0  0  0
  9  1  1  0  0  0
  8  3  1  0  0  0
 17 12  1  0  0  0
 15 18  1  0  0  0
M  END
> <minimizedAffinity>
-4.13974

> <minimizedRMSD>
0.78794

$$$$
C23130-P37


 24 24  0  0  0  0  0  0  0  0999 V2000
    9.5240   12.5545   23.2724 C   0  0  0  0  0  0  0  0  0  0  0  0
    9.7751   11.2107   23.5032 C   0  0  0  0  0  0  0  0  0  0  0  0
    8.9977   10.5057   24.4280 C   0  0  0  0  0  0  0  0  0  0  0  0
    7.9429   11.1043   25.1104 C   0  0  0  0  0  0  0  0  0  0  0  0
    7.6389   12.4211   24.8126 C   0  0  0  0  0  0  0  0  0  0  0  0
    8.4077   13.1461   23.8820 C   0  0  0  0  0  0  0  0  0  0  0  0
    7.9296   14.5200   23.5420 C   0  0  0  0  0  0  0  0  0  0  0  0
   11.9247   13.5368   22.5861 C   0  0  0  0  0  0  0  0  0  0  0  0
   12.6905   13.1692   23.3905 O   0  0  0  0  0  0  0  0  0  0  0  0
   10.3992   13.2490   22.4379 N   0  0  0  0  0  0  0  0  0  0  0  0
    9.9872   13.6174   21.6231 H   0  0  0  0  0  0  0  0  0  0  0  0
   13.1741   15.6349   22.0055 C   0  0  0  0  0  0  0  0  0  0  0  0
   12.2703   14.5329   21.4897 C   0  0  0  0  0  0  0  0  0  0  0  0
    7.2174   10.3956   26.0711 N   0  0  0  0  0  0  0  0  0  0  0  0
    5.9719   10.8196   26.9204 C   0  0  0  0  0  0  0  0  0  0  0  0
    5.3262   11.7946   26.8835 O   0  0  0  0  0  0  0  0  0  0  0  0
    7.5416    9.4818   26.2418 H   0  0  0  0  0  0  0  0  0  0  0  0
    5.7519    9.7289   27.9745 C   0  0  0  0  0  0  0  0  0  0  0  0
    4.5759    9.9341   28.9695 C   0  0  0  0  0  0  0  0  0  0  0  0
    4.5613   11.2803   29.6997 C   0  0  0  0  0  0  0  0  0  0  0  0
    3.2024    9.6468   28.3806 C   0  0  0  0  0  0  0  0  0  0  0  0
    2.4248    9.0075   29.2865 F   0  0  0  0  0  0  0  0  0  0  0  0
    3.3062    8.8302   27.3068 F   0  0  0  0  0  0  0  0  0  0  0  0
    2.5490   10.7525   27.9800 F   0  0  0  0  0  0  0  0  0  0  0  0
 12 13  1  0  0  0
 13  8  1  0  0  0
  8  9  2  0  0  0
  8 10  1  0  0  0
 10  1  1  0  0  0
  1  2  2  0  0  0
  2  3  1  0  0  0
  3  4  2  0  0  0
  4 14  1  0  0  0
 14 15  1  0  0  0
 15 16  2  0  0  0
 15 18  1  0  0  0
 18 19  1  0  0  0
 19 20  1  0  0  0
 19 21  1  0  0  0
 21 22  1  0  0  0
 21 23  1  0  0  0
 21 24  1  0  0  0
  4  5  1  0  0  0
  5  6  2  0  0  0
  6  7  1  0  0  0
  6  1  1  0  0  0
 10 11  1  0  0  0
 14 17  1  0  0  0
M  END
> <minimizedAffinity>
-6.06582

> <minimizedRMSD>
1.44701

$$$$
C7644-P270


 14 14  0  0  0  0  0  0  0  0999 V2000
    7.1894   12.8813   23.2924 N   0  0  0  0  0  0  0  0  0  0  0  0
    7.3470   12.2983   22.4704 H   0  0  0  0  0  0  0  0  0  0  0  0
    8.2235   12.5325   24.2598 C   0  0  0  0  0  0  0  0  0  0  0  0
    9.1940   11.6250   23.5791 C   0  0  0  0  0  0  0  0  0  0  0  0
    9.1418   10.2884   23.6641 C   0  0  0  0  0  0  0  0  0  0  0  0
    8.0875    9.5601   24.4300 C   0  0  0  0  0  0  0  0  0  0  0  0
    7.0648   10.4267   25.1470 C   0  0  0  0  0  0  0  0  0  0  0  0
    7.5942   11.8169   25.4492 C   0  0  0  0  0  0  0  0  0  0  0  0
    7.0483   14.4591   22.7458 S   0  0  0  0  0  0  0  0  0  0  0  0
    7.3651   14.5200   21.3405 O   0  0  0  0  0  0  0  0  0  0  0  0
    5.7565   14.8670   23.2454 O   0  0  0  0  0  0  0  0  0  0  0  0
    8.3262   15.2898   23.6861 C   0  0  0  0  0  0  0  0  0  0  0  0
   10.7963   15.7795   23.5747 C   0  0  0  0  0  0  0  0  0  0  0  0
    9.4758   15.7967   22.8220 C   0  0  0  0  0  0  0  0  0  0  0  0
 13 14  1  0  0  0
 14 12  1  0  0  0
 12  9  1  0  0  0
  9 10  2  0  0  0
  9 11  2  0  0  0
  9  1  1  0  0  0
  3  1  1  0  0  0
  3  4  1  0  0  0
  4  5  2  0  0  0
  5  6  1  0  0  0
  6  7  1  0  0  0
  7  8  1  0  0  0
  8  3  1  0  0  0
  1  2  1  0  0  0
M  END
> <minimizedAffinity>
-4.41524

> <minimizedRMSD>
1.77099

$$$$
C7649-P270


 16 17  0  0  0  0  0  0  0  0999 V2000
    6.9061   13.9950   25.2003 C   0  0  0  0  0  0  0  0  0  0  0  0
    5.8399   14.6286   24.3124 C   0  0  0  0  0  0  0  0  0  0  0  0
    5.1527   15.9954   22.1334 N   0  0  0  0  0  0  0  0  0  0  0  0
    6.3592   14.9405   22.6256 S   0  0  0  0  0  0  0  0  0  0  0  0
    7.5722   15.7198   22.6123 O   0  0  0  0  0  0  0  0  0  0  0  0
    6.1830   13.7765   21.7844 O   0  0  0  0  0  0  0  0  0  0  0  0
    5.3159   16.2704   21.1648 H   0  0  0  0  0  0  0  0  0  0  0  0
    5.1621   16.8240   22.7283 H   0  0  0  0  0  0  0  0  0  0  0  0
    6.8056   12.4621   25.2278 C   0  0  0  0  0  0  0  0  0  0  0  0
    8.0631   11.7754   24.9752 N   0  0  0  0  0  0  0  0  0  0  0  0
    8.7039   12.2786   23.7580 C   0  0  0  0  0  0  0  0  0  0  0  0
    9.7137   11.2225   23.4634 C   0  0  0  0  0  0  0  0  0  0  0  0
    9.0137    9.9608   23.8390 C   0  0  0  0  0  0  0  0  0  0  0  0
    9.7427    8.6434   24.0062 C   0  0  0  0  0  0  0  0  0  0  0  0
    8.9489    8.8626   22.7973 C   0  0  0  0  0  0  0  0  0  0  0  0
    7.8556   10.3214   24.7359 C   0  0  0  0  0  0  0  0  0  0  0  0
  3  4  1  0  0  0
  4  5  2  0  0  0
  4  6  2  0  0  0
  4  2  1  0  0  0
  2  1  1  0  0  0
  1  9  1  0  0  0
  9 10  1  0  0  0
 10 11  1  0  0  0
 11 12  1  0  0  0
 12 13  1  0  0  0
 13 14  1  0  0  0
 14 15  1  0  0  0
 13 16  1  0  0  0
 16 10  1  0  0  0
 15 13  1  0  0  0
  3  7  1  0  0  0
  3  8  1  0  0  0
M  END
> <minimizedAffinity>
-2.24179

> <minimizedRMSD>
0.42500

$$$$
C23707-P106


 13 13  0  0  0  0  0  0  0  0999 V2000
   11.1519   11.9796   24.5839 C   0  0  0  0  0  0  0  0  0  0  0  0
   10.1387   10.8369   24.4423 C   0  0  0  0  0  0  0  0  0  0  0  0
    8.7314   11.3560   24.6722 C   0  0  0  0  0  0  0  0  0  0  0  0
    8.5395   12.8160   24.2764 C   0  0  0  0  0  0  0  0  0  0  0  0
    9.4964   13.2596   23.2009 C   0  0  0  0  0  0  0  0  0  0  0  0
    9.0483   13.8690   22.0948 C   0  0  0  0  0  0  0  0  0  0  0  0
    9.9108   14.3192   21.1646 F   0  0  0  0  0  0  0  0  0  0  0  0
    7.7219   13.9816   21.8776 F   0  0  0  0  0  0  0  0  0  0  0  0
   10.9725   12.9561   23.4104 C   0  0  0  0  0  0  0  0  0  0  0  0
   12.5392   11.3607   24.8280 C   0  0  0  0  0  0  0  0  0  0  0  0
   13.7434   12.8563   26.6058 C   0  0  0  0  0  0  0  0  0  0  0  0
   13.7159   12.3284   25.1861 C   0  0  0  0  0  0  0  0  0  0  0  0
   15.1071   11.7114   24.9754 C   0  0  0  0  0  0  0  0  0  0  0  0
 11 12  1  0  0  0
 12 13  1  0  0  0
 12 10  1  0  0  0
  1 10  1  0  0  0
  1  2  1  0  0  0
  2  3  1  0  0  0
  3  4  1  0  0  0
  4  5  1  0  0  0
  5  6  2  0  0  0
  6  7  1  0  0  0
  6  8  1  0  0  0
  5  9  1  0  0  0
  9  1  1  0  0  0
M  END
> <minimizedAffinity>
-5.35038

> <minimizedRMSD>
0.79471

$$$$
C9375-P199


 15 15  0  0  0  0  0  0  0  0999 V2000
    8.9360   13.8209   23.5432 S   0  0  0  0  0  0  0  0  0  0  0  0
    9.9969   14.0509   24.4886 O   0  0  0  0  0  0  0  0  0  0  0  0
    7.7748   14.6633   23.4619 O   0  0  0  0  0  0  0  0  0  0  0  0
    8.3993   12.2641   23.7829 N   0  0  0  0  0  0  0  0  0  0  0  0
    9.4042   11.1884   23.7649 C   0  0  0  0  0  0  0  0  0  0  0  0
    8.6398   10.0093   24.3210 C   0  0  0  0  0  0  0  0  0  0  0  0
    7.6793   10.6127   25.3344 C   0  0  0  0  0  0  0  0  0  0  0  0
    7.6567   12.1047   25.0570 C   0  0  0  0  0  0  0  0  0  0  0  0
    9.5668   13.6938   22.0092 N   0  0  0  0  0  0  0  0  0  0  0  0
   10.5834   13.6638   22.0876 H   0  0  0  0  0  0  0  0  0  0  0  0
    9.2103   14.7980   21.0867 C   0  0  0  0  0  0  0  0  0  0  0  0
   10.6962   15.2563   19.1165 C   0  0  0  0  0  0  0  0  0  0  0  0
   10.4398   15.5625   20.5894 C   0  0  0  0  0  0  0  0  0  0  0  0
   11.6234   15.2736   21.4087 C   0  0  0  0  0  0  0  0  0  0  0  0
   12.4521   15.0237   22.1825 N   0  0  0  0  0  0  0  0  0  0  0  0
 13 12  1  0  0  0
 13 14  1  0  0  0
 14 15  3  0  0  0
 13 11  1  0  0  0
 11  9  1  0  0  0
  9  1  1  0  0  0
  1  2  2  0  0  0
  1  3  2  0  0  0
  1  4  1  0  0  0
  4  5  1  0  0  0
  5  6  1  0  0  0
  6  7  1  0  0  0
  7  8  1  0  0  0
  8  4  1  0  0  0
  9 10  1  0  0  0
M  END
> <minimizedAffinity>
-5.18289

> <minimizedRMSD>
0.66817

$$$$
C9394-P199


 14 14  0  0  0  0  0  0  0  0999 V2000
    9.4766   12.5414   23.8719 C   0  0  0  0  0  0  0  0  0  0  0  0
    9.5876   11.2916   23.1914 O   0  0  0  0  0  0  0  0  0  0  0  0
    8.7083   11.0018   22.9020 H   0  0  0  0  0  0  0  0  0  0  0  0
    8.6217   12.3854   25.1223 C   0  0  0  0  0  0  0  0  0  0  0  0
    7.3733   11.7439   24.8930 O   0  0  0  0  0  0  0  0  0  0  0  0
    7.2544   10.5292   25.6280 C   0  0  0  0  0  0  0  0  0  0  0  0
    5.5365   11.6243   27.1401 C   0  0  0  0  0  0  0  0  0  0  0  0
    6.1827   10.5494   26.6735 C   0  0  0  0  0  0  0  0  0  0  0  0
    8.9651   13.6468   22.9435 C   0  0  0  0  0  0  0  0  0  0  0  0
    9.9802   14.0030   21.9530 N   0  0  0  0  0  0  0  0  0  0  0  0
   11.2889   14.3766   22.4882 C   0  0  0  0  0  0  0  0  0  0  0  0
   11.9263   15.2293   21.4033 C   0  0  0  0  0  0  0  0  0  0  0  0
   10.8369   15.4374   20.3629 C   0  0  0  0  0  0  0  0  0  0  0  0
    9.5597   15.1148   21.1040 C   0  0  0  0  0  0  0  0  0  0  0  0
  7  8  2  0  0  0
  8  6  1  0  0  0
  6  5  1  0  0  0
  5  4  1  0  0  0
  4  1  1  0  0  0
  1  2  1  0  0  0
  1  9  1  0  0  0
  9 10  1  0  0  0
 10 11  1  0  0  0
 11 12  1  0  0  0
 12 13  1  0  0  0
 13 14  1  0  0  0
 14 10  1  0  0  0
  2  3  1  0  0  0
M  END
> <minimizedAffinity>
-4.56825

> <minimizedRMSD>
0.35302

$$$$
C7664-P214


 12 12  0  0  0  0  0  0  0  0999 V2000
    8.1942   13.5023   23.0856 S   0  0  0  0  0  0  0  0  0  0  0  0
    9.3688   13.6982   22.2618 O   0  0  0  0  0  0  0  0  0  0  0  0
    6.8830   13.7446   22.5277 O   0  0  0  0  0  0  0  0  0  0  0  0
    8.1908   11.8595   23.5123 N   0  0  0  0  0  0  0  0  0  0  0  0
    9.1344   11.5075   23.3505 H   0  0  0  0  0  0  0  0  0  0  0  0
    7.8318   11.4895   24.8302 N   0  0  0  0  0  0  0  0  0  0  0  0
    6.4233   11.7415   25.2177 C   0  0  0  0  0  0  0  0  0  0  0  0
    6.2513   10.2684   25.5841 C   0  0  0  0  0  0  0  0  0  0  0  0
    7.5252   10.0291   24.7839 C   0  0  0  0  0  0  0  0  0  0  0  0
    8.4238   14.4521   24.5839 C   0  0  0  0  0  0  0  0  0  0  0  0
   10.7649   15.0426   25.2868 C   0  0  0  0  0  0  0  0  0  0  0  0
    9.5626   15.4574   24.4586 C   0  0  0  0  0  0  0  0  0  0  0  0
 11 12  1  0  0  0
 12 10  1  0  0  0
 10  1  1  0  0  0
  1  2  2  0  0  0
  1  3  2  0  0  0
  1  4  1  0  0  0
  4  6  1  0  0  0
  6  7  1  0  0  0
  7  8  1  0  0  0
  8  9  1  0  0  0
  9  6  1  0  0  0
  4  5  1  0  0  0
M  END
> <minimizedAffinity>
-3.59179

> <minimizedRMSD>
1.47479

$$$$
C1791-P457


 16 18  0  0  0  0  0  0  0  0999 V2000
    7.4608   10.2509   25.1813 C   0  0  0  0  0  0  0  0  0  0  0  0
    8.2788    9.5449   24.0739 C   0  0  0  0  0  0  0  0  0  0  0  0
    9.4764   10.3656   23.5680 C   0  0  0  0  0  0  0  0  0  0  0  0
    9.0598   11.7706   23.5007 C   0  0  0  0  0  0  0  0  0  0  0  0
    9.8089   12.7159   22.9007 O   0  0  0  0  0  0  0  0  0  0  0  0
    9.0551   13.8521   23.0385 C   0  0  0  0  0  0  0  0  0  0  0  0
    7.9149   13.6764   23.6829 N   0  0  0  0  0  0  0  0  0  0  0  0
    7.9313   12.3566   24.0022 C   0  0  0  0  0  0  0  0  0  0  0  0
    6.9101   11.6297   24.7712 C   0  0  0  0  0  0  0  0  0  0  0  0
    9.6633   15.1372   22.6002 C   0  0  0  0  0  0  0  0  0  0  0  0
   11.1859   15.1159   22.7579 C   0  0  0  0  0  0  0  0  0  0  0  0
   11.8952   14.4666   21.5779 C   0  0  0  0  0  0  0  0  0  0  0  0
   11.4737   15.0344   20.3075 N   0  0  0  0  0  0  0  0  0  0  0  0
   10.0320   14.9168   20.1063 C   0  0  0  0  0  0  0  0  0  0  0  0
    9.2359   15.5903   21.2103 C   0  0  0  0  0  0  0  0  0  0  0  0
   11.9526   14.5436   19.5525 H   0  0  0  0  0  0  0  0  0  0  0  0
  1  2  1  0  0  0
  2  3  1  0  0  0
  3  4  1  0  0  0
  4  5  1  0  0  0
  5  6  1  0  0  0
  6 10  1  0  0  0
 10 11  1  0  0  0
 11 12  1  0  0  0
 12 13  1  0  0  0
 13 14  1  0  0  0
 14 15  1  0  0  0
  6  7  2  0  0  0
  7  8  1  0  0  0
  8  9  1  0  0  0
  9  1  1  0  0  0
  8  4  2  0  0  0
 15 10  1  0  0  0
 13 16  1  0  0  0
M  END
> <minimizedAffinity>
-6.36175

> <minimizedRMSD>
0.30976

$$$$
C1625-P182


 15 15  0  0  0  0  0  0  0  0999 V2000
   11.0741   13.2437   23.5009 N   0  0  0  0  0  0  0  0  0  0  0  0
    9.9222   13.2888   24.5210 C   0  0  0  0  0  0  0  0  0  0  0  0
    9.6144   14.1214   25.2755 O   0  0  0  0  0  0  0  0  0  0  0  0
   11.1712   12.3864   23.0267 H   0  0  0  0  0  0  0  0  0  0  0  0
    9.1522   12.0509   24.4925 C   0  0  0  0  0  0  0  0  0  0  0  0
    9.2284   10.8413   23.8297 C   0  0  0  0  0  0  0  0  0  0  0  0
    8.2471    9.9891   24.2781 N   0  0  0  0  0  0  0  0  0  0  0  0
    7.5892   10.7102   25.1537 C   0  0  0  0  0  0  0  0  0  0  0  0
    8.0747   11.9578   25.3465 O   0  0  0  0  0  0  0  0  0  0  0  0
   12.0297   14.2480   23.1286 C   0  0  0  0  0  0  0  0  0  0  0  0
   11.7310   14.8856   21.7764 C   0  0  0  0  0  0  0  0  0  0  0  0
   10.2344   14.8967   21.4577 C   0  0  0  0  0  0  0  0  0  0  0  0
    9.4293   16.8468   20.0735 C   0  0  0  0  0  0  0  0  0  0  0  0
    9.8346   15.3894   20.0762 C   0  0  0  0  0  0  0  0  0  0  0  0
   11.0466   14.9924   18.8449 Cl  0  0  0  0  0  0  0  0  0  0  0  0
 14 13  1  0  0  0
 14 15  1  0  0  0
 14 12  1  0  0  0
 12 11  1  0  0  0
 11 10  1  0  0  0
 10  1  1  0  0  0
  1  2  1  0  0  0
  2  3  2  0  0  0
  2  5  1  0  0  0
  5  6  2  0  0  0
  6  7  1  0  0  0
  7  8  2  0  0  0
  8  9  1  0  0  0
  9  5  1  0  0  0
  1  4  1  0  0  0
M  END
> <minimizedAffinity>
-5.58235

> <minimizedRMSD>
0.21480

$$$$
C25337-P198


 19 20  0  0  0  0  0  0  0  0999 V2000
    6.6455   12.2863   25.3240 C   0  0  0  0  0  0  0  0  0  0  0  0
    6.0294   13.4994   25.1819 C   0  0  0  0  0  0  0  0  0  0  0  0
    4.7673   13.5225   25.8529 C   0  0  0  0  0  0  0  0  0  0  0  0
    4.4753   12.3327   26.5021 C   0  0  0  0  0  0  0  0  0  0  0  0
    5.7914   11.2337   26.3430 S   0  0  0  0  0  0  0  0  0  0  0  0
    9.5479   10.5766   23.5495 C   0  0  0  0  0  0  0  0  0  0  0  0
    8.1931   10.4511   24.2102 C   0  0  0  0  0  0  0  0  0  0  0  0
    7.6232    9.4355   24.2640 O   0  0  0  0  0  0  0  0  0  0  0  0
    7.7980   11.8539   24.7390 N   0  0  0  0  0  0  0  0  0  0  0  0
    8.4922   12.5443   24.6355 H   0  0  0  0  0  0  0  0  0  0  0  0
    3.2577   11.8864   27.2098 C   0  0  0  0  0  0  0  0  0  0  0  0
    3.1266   10.7619   27.4863 O   0  0  0  0  0  0  0  0  0  0  0  0
    2.3125   13.0851   27.4272 N   0  0  0  0  0  0  0  0  0  0  0  0
    2.6884   13.9581   27.1708 H   0  0  0  0  0  0  0  0  0  0  0  0
    0.9662   13.1357   27.9454 C   0  0  0  0  0  0  0  0  0  0  0  0
   -0.0486   12.8976   26.8304 C   0  0  0  0  0  0  0  0  0  0  0  0
    0.8768   12.2139   29.1314 C   0  0  0  0  0  0  0  0  0  0  0  0
   -0.4417   11.7415   29.6971 C   0  0  0  0  0  0  0  0  0  0  0  0
    0.4333   12.6605   30.5052 C   0  0  0  0  0  0  0  0  0  0  0  0
  6  7  1  0  0  0
  7  8  2  0  0  0
  7  9  1  0  0  0
  9  1  1  0  0  0
  1  2  2  0  0  0
  2  3  1  0  0  0
  3  4  2  0  0  0
  4 11  1  0  0  0
 11 12  2  0  0  0
 11 13  1  0  0  0
 13 15  1  0  0  0
 15 16  1  0  0  0
 15 17  1  0  0  0
 17 18  1  0  0  0
 18 19  1  0  0  0
  4  5  1  0  0  0
  5  1  1  0  0  0
 19 17  1  0  0  0
  9 10  1  0  0  0
 13 14  1  0  0  0
M  END
> <minimizedAffinity>
-3.60917

> <minimizedRMSD>
1.25448

$$$$
C7479-P185


 24 25  0  0  0  0  0  0  0  0999 V2000
    6.0188   14.9486   22.4431 S   0  0  0  0  0  0  0  0  0  0  0  0
    6.2092   13.9067   21.4409 O   0  0  0  0  0  0  0  0  0  0  0  0
    6.9548   16.0474   22.3364 O   0  0  0  0  0  0  0  0  0  0  0  0
    5.6043   14.4725   23.8423 N   0  0  0  0  0  0  0  0  0  0  0  0
    6.6017   14.9250   24.9197 S   0  0  0  0  0  0  0  0  0  0  0  0
    5.8754   14.5003   26.4890 C   0  0  0  0  0  0  0  0  0  0  0  0
    7.0995   16.2739   25.0748 O   0  0  0  0  0  0  0  0  0  0  0  0
    8.0688   13.9189   24.9099 C   0  0  0  0  0  0  0  0  0  0  0  0
    9.2774   14.7583   24.5279 C   0  0  0  0  0  0  0  0  0  0  0  0
   10.5566   13.9748   24.4701 C   0  0  0  0  0  0  0  0  0  0  0  0
   10.4867   12.5464   23.9949 C   0  0  0  0  0  0  0  0  0  0  0  0
    9.1662   11.8106   24.1663 C   0  0  0  0  0  0  0  0  0  0  0  0
    7.9342   12.6776   24.0502 C   0  0  0  0  0  0  0  0  0  0  0  0
    4.5772   15.6409   21.9734 N   0  0  0  0  0  0  0  0  0  0  0  0
    4.4271   16.4576   22.5658 H   0  0  0  0  0  0  0  0  0  0  0  0
    3.3713   14.8329   22.0408 C   0  0  0  0  0  0  0  0  0  0  0  0
    2.8261   14.1384   19.5683 C   0  0  0  0  0  0  0  0  0  0  0  0
    1.8365   14.4761   18.6881 O   0  0  0  0  0  0  0  0  0  0  0  0
    1.1522   15.4468   19.3204 C   0  0  0  0  0  0  0  0  0  0  0  0
    1.6009   15.7420   20.5210 N   0  0  0  0  0  0  0  0  0  0  0  0
    2.6549   14.8771   20.7241 C   0  0  0  0  0  0  0  0  0  0  0  0
    3.7245   12.9945   17.5720 C   0  0  0  0  0  0  0  0  0  0  0  0
    3.7647   13.1069   19.0944 C   0  0  0  0  0  0  0  0  0  0  0  0
    3.4491   11.7567   19.7294 C   0  0  0  0  0  0  0  0  0  0  0  0
 22 23  1  0  0  0
 23 24  1  0  0  0
 23 17  1  0  0  0
 17 18  1  0  0  0
 18 19  1  0  0  0
 19 20  2  0  0  0
 20 21  1  0  0  0
 21 16  1  0  0  0
 16 14  1  0  0  0
 14  1  1  0  0  0
  1  2  2  0  0  0
  1  3  2  0  0  0
  1  4  1  0  0  0
  4  5  2  0  0  0
  5  6  1  0  0  0
  5  7  2  0  0  0
  5  8  1  0  0  0
  8  9  1  0  0  0
  9 10  1  0  0  0
 10 11  1  0  0  0
 11 12  1  0  0  0
 12 13  1  0  0  0
 21 17  2  0  0  0
 13  8  1  0  0  0
 14 15  1  0  0  0
M  END
> <minimizedAffinity>
-5.81377

> <minimizedRMSD>
1.58891

$$$$
C8140-P441


 17 17  0  0  0  0  0  0  0  0999 V2000
    8.4251   13.0469   23.3239 S   0  0  0  0  0  0  0  0  0  0  0  0
    7.0617   13.0688   22.8526 O   0  0  0  0  0  0  0  0  0  0  0  0
    9.3499   12.0140   22.9247 O   0  0  0  0  0  0  0  0  0  0  0  0
    9.1527   14.5331   23.0986 N   0  0  0  0  0  0  0  0  0  0  0  0
   10.5375   14.6841   23.5821 C   0  0  0  0  0  0  0  0  0  0  0  0
   11.5565   14.3907   22.5006 C   0  0  0  0  0  0  0  0  0  0  0  0
   11.3000   15.2374   21.2643 C   0  0  0  0  0  0  0  0  0  0  0  0
    9.8816   15.0128   20.7640 C   0  0  0  0  0  0  0  0  0  0  0  0
    8.8556   15.2856   21.8478 C   0  0  0  0  0  0  0  0  0  0  0  0
    8.3903   13.0044   24.9879 N   0  0  0  0  0  0  0  0  0  0  0  0
    8.1663   12.0444   25.2499 H   0  0  0  0  0  0  0  0  0  0  0  0
    8.2464   14.7830   26.6926 C   0  0  0  0  0  0  0  0  0  0  0  0
    7.4674   13.8755   25.7476 C   0  0  0  0  0  0  0  0  0  0  0  0
    6.3779   12.9941   26.4573 C   0  0  0  0  0  0  0  0  0  0  0  0
    6.7409   11.4977   26.3223 C   0  0  0  0  0  0  0  0  0  0  0  0
    5.0082   13.1849   25.7666 C   0  0  0  0  0  0  0  0  0  0  0  0
    6.2102   13.3445   27.9478 C   0  0  0  0  0  0  0  0  0  0  0  0
 13 12  1  0  0  0
 13 10  1  0  0  0
 10  1  1  0  0  0
  1  2  2  0  0  0
  1  3  2  0  0  0
  1  4  1  0  0  0
  4  5  1  0  0  0
  5  6  1  0  0  0
  6  7  1  0  0  0
  7  8  1  0  0  0
  8  9  1  0  0  0
 13 14  1  0  0  0
 14 15  1  0  0  0
 14 16  1  0  0  0
 14 17  1  0  0  0
  9  4  1  0  0  0
 10 11  1  0  0  0
M  END
> <minimizedAffinity>
-5.22020

> <minimizedRMSD>
1.05078

$$$$
C8169-P441


 15 15  0  0  0  0  0  0  0  0999 V2000
    7.0238   13.1131   22.6382 O   0  0  0  0  0  0  0  0  0  0  0  0
    7.7379   14.0649   23.4568 S   0  0  0  0  0  0  0  0  0  0  0  0
    7.1982   15.3508   23.8143 O   0  0  0  0  0  0  0  0  0  0  0  0
    9.2527   14.2712   22.7692 N   0  0  0  0  0  0  0  0  0  0  0  0
   10.3789   14.5431   23.6780 C   0  0  0  0  0  0  0  0  0  0  0  0
   11.6894   14.5054   22.9065 C   0  0  0  0  0  0  0  0  0  0  0  0
   11.6910   15.5148   21.7691 C   0  0  0  0  0  0  0  0  0  0  0  0
   10.4978   15.2823   20.8567 C   0  0  0  0  0  0  0  0  0  0  0  0
    9.1945   15.2563   21.6374 C   0  0  0  0  0  0  0  0  0  0  0  0
    8.0986   13.3456   24.9368 N   0  0  0  0  0  0  0  0  0  0  0  0
    7.4050   13.6488   25.6205 H   0  0  0  0  0  0  0  0  0  0  0  0
    8.0958   11.8740   24.8917 C   0  0  0  0  0  0  0  0  0  0  0  0
    7.1844   11.2415   25.9237 C   0  0  0  0  0  0  0  0  0  0  0  0
    5.9837   12.1021   26.3003 C   0  0  0  0  0  0  0  0  0  0  0  0
    6.0177   12.5998   28.0049 Cl  0  0  0  0  0  0  0  0  0  0  0  0
  1  2  2  0  0  0
  2  3  2  0  0  0
  2 10  1  0  0  0
 10 12  1  0  0  0
 12 13  1  0  0  0
 13 14  1  0  0  0
 14 15  1  0  0  0
  2  4  1  0  0  0
  4  5  1  0  0  0
  5  6  1  0  0  0
  6  7  1  0  0  0
  7  8  1  0  0  0
  8  9  1  0  0  0
  9  4  1  0  0  0
 10 11  1  0  0  0
M  END
> <minimizedAffinity>
-4.73961

> <minimizedRMSD>
0.66610

$$$$
C4790-P373


 11 12  0  0  0  0  0  0  0  0999 V2000
    9.1739   11.5150   24.4376 C   0  0  0  0  0  0  0  0  0  0  0  0
    8.0291   10.9698   25.0495 C   0  0  0  0  0  0  0  0  0  0  0  0
    7.8843    9.6713   24.7949 N   0  0  0  0  0  0  0  0  0  0  0  0
    8.9192    9.3815   23.9821 N   0  0  0  0  0  0  0  0  0  0  0  0
    9.7354   10.4580   23.7573 C   0  0  0  0  0  0  0  0  0  0  0  0
    9.0723    8.4908   23.5915 H   0  0  0  0  0  0  0  0  0  0  0  0
   10.7899   13.3623   24.0344 C   0  0  0  0  0  0  0  0  0  0  0  0
    9.6447   12.8473   24.4966 C   0  0  0  0  0  0  0  0  0  0  0  0
    8.8023   13.8827   25.1818 C   0  0  0  0  0  0  0  0  0  0  0  0
    9.4740   15.1882   24.7500 C   0  0  0  0  0  0  0  0  0  0  0  0
   10.8965   14.8203   24.3311 C   0  0  0  0  0  0  0  0  0  0  0  0
  7  8  2  0  0  0
  8  1  1  0  0  0
  1  2  1  0  0  0
  2  3  2  0  0  0
  3  4  1  0  0  0
  4  5  1  0  0  0
  8  9  1  0  0  0
  9 10  1  0  0  0
 10 11  1  0  0  0
 11  7  1  0  0  0
  5  1  2  0  0  0
  4  6  1  0  0  0
M  END
> <minimizedAffinity>
-4.56567

> <minimizedRMSD>
2.22125

$$$$
C9370-P619


 15 15  0  0  0  0  0  0  0  0999 V2000
    9.8054   13.6109   23.6288 S   0  0  0  0  0  0  0  0  0  0  0  0
   10.2433   14.0137   25.0382 N   0  0  0  0  0  0  0  0  0  0  0  0
   10.0802   12.3563   22.9746 O   0  0  0  0  0  0  0  0  0  0  0  0
    9.4442   13.8825   25.6517 H   0  0  0  0  0  0  0  0  0  0  0  0
   10.3970   14.8271   22.6354 N   0  0  0  0  0  0  0  0  0  0  0  0
   11.7961   15.2192   22.7856 C   0  0  0  0  0  0  0  0  0  0  0  0
   11.9913   16.2517   21.7014 C   0  0  0  0  0  0  0  0  0  0  0  0
   11.2776   15.6159   20.5344 C   0  0  0  0  0  0  0  0  0  0  0  0
   10.1364   14.8529   21.1922 C   0  0  0  0  0  0  0  0  0  0  0  0
    8.1234   13.7011   23.7956 N   0  0  0  0  0  0  0  0  0  0  0  0
    7.2776   14.6684   23.1104 C   0  0  0  0  0  0  0  0  0  0  0  0
    6.6023   14.1393   21.8543 C   0  0  0  0  0  0  0  0  0  0  0  0
    7.4361   12.4116   23.7431 O   0  0  0  0  0  0  0  0  0  0  0  0
    6.6215   12.4985   26.0544 C   0  0  0  0  0  0  0  0  0  0  0  0
    7.4675   11.7778   25.0188 C   0  0  0  0  0  0  0  0  0  0  0  0
 14 15  1  0  0  0
 15 13  1  0  0  0
 13 10  1  0  0  0
 10 11  1  0  0  0
 11 12  1  0  0  0
  1 10  1  0  0  0
  1  2  2  0  0  0
  1  3  2  0  0  0
  1  5  1  0  0  0
  5  6  1  0  0  0
  6  7  1  0  0  0
  7  8  1  0  0  0
  8  9  1  0  0  0
  9  5  1  0  0  0
  2  4  1  0  0  0
M  END
> <minimizedAffinity>
-4.66043

> <minimizedRMSD>
0.69502

$$$$
C9371-P619


 16 16  0  0  0  0  0  0  0  0999 V2000
    8.1564   14.4188   24.9754 C   0  0  0  0  0  0  0  0  0  0  0  0
    7.2450   15.4870   24.3815 C   0  0  0  0  0  0  0  0  0  0  0  0
    8.1257   14.6276   26.4070 O   0  0  0  0  0  0  0  0  0  0  0  0
    8.4618   15.5142   26.6117 H   0  0  0  0  0  0  0  0  0  0  0  0
    7.6220   13.0090   24.6496 C   0  0  0  0  0  0  0  0  0  0  0  0
    8.6725   11.9257   24.4930 C   0  0  0  0  0  0  0  0  0  0  0  0
    7.9163   10.6337   24.7019 C   0  0  0  0  0  0  0  0  0  0  0  0
    6.7178   10.9621   25.4636 N   0  0  0  0  0  0  0  0  0  0  0  0
    6.7372   12.4020   25.7403 C   0  0  0  0  0  0  0  0  0  0  0  0
    6.7114   10.4411   26.3405 H   0  0  0  0  0  0  0  0  0  0  0  0
    9.6405   14.5966   24.5737 C   0  0  0  0  0  0  0  0  0  0  0  0
   10.5048   14.4121   25.4444 O   0  0  0  0  0  0  0  0  0  0  0  0
   10.0052   14.9254   23.1414 C   0  0  0  0  0  0  0  0  0  0  0  0
   11.4970   15.2544   23.0317 C   0  0  0  0  0  0  0  0  0  0  0  0
   11.6389   15.4259   20.5011 C   0  0  0  0  0  0  0  0  0  0  0  0
   11.9540   15.8457   21.7321 C   0  0  0  0  0  0  0  0  0  0  0  0
 15 16  2  0  0  0
 16 14  1  0  0  0
 14 13  1  0  0  0
 13 11  1  0  0  0
 11 12  2  0  0  0
 11  1  1  0  0  0
  1  2  1  0  0  0
  1  3  1  0  0  0
  1  5  1  0  0  0
  5  6  1  0  0  0
  6  7  1  0  0  0
  7  8  1  0  0  0
  8  9  1  0  0  0
  9  5  1  0  0  0
  3  4  1  0  0  0
  8 10  1  0  0  0
M  END
> <minimizedAffinity>
-4.74262

> <minimizedRMSD>
0.38868

$$$$
C9376-P619


 12 12  0  0  0  0  0  0  0  0999 V2000
    9.5560   14.1158   23.8039 C   0  0  0  0  0  0  0  0  0  0  0  0
    9.6062   15.0971   24.5453 O   0  0  0  0  0  0  0  0  0  0  0  0
    9.3540   12.6981   24.3185 C   0  0  0  0  0  0  0  0  0  0  0  0
    7.9865   12.4498   24.9250 C   0  0  0  0  0  0  0  0  0  0  0  0
    7.8248   10.9403   24.8525 C   0  0  0  0  0  0  0  0  0  0  0  0
    8.9203   10.4631   23.9092 C   0  0  0  0  0  0  0  0  0  0  0  0
    9.4484   11.6694   23.2763 N   0  0  0  0  0  0  0  0  0  0  0  0
    8.8877   11.9260   22.4638 H   0  0  0  0  0  0  0  0  0  0  0  0
    9.5296   15.5859   21.7221 C   0  0  0  0  0  0  0  0  0  0  0  0
    9.7921   14.2050   22.2914 C   0  0  0  0  0  0  0  0  0  0  0  0
   11.1476   13.8234   22.0260 O   0  0  0  0  0  0  0  0  0  0  0  0
   11.7500   14.4386   22.4726 H   0  0  0  0  0  0  0  0  0  0  0  0
 10  9  1  0  0  0
 10 11  1  0  0  0
 10  1  1  0  0  0
  1  2  2  0  0  0
  3  1  1  0  0  0
  3  4  1  0  0  0
  4  5  1  0  0  0
  5  6  1  0  0  0
  6  7  1  0  0  0
  7  3  1  0  0  0
 11 12  1  0  0  0
  7  8  1  0  0  0
M  END
> <minimizedAffinity>
-4.15641

> <minimizedRMSD>
2.06856

$$$$
C9379-P619


 16 16  0  0  0  0  0  0  0  0999 V2000
    9.2806   13.7421   23.8919 C   0  0  0  0  0  0  0  0  0  0  0  0
   10.5659   13.3846   24.3939 O   0  0  0  0  0  0  0  0  0  0  0  0
   10.7597   13.9072   25.1877 H   0  0  0  0  0  0  0  0  0  0  0  0
    8.2560   13.4780   24.9959 C   0  0  0  0  0  0  0  0  0  0  0  0
    8.0873   14.2593   25.9339 O   0  0  0  0  0  0  0  0  0  0  0  0
    7.4024   12.2356   24.8307 C   0  0  0  0  0  0  0  0  0  0  0  0
    6.4951   11.9808   26.0316 C   0  0  0  0  0  0  0  0  0  0  0  0
    6.5594   10.4846   26.2747 C   0  0  0  0  0  0  0  0  0  0  0  0
    7.2833    9.9357   25.0672 C   0  0  0  0  0  0  0  0  0  0  0  0
    8.2137   11.0036   24.7030 N   0  0  0  0  0  0  0  0  0  0  0  0
    8.5467   10.8851   23.7462 H   0  0  0  0  0  0  0  0  0  0  0  0
    9.2071   15.2131   23.4827 C   0  0  0  0  0  0  0  0  0  0  0  0
    8.7738   15.4584   22.0406 C   0  0  0  0  0  0  0  0  0  0  0  0
    9.8397   15.2506   20.9797 C   0  0  0  0  0  0  0  0  0  0  0  0
   12.1221   16.0426   21.6674 C   0  0  0  0  0  0  0  0  0  0  0  0
   10.8650   16.3662   20.8958 C   0  0  0  0  0  0  0  0  0  0  0  0
 15 16  1  0  0  0
 16 14  1  0  0  0
 14 13  1  0  0  0
 13 12  1  0  0  0
 12  1  1  0  0  0
  1  2  1  0  0  0
  1  4  1  0  0  0
  4  5  2  0  0  0
  6  4  1  0  0  0
  6  7  1  0  0  0
  7  8  1  0  0  0
  8  9  1  0  0  0
  9 10  1  0  0  0
 10  6  1  0  0  0
  2  3  1  0  0  0
 10 11  1  0  0  0
M  END
> <minimizedAffinity>
-4.39213

> <minimizedRMSD>
0.99488

$$$$
C9380-P619


 14 14  0  0  0  0  0  0  0  0999 V2000
    7.4271   14.1609   23.0253 C   0  0  0  0  0  0  0  0  0  0  0  0
    6.6281   13.5665   22.0083 O   0  0  0  0  0  0  0  0  0  0  0  0
    7.1666   12.9416   21.4979 H   0  0  0  0  0  0  0  0  0  0  0  0
    7.8838   13.1096   24.0426 C   0  0  0  0  0  0  0  0  0  0  0  0
    8.0506   11.7989   23.5132 O   0  0  0  0  0  0  0  0  0  0  0  0
    7.1290   10.5348   25.4286 C   0  0  0  0  0  0  0  0  0  0  0  0
    8.3184   10.8262   24.5204 C   0  0  0  0  0  0  0  0  0  0  0  0
    8.8471    9.5850   23.8233 C   0  0  0  0  0  0  0  0  0  0  0  0
    8.5316   15.1238   22.5099 C   0  0  0  0  0  0  0  0  0  0  0  0
    9.7600   14.6090   21.8962 N   0  0  0  0  0  0  0  0  0  0  0  0
   10.9384   14.8437   22.7535 C   0  0  0  0  0  0  0  0  0  0  0  0
   11.8622   15.7746   21.9887 C   0  0  0  0  0  0  0  0  0  0  0  0
   11.5664   15.4238   20.5523 C   0  0  0  0  0  0  0  0  0  0  0  0
   10.0622   15.2206   20.5864 C   0  0  0  0  0  0  0  0  0  0  0  0
  6  7  1  0  0  0
  7  8  1  0  0  0
  7  5  1  0  0  0
  5  4  1  0  0  0
  4  1  1  0  0  0
  1  2  1  0  0  0
  1  9  1  0  0  0
  9 10  1  0  0  0
 10 11  1  0  0  0
 11 12  1  0  0  0
 12 13  1  0  0  0
 13 14  1  0  0  0
 14 10  1  0  0  0
  2  3  1  0  0  0
M  END
> <minimizedAffinity>
-5.18569

> <minimizedRMSD>
0.93356

$$$$
C9385-P619


 14 14  0  0  0  0  0  0  0  0999 V2000
    8.9576   14.0842   22.9776 C   0  0  0  0  0  0  0  0  0  0  0  0
    8.0148   13.9355   21.9325 O   0  0  0  0  0  0  0  0  0  0  0  0
    8.2363   13.1512   21.4065 H   0  0  0  0  0  0  0  0  0  0  0  0
    8.9606   12.8195   23.8578 C   0  0  0  0  0  0  0  0  0  0  0  0
    7.6000   12.4040   24.3929 C   0  0  0  0  0  0  0  0  0  0  0  0
    7.8711   10.9986   24.8976 C   0  0  0  0  0  0  0  0  0  0  0  0
    8.9009   10.4453   23.9282 C   0  0  0  0  0  0  0  0  0  0  0  0
    9.4327   11.5886   23.1951 N   0  0  0  0  0  0  0  0  0  0  0  0
    9.1002   11.5659   22.2311 H   0  0  0  0  0  0  0  0  0  0  0  0
   10.4171   14.3955   22.6086 C   0  0  0  0  0  0  0  0  0  0  0  0
   11.3700   13.6811   22.9194 O   0  0  0  0  0  0  0  0  0  0  0  0
   12.1323   16.0797   21.7220 C   0  0  0  0  0  0  0  0  0  0  0  0
   10.6920   15.7152   21.9091 C   0  0  0  0  0  0  0  0  0  0  0  0
    9.7556   16.4247   21.5641 O   0  0  0  0  0  0  0  0  0  0  0  0
 12 13  1  0  0  0
 13 14  2  0  0  0
 13 10  1  0  0  0
 10 11  2  0  0  0
 10  1  1  0  0  0
  1  2  1  0  0  0
  1  4  1  0  0  0
  4  5  1  0  0  0
  5  6  1  0  0  0
  6  7  1  0  0  0
  7  8  1  0  0  0
  8  4  1  0  0  0
  2  3  1  0  0  0
  8  9  1  0  0  0
M  END
> <minimizedAffinity>
-4.97398

> <minimizedRMSD>
1.99987

$$$$
C9390-P619


 16 16  0  0  0  0  0  0  0  0999 V2000
    8.4493   14.2633   24.1952 C   0  0  0  0  0  0  0  0  0  0  0  0
    8.4278   14.5334   25.7072 C   0  0  0  0  0  0  0  0  0  0  0  0
    7.3056   14.9801   23.7200 O   0  0  0  0  0  0  0  0  0  0  0  0
    7.3861   15.9155   23.9636 H   0  0  0  0  0  0  0  0  0  0  0  0
    8.3002   12.7729   23.7957 C   0  0  0  0  0  0  0  0  0  0  0  0
    9.5769   12.0113   23.4668 C   0  0  0  0  0  0  0  0  0  0  0  0
    9.2302   10.5507   23.6732 C   0  0  0  0  0  0  0  0  0  0  0  0
    7.9668   10.5130   24.3959 N   0  0  0  0  0  0  0  0  0  0  0  0
    7.6714   11.8674   24.8539 C   0  0  0  0  0  0  0  0  0  0  0  0
    8.0440    9.8856   25.1964 H   0  0  0  0  0  0  0  0  0  0  0  0
    9.7704   14.8649   23.6377 C   0  0  0  0  0  0  0  0  0  0  0  0
   10.8074   14.8126   24.3061 O   0  0  0  0  0  0  0  0  0  0  0  0
    9.7224   15.4885   22.2488 C   0  0  0  0  0  0  0  0  0  0  0  0
   10.5461   15.4674   19.8849 C   0  0  0  0  0  0  0  0  0  0  0  0
   10.9311   15.2123   21.3433 C   0  0  0  0  0  0  0  0  0  0  0  0
   12.1107   16.1008   21.6638 C   0  0  0  0  0  0  0  0  0  0  0  0
 14 15  1  0  0  0
 15 16  1  0  0  0
 15 13  1  0  0  0
 13 11  1  0  0  0
 11 12  2  0  0  0
 11  1  1  0  0  0
  1  2  1  0  0  0
  1  3  1  0  0  0
  1  5  1  0  0  0
  5  6  1  0  0  0
  6  7  1  0  0  0
  7  8  1  0  0  0
  8  9  1  0  0  0
  9  5  1  0  0  0
  3  4  1  0  0  0
  8 10  1  0  0  0
M  END
> <minimizedAffinity>
-5.37719

> <minimizedRMSD>
1.49524

$$$$
C9394-P619


 14 14  0  0  0  0  0  0  0  0999 V2000
    9.1328   14.6047   24.1751 C   0  0  0  0  0  0  0  0  0  0  0  0
    8.5389   15.2637   25.3103 O   0  0  0  0  0  0  0  0  0  0  0  0
    9.1199   15.1667   26.0809 H   0  0  0  0  0  0  0  0  0  0  0  0
    9.3337   13.1372   24.5376 C   0  0  0  0  0  0  0  0  0  0  0  0
    8.2988   12.3281   23.9859 O   0  0  0  0  0  0  0  0  0  0  0  0
    7.8308   11.2769   24.8173 C   0  0  0  0  0  0  0  0  0  0  0  0
    9.2232    9.5037   23.6011 C   0  0  0  0  0  0  0  0  0  0  0  0
    8.1884    9.8895   24.3590 C   0  0  0  0  0  0  0  0  0  0  0  0
   10.5086   15.2308   23.8442 C   0  0  0  0  0  0  0  0  0  0  0  0
   10.7076   15.7069   22.4772 N   0  0  0  0  0  0  0  0  0  0  0  0
   11.4950   14.7789   21.6641 C   0  0  0  0  0  0  0  0  0  0  0  0
   11.4619   15.4410   20.3015 C   0  0  0  0  0  0  0  0  0  0  0  0
   10.1186   16.1573   20.2628 C   0  0  0  0  0  0  0  0  0  0  0  0
    9.5285   15.9715   21.6578 C   0  0  0  0  0  0  0  0  0  0  0  0
  7  8  2  0  0  0
  8  6  1  0  0  0
  6  5  1  0  0  0
  5  4  1  0  0  0
  4  1  1  0  0  0
  1  2  1  0  0  0
  1  9  1  0  0  0
  9 10  1  0  0  0
 10 11  1  0  0  0
 11 12  1  0  0  0
 12 13  1  0  0  0
 13 14  1  0  0  0
 14 10  1  0  0  0
  2  3  1  0  0  0
M  END
> <minimizedAffinity>
-4.41319

> <minimizedRMSD>
1.56724

$$$$
C2423-P283


 15 15  0  0  0  0  0  0  0  0999 V2000
    9.3103   12.7815   23.6835 C   0  0  0  0  0  0  0  0  0  0  0  0
    9.6298   11.7513   22.8480 F   0  0  0  0  0  0  0  0  0  0  0  0
    7.9928   12.4569   24.4094 C   0  0  0  0  0  0  0  0  0  0  0  0
    7.6581   13.4887   25.4939 C   0  0  0  0  0  0  0  0  0  0  0  0
    6.6326   13.0004   26.5159 C   0  0  0  0  0  0  0  0  0  0  0  0
    6.0024   11.6675   26.1506 C   0  0  0  0  0  0  0  0  0  0  0  0
    7.0017   10.6505   25.8761 N   0  0  0  0  0  0  0  0  0  0  0  0
    8.0547   11.0280   24.9431 C   0  0  0  0  0  0  0  0  0  0  0  0
    6.5217    9.8363   25.4926 H   0  0  0  0  0  0  0  0  0  0  0  0
    9.2968   14.0969   22.8821 C   0  0  0  0  0  0  0  0  0  0  0  0
    8.0836   14.2456   21.9615 C   0  0  0  0  0  0  0  0  0  0  0  0
   10.5488   14.2833   22.0132 C   0  0  0  0  0  0  0  0  0  0  0  0
   12.3323   15.9658   21.7207 C   0  0  0  0  0  0  0  0  0  0  0  0
   11.7570   14.9368   22.6871 C   0  0  0  0  0  0  0  0  0  0  0  0
   11.4447   15.5864   24.0317 C   0  0  0  0  0  0  0  0  0  0  0  0
 13 14  1  0  0  0
 14 15  1  0  0  0
 14 12  1  0  0  0
 12 10  1  0  0  0
 10 11  1  0  0  0
 10  1  1  0  0  0
  1  2  1  0  0  0
  1  3  1  0  0  0
  3  4  1  0  0  0
  4  5  1  0  0  0
  5  6  1  0  0  0
  6  7  1  0  0  0
  7  8  1  0  0  0
  8  3  1  0  0  0
  7  9  1  0  0  0
M  END
> <minimizedAffinity>
-4.72115

> <minimizedRMSD>
0.91519

$$$$
C760-P279


 15 17  0  0  0  0  0  0  0  0999 V2000
    9.0053   11.6502   24.0571 C   0  0  0  0  0  0  0  0  0  0  0  0
    9.8439   12.9004   23.7752 C   0  0  0  0  0  0  0  0  0  0  0  0
    9.1604   14.1384   24.1133 N   0  0  0  0  0  0  0  0  0  0  0  0
    7.7109   14.0382   24.2147 C   0  0  0  0  0  0  0  0  0  0  0  0
    7.4719   13.1291   25.4067 C   0  0  0  0  0  0  0  0  0  0  0  0
    8.1326   11.7690   25.3024 C   0  0  0  0  0  0  0  0  0  0  0  0
    6.1619   13.2455   26.1637 C   0  0  0  0  0  0  0  0  0  0  0  0
    7.4121   13.7784   26.7836 C   0  0  0  0  0  0  0  0  0  0  0  0
    9.6552   15.4049   23.5583 C   0  0  0  0  0  0  0  0  0  0  0  0
   11.1025   15.7027   23.9810 C   0  0  0  0  0  0  0  0  0  0  0  0
   12.1498   15.2280   22.9867 C   0  0  0  0  0  0  0  0  0  0  0  0
   11.8695   15.7617   21.6636 N   0  0  0  0  0  0  0  0  0  0  0  0
   10.6014   15.2367   21.1621 C   0  0  0  0  0  0  0  0  0  0  0  0
    9.4337   15.6482   22.0525 C   0  0  0  0  0  0  0  0  0  0  0  0
   12.6199   15.4936   21.0269 H   0  0  0  0  0  0  0  0  0  0  0  0
  1  2  1  0  0  0
  2  3  1  0  0  0
  3  9  1  0  0  0
  9 10  1  0  0  0
 10 11  1  0  0  0
 11 12  1  0  0  0
 12 13  1  0  0  0
 13 14  1  0  0  0
  3  4  1  0  0  0
  4  5  1  0  0  0
  5  6  1  0  0  0
  5  7  1  0  0  0
  7  8  1  0  0  0
  6  1  1  0  0  0
 14  9  1  0  0  0
  8  5  1  0  0  0
 12 15  1  0  0  0
M  END
> <minimizedAffinity>
-4.73726

> <minimizedRMSD>
0.34264

$$$$
C742-P441


 12 14  0  0  0  0  0  0  0  0999 V2000
   10.6483   15.4565   20.6148 C   0  0  0  0  0  0  0  0  0  0  0  0
   11.7288   15.2350   21.4529 C   0  0  0  0  0  0  0  0  0  0  0  0
   11.4914   14.7971   22.7505 C   0  0  0  0  0  0  0  0  0  0  0  0
   10.1781   14.5665   23.1753 C   0  0  0  0  0  0  0  0  0  0  0  0
    9.1206   14.8133   22.3746 N   0  0  0  0  0  0  0  0  0  0  0  0
    9.3796   15.2594   21.1262 C   0  0  0  0  0  0  0  0  0  0  0  0
    9.9875   13.9364   24.4373 N   0  0  0  0  0  0  0  0  0  0  0  0
   10.6152   12.5994   24.3440 C   0  0  0  0  0  0  0  0  0  0  0  0
    9.4932   11.6304   24.1616 C   0  0  0  0  0  0  0  0  0  0  0  0
    8.6131   11.2014   25.2952 C   0  0  0  0  0  0  0  0  0  0  0  0
    8.2163   12.3585   24.4285 C   0  0  0  0  0  0  0  0  0  0  0  0
    8.5598   13.7743   24.7809 C   0  0  0  0  0  0  0  0  0  0  0  0
  1  2  2  0  0  0
  2  3  1  0  0  0
  3  4  2  0  0  0
  4  7  1  0  0  0
  7  8  1  0  0  0
  9  8  1  0  0  0
  9 10  1  0  0  0
 11 10  1  0  0  0
 11 12  1  0  0  0
  4  5  1  0  0  0
  5  6  2  0  0  0
  6  1  1  0  0  0
 12  7  1  0  0  0
 11  9  1  0  0  0
M  END
> <minimizedAffinity>
-5.32561

> <minimizedRMSD>
0.56307

$$$$
C11066-P220


 25 27  0  0  0  0  0  0  0  0999 V2000
   19.8579   13.6262    2.5116 C   0  0  0  0  0  0  0  0  0  0  0  0
   19.6868   12.8719    3.3794 O   0  0  0  0  0  0  0  0  0  0  0  0
   19.1704   14.9666    2.2070 N   0  0  0  0  0  0  0  0  0  0  0  0
   19.5508   15.4612    1.4456 H   0  0  0  0  0  0  0  0  0  0  0  0
   25.3124   12.9396    3.7681 C   0  0  0  0  0  0  0  0  0  0  0  0
   24.3753   12.5956    2.6175 C   0  0  0  0  0  0  0  0  0  0  0  0
   24.9831   12.9931    1.2629 C   0  0  0  0  0  0  0  0  0  0  0  0
   24.0797   12.5415    0.1137 C   0  0  0  0  0  0  0  0  0  0  0  0
   22.6594   12.8857    0.3675 C   0  0  0  0  0  0  0  0  0  0  0  0
   21.6671   12.9256   -0.4938 N   0  0  0  0  0  0  0  0  0  0  0  0
   20.5206   13.2230    0.2002 N   0  0  0  0  0  0  0  0  0  0  0  0
   20.8358   13.3560    1.4768 C   0  0  0  0  0  0  0  0  0  0  0  0
   22.1829   13.1728    1.6175 N   0  0  0  0  0  0  0  0  0  0  0  0
   23.0061   13.2737    2.8057 C   0  0  0  0  0  0  0  0  0  0  0  0
   18.0614   15.6161    2.8536 C   0  0  0  0  0  0  0  0  0  0  0  0
   17.5965   16.8836    2.1493 C   0  0  0  0  0  0  0  0  0  0  0  0
   18.2265   18.1788    2.6633 C   0  0  0  0  0  0  0  0  0  0  0  0
   18.8480   18.0596    4.0072 N   0  0  0  0  0  0  0  0  0  0  0  0
   20.2883   18.3956    3.9598 C   0  0  0  0  0  0  0  0  0  0  0  0
   18.1905   18.8487    4.9958 C   0  0  0  0  0  0  0  0  0  0  0  0
   18.8186   19.0976    6.2220 C   0  0  0  0  0  0  0  0  0  0  0  0
   18.2200   19.9384    7.1604 C   0  0  0  0  0  0  0  0  0  0  0  0
   16.9859   20.4984    6.8770 C   0  0  0  0  0  0  0  0  0  0  0  0
   16.3973   20.1692    5.6721 C   0  0  0  0  0  0  0  0  0  0  0  0
   16.9604   19.3528    4.7520 N   0  0  0  0  0  0  0  0  0  0  0  0
  6  5  1  0  0  0
  6  7  1  0  0  0
  7  8  1  0  0  0
  8  9  1  0  0  0
  9 10  2  0  0  0
 10 11  1  0  0  0
 11 12  2  0  0  0
 12  1  1  0  0  0
  1  2  2  0  0  0
  1  3  1  0  0  0
  3 15  1  0  0  0
 15 16  1  0  0  0
 16 17  1  0  0  0
 17 18  1  0  0  0
 18 19  1  0  0  0
 18 20  1  0  0  0
 20 21  2  0  0  0
 21 22  1  0  0  0
 22 23  2  0  0  0
 23 24  1  0  0  0
 24 25  2  0  0  0
 12 13  1  0  0  0
 13 14  1  0  0  0
 14  6  1  0  0  0
 13  9  1  0  0  0
 25 20  1  0  0  0
  3  4  1  0  0  0
M  END
> <minimizedAffinity>
-4.59762

> <minimizedRMSD>
1.78212

$$$$
C7620-P239


 17 18  0  0  0  0  0  0  0  0999 V2000
    9.7695   13.5174   24.1184 C   0  0  0  0  0  0  0  0  0  0  0  0
   10.9860   13.4697   23.2134 C   0  0  0  0  0  0  0  0  0  0  0  0
   11.1971   13.7927   24.6095 C   0  0  0  0  0  0  0  0  0  0  0  0
    9.1591   12.3062   24.8166 C   0  0  0  0  0  0  0  0  0  0  0  0
    7.9063   12.4839   25.6431 C   0  0  0  0  0  0  0  0  0  0  0  0
    7.3267   11.0864   25.7770 C   0  0  0  0  0  0  0  0  0  0  0  0
    8.0801   10.2264   24.7808 C   0  0  0  0  0  0  0  0  0  0  0  0
    8.9028   11.1304   23.9794 N   0  0  0  0  0  0  0  0  0  0  0  0
    8.4052   11.4024   23.1316 H   0  0  0  0  0  0  0  0  0  0  0  0
    8.8480   14.6968   23.9745 N   0  0  0  0  0  0  0  0  0  0  0  0
    8.2236   14.7022   24.7811 H   0  0  0  0  0  0  0  0  0  0  0  0
    7.8856   14.7412   22.5776 S   0  0  0  0  0  0  0  0  0  0  0  0
    7.4027   13.4067   22.2877 O   0  0  0  0  0  0  0  0  0  0  0  0
    6.9730   15.8497   22.7640 O   0  0  0  0  0  0  0  0  0  0  0  0
    9.0413   15.1942   21.2994 C   0  0  0  0  0  0  0  0  0  0  0  0
   11.1842   16.5158   21.2932 C   0  0  0  0  0  0  0  0  0  0  0  0
    9.6806   16.5642   21.4799 C   0  0  0  0  0  0  0  0  0  0  0  0
 16 17  1  0  0  0
 17 15  1  0  0  0
 15 12  1  0  0  0
 12 13  2  0  0  0
 12 14  2  0  0  0
 12 10  1  0  0  0
 10  1  1  0  0  0
  4  1  1  0  0  0
  4  5  1  0  0  0
  5  6  1  0  0  0
  6  7  1  0  0  0
  7  8  1  0  0  0
  1  2  1  0  0  0
  2  3  1  0  0  0
  3  1  1  0  0  0
  8  4  1  0  0  0
 10 11  1  0  0  0
  8  9  1  0  0  0
M  END
> <minimizedAffinity>
-4.68389

> <minimizedRMSD>
2.50358

$$$$
C11062-P176


 27 30  0  0  0  0  0  0  0  0999 V2000
   20.3924   12.8447    3.5295 O   0  0  0  0  0  0  0  0  0  0  0  0
   20.8608   13.6062    2.7799 C   0  0  0  0  0  0  0  0  0  0  0  0
   22.3381   13.9365    2.4823 N   0  0  0  0  0  0  0  0  0  0  0  0
   22.4752   14.6811    1.8530 H   0  0  0  0  0  0  0  0  0  0  0  0
   19.9927   14.5826    1.9487 C   0  0  0  0  0  0  0  0  0  0  0  0
   20.7133   15.1472    0.7771 N   0  0  0  0  0  0  0  0  0  0  0  0
   20.4557   16.6061    0.6520 C   0  0  0  0  0  0  0  0  0  0  0  0
   19.0218   16.9884    0.2102 C   0  0  0  0  0  0  0  0  0  0  0  0
   18.6249   16.3080   -1.0367 N   0  0  0  0  0  0  0  0  0  0  0  0
   18.8441   14.8467   -0.9864 C   0  0  0  0  0  0  0  0  0  0  0  0
   20.2721   14.4935   -0.4942 C   0  0  0  0  0  0  0  0  0  0  0  0
   19.0759   16.9348   -2.2111 C   0  0  0  0  0  0  0  0  0  0  0  0
   19.1446   16.2138   -3.4059 C   0  0  0  0  0  0  0  0  0  0  0  0
   19.5788   16.8338   -4.5771 C   0  0  0  0  0  0  0  0  0  0  0  0
   19.9281   18.1732   -4.5423 C   0  0  0  0  0  0  0  0  0  0  0  0
   19.8143   18.8331   -3.3348 C   0  0  0  0  0  0  0  0  0  0  0  0
   19.3928   18.2490   -2.1898 N   0  0  0  0  0  0  0  0  0  0  0  0
   23.5432   13.3359    2.9728 C   0  0  0  0  0  0  0  0  0  0  0  0
   24.1782   12.5176    1.9170 C   0  0  0  0  0  0  0  0  0  0  0  0
   23.8155   12.3946    0.6534 N   0  0  0  0  0  0  0  0  0  0  0  0
   24.6982   11.5413    0.0329 N   0  0  0  0  0  0  0  0  0  0  0  0
   25.5912   11.1722    0.9235 C   0  0  0  0  0  0  0  0  0  0  0  0
   25.3074   11.7735    2.1179 N   0  0  0  0  0  0  0  0  0  0  0  0
   26.1523   11.7149    3.2911 C   0  0  0  0  0  0  0  0  0  0  0  0
   27.2253   10.6276    3.1997 C   0  0  0  0  0  0  0  0  0  0  0  0
   27.8303   10.5518    1.7959 C   0  0  0  0  0  0  0  0  0  0  0  0
   26.7478   10.2598    0.7537 C   0  0  0  0  0  0  0  0  0  0  0  0
  1  2  2  0  0  0
  2  5  1  0  0  0
  5  6  1  0  0  0
  6  7  1  0  0  0
  7  8  1  0  0  0
  8  9  1  0  0  0
  9 12  1  0  0  0
 12 13  2  0  0  0
 13 14  1  0  0  0
 14 15  2  0  0  0
 15 16  1  0  0  0
 16 17  2  0  0  0
  9 10  1  0  0  0
 10 11  1  0  0  0
  2  3  1  0  0  0
  3 18  1  0  0  0
 18 19  1  0  0  0
 19 20  2  0  0  0
 20 21  1  0  0  0
 21 22  2  0  0  0
 22 23  1  0  0  0
 23 24  1  0  0  0
 24 25  1  0  0  0
 25 26  1  0  0  0
 26 27  1  0  0  0
 11  6  1  0  0  0
 23 19  1  0  0  0
 17 12  1  0  0  0
 27 22  1  0  0  0
  3  4  1  0  0  0
M  END
> <minimizedAffinity>
-3.75347

> <minimizedRMSD>
2.70677

$$$$
C15027-P135


 14 14  0  0  0  0  0  0  0  0999 V2000
   11.2839   12.8854   24.1021 C   0  0  0  0  0  0  0  0  0  0  0  0
   12.5881   12.3898   24.3155 O   0  0  0  0  0  0  0  0  0  0  0  0
   12.8403   11.8144   23.5763 H   0  0  0  0  0  0  0  0  0  0  0  0
   10.2414   11.7754   24.1091 C   0  0  0  0  0  0  0  0  0  0  0  0
   10.3670   10.6165   23.3396 C   0  0  0  0  0  0  0  0  0  0  0  0
    9.4486    9.5938   23.5126 C   0  0  0  0  0  0  0  0  0  0  0  0
    8.4033    9.6542   24.3675 N   0  0  0  0  0  0  0  0  0  0  0  0
    8.2551   10.8015   25.0576 C   0  0  0  0  0  0  0  0  0  0  0  0
    9.1331   11.8690   24.9657 C   0  0  0  0  0  0  0  0  0  0  0  0
   11.0938   13.9144   22.9834 C   0  0  0  0  0  0  0  0  0  0  0  0
   10.0790   14.6214   23.0060 O   0  0  0  0  0  0  0  0  0  0  0  0
   12.1427   13.9812   21.8641 C   0  0  0  0  0  0  0  0  0  0  0  0
   13.2275   16.2019   21.2553 C   0  0  0  0  0  0  0  0  0  0  0  0
   12.3242   15.2369   21.0666 C   0  0  0  0  0  0  0  0  0  0  0  0
 13 14  2  0  0  0
 14 12  1  0  0  0
 12 10  1  0  0  0
 10 11  2  0  0  0
 10  1  1  0  0  0
  1  2  1  0  0  0
  1  4  1  0  0  0
  4  5  2  0  0  0
  5  6  1  0  0  0
  6  7  2  0  0  0
  7  8  1  0  0  0
  8  9  2  0  0  0
  9  4  1  0  0  0
  2  3  1  0  0  0
M  END
> <minimizedAffinity>
-5.34352

> <minimizedRMSD>
0.82039

$$$$
C7654-P161


 13 13  0  0  0  0  0  0  0  0999 V2000
    8.7901   14.2226   23.8607 N   0  0  0  0  0  0  0  0  0  0  0  0
    8.2745   14.6528   24.6284 H   0  0  0  0  0  0  0  0  0  0  0  0
    8.4095   12.7990   23.7965 C   0  0  0  0  0  0  0  0  0  0  0  0
    7.9265   12.3142   25.1499 C   0  0  0  0  0  0  0  0  0  0  0  0
    7.8007   10.8066   25.0680 C   0  0  0  0  0  0  0  0  0  0  0  0
    9.0395   10.2509   23.8761 S   0  0  0  0  0  0  0  0  0  0  0  0
    9.5724   11.9100   23.3922 C   0  0  0  0  0  0  0  0  0  0  0  0
    8.4800   15.1162   22.4557 S   0  0  0  0  0  0  0  0  0  0  0  0
    8.1293   16.4291   22.9409 O   0  0  0  0  0  0  0  0  0  0  0  0
    7.5869   14.3217   21.6379 O   0  0  0  0  0  0  0  0  0  0  0  0
   10.0603   15.1957   21.6400 C   0  0  0  0  0  0  0  0  0  0  0  0
   12.3081   16.2313   21.5514 C   0  0  0  0  0  0  0  0  0  0  0  0
   11.1514   15.8594   22.4577 C   0  0  0  0  0  0  0  0  0  0  0  0
 12 13  1  0  0  0
 13 11  1  0  0  0
 11  8  1  0  0  0
  8  9  2  0  0  0
  8 10  2  0  0  0
  8  1  1  0  0  0
  3  1  1  0  0  0
  3  4  1  0  0  0
  4  5  1  0  0  0
  5  6  1  0  0  0
  6  7  1  0  0  0
  7  3  1  0  0  0
  1  2  1  0  0  0
M  END
> <minimizedAffinity>
-4.33980

> <minimizedRMSD>
1.08321

$$$$
C21692-P22


 16 16  0  0  0  0  0  0  0  0999 V2000
    8.2062   15.0211   25.3102 C   0  0  0  0  0  0  0  0  0  0  0  0
    7.0796   14.4466   24.4805 C   0  0  0  0  0  0  0  0  0  0  0  0
    5.5750   14.4904   22.3587 N   0  0  0  0  0  0  0  0  0  0  0  0
    7.2166   14.5598   22.7079 S   0  0  0  0  0  0  0  0  0  0  0  0
    7.7049   15.8649   22.3405 O   0  0  0  0  0  0  0  0  0  0  0  0
    7.7024   13.3498   22.0854 O   0  0  0  0  0  0  0  0  0  0  0  0
    5.4395   14.5431   21.3491 H   0  0  0  0  0  0  0  0  0  0  0  0
    5.0986   15.2731   22.8070 H   0  0  0  0  0  0  0  0  0  0  0  0
    9.1788   13.9495   25.7841 C   0  0  0  0  0  0  0  0  0  0  0  0
    9.8036   13.0991   24.7957 N   0  0  0  0  0  0  0  0  0  0  0  0
    9.2774   11.7783   24.5564 C   0  0  0  0  0  0  0  0  0  0  0  0
   10.0119   11.2700   23.3314 C   0  0  0  0  0  0  0  0  0  0  0  0
   10.7437   12.4110   22.8788 N   0  0  0  0  0  0  0  0  0  0  0  0
   10.6041   13.4936   23.7223 C   0  0  0  0  0  0  0  0  0  0  0  0
   11.0928   14.5874   23.5094 O   0  0  0  0  0  0  0  0  0  0  0  0
   11.2865   12.4231   22.0576 H   0  0  0  0  0  0  0  0  0  0  0  0
  3  4  1  0  0  0
  4  5  2  0  0  0
  4  6  2  0  0  0
  4  2  1  0  0  0
  2  1  1  0  0  0
  1  9  1  0  0  0
  9 10  1  0  0  0
 10 11  1  0  0  0
 11 12  1  0  0  0
 12 13  1  0  0  0
 13 14  1  0  0  0
 14 15  2  0  0  0
 14 10  1  0  0  0
  3  7  1  0  0  0
  3  8  1  0  0  0
 13 16  1  0  0  0
M  END
> <minimizedAffinity>
-3.74847

> <minimizedRMSD>
1.01766

$$$$
C21693-P22


 17 17  0  0  0  0  0  0  0  0999 V2000
    8.5621   14.3271   26.7017 C   0  0  0  0  0  0  0  0  0  0  0  0
    8.6362   14.1297   25.1834 C   0  0  0  0  0  0  0  0  0  0  0  0
    9.0993   12.7716   24.8428 N   0  0  0  0  0  0  0  0  0  0  0  0
    8.1219   11.6899   24.8376 C   0  0  0  0  0  0  0  0  0  0  0  0
    8.7257   10.3352   24.6228 C   0  0  0  0  0  0  0  0  0  0  0  0
    9.7459   10.3381   23.5233 C   0  0  0  0  0  0  0  0  0  0  0  0
   10.6058   11.4802   23.5961 N   0  0  0  0  0  0  0  0  0  0  0  0
   10.2564   12.6969   24.0801 C   0  0  0  0  0  0  0  0  0  0  0  0
   10.9722   13.6622   23.8352 O   0  0  0  0  0  0  0  0  0  0  0  0
   11.5275   11.3729   23.2672 H   0  0  0  0  0  0  0  0  0  0  0  0
    7.2867   14.4613   24.5771 C   0  0  0  0  0  0  0  0  0  0  0  0
    7.3118   14.6330   22.8122 S   0  0  0  0  0  0  0  0  0  0  0  0
    5.6510   14.5572   22.5737 N   0  0  0  0  0  0  0  0  0  0  0  0
    7.7791   15.9501   22.4636 O   0  0  0  0  0  0  0  0  0  0  0  0
    7.7925   13.4396   22.1501 O   0  0  0  0  0  0  0  0  0  0  0  0
    5.2077   15.3662   23.0090 H   0  0  0  0  0  0  0  0  0  0  0  0
    5.2858   13.7024   22.9938 H   0  0  0  0  0  0  0  0  0  0  0  0
  2  1  1  0  0  0
  2 11  1  0  0  0
 11 12  1  0  0  0
 12 13  1  0  0  0
 12 14  2  0  0  0
 12 15  2  0  0  0
  2  3  1  0  0  0
  3  4  1  0  0  0
  4  5  1  0  0  0
  5  6  1  0  0  0
  6  7  1  0  0  0
  7  8  1  0  0  0
  8  9  2  0  0  0
  8  3  1  0  0  0
 13 16  1  0  0  0
 13 17  1  0  0  0
  7 10  1  0  0  0
M  END
> <minimizedAffinity>
-4.11642

> <minimizedRMSD>
0.40759

$$$$
C30125-P22


 21 22  0  0  0  0  0  0  0  0999 V2000
    9.1520   15.5061   21.7252 S   0  0  0  0  0  0  0  0  0  0  0  0
    8.6997   16.7037   21.0622 O   0  0  0  0  0  0  0  0  0  0  0  0
    8.9970   14.1987   21.1242 O   0  0  0  0  0  0  0  0  0  0  0  0
   10.8110   15.7809   21.9593 N   0  0  0  0  0  0  0  0  0  0  0  0
   10.9972   16.7589   21.7371 H   0  0  0  0  0  0  0  0  0  0  0  0
   13.2552   17.1725   18.8230 O   0  0  0  0  0  0  0  0  0  0  0  0
   12.9677   16.4065   19.7242 C   0  0  0  0  0  0  0  0  0  0  0  0
   11.8216   15.4321   19.7073 C   0  0  0  0  0  0  0  0  0  0  0  0
   11.7482   14.9456   21.1489 C   0  0  0  0  0  0  0  0  0  0  0  0
   13.1842   15.1344   21.6471 C   0  0  0  0  0  0  0  0  0  0  0  0
   13.6545   16.2725   20.9105 N   0  0  0  0  0  0  0  0  0  0  0  0
   14.3713   16.8761   21.2123 H   0  0  0  0  0  0  0  0  0  0  0  0
    8.5365   15.4670   23.3963 C   0  0  0  0  0  0  0  0  0  0  0  0
    9.4605   14.7948   24.4012 C   0  0  0  0  0  0  0  0  0  0  0  0
    8.9353   13.4970   24.9797 C   0  0  0  0  0  0  0  0  0  0  0  0
    9.0180   12.2671   24.2266 N   0  0  0  0  0  0  0  0  0  0  0  0
   10.2053   11.7265   23.6369 C   0  0  0  0  0  0  0  0  0  0  0  0
    9.8270   10.2957   23.3646 C   0  0  0  0  0  0  0  0  0  0  0  0
    8.7946   10.0188   24.3031 O   0  0  0  0  0  0  0  0  0  0  0  0
    8.3065   11.2059   24.7649 C   0  0  0  0  0  0  0  0  0  0  0  0
    7.4228   11.2906   25.6034 O   0  0  0  0  0  0  0  0  0  0  0  0
  6  7  2  0  0  0
  7  8  1  0  0  0
  8  9  1  0  0  0
  9  4  1  0  0  0
  4  1  1  0  0  0
  1  2  2  0  0  0
  1  3  2  0  0  0
  1 13  1  0  0  0
 13 14  1  0  0  0
 14 15  1  0  0  0
 15 16  1  0  0  0
 16 17  1  0  0  0
 17 18  1  0  0  0
 18 19  1  0  0  0
 19 20  1  0  0  0
 20 21  2  0  0  0
  9 10  1  0  0  0
 10 11  1  0  0  0
 11  7  1  0  0  0
 20 16  1  0  0  0
  4  5  1  0  0  0
 11 12  1  0  0  0
M  END
> <minimizedAffinity>
-6.78105

> <minimizedRMSD>
1.53419

$$$$
C15027-P152


 14 14  0  0  0  0  0  0  0  0999 V2000
    9.8586   12.8639   24.1372 C   0  0  0  0  0  0  0  0  0  0  0  0
    9.7027   13.7896   25.2196 O   0  0  0  0  0  0  0  0  0  0  0  0
    8.7622   13.9979   25.3340 H   0  0  0  0  0  0  0  0  0  0  0  0
    9.1868   11.5401   24.4280 C   0  0  0  0  0  0  0  0  0  0  0  0
    9.5691   10.3725   23.7539 C   0  0  0  0  0  0  0  0  0  0  0  0
    8.9396    9.1786   24.0671 C   0  0  0  0  0  0  0  0  0  0  0  0
    7.9786    9.0770   25.0045 N   0  0  0  0  0  0  0  0  0  0  0  0
    7.6158   10.2080   25.6353 C   0  0  0  0  0  0  0  0  0  0  0  0
    8.1915   11.4385   25.4011 C   0  0  0  0  0  0  0  0  0  0  0  0
    9.2710   13.5805   22.9236 C   0  0  0  0  0  0  0  0  0  0  0  0
    8.1427   13.2897   22.5003 O   0  0  0  0  0  0  0  0  0  0  0  0
   10.0243   14.7702   22.3475 C   0  0  0  0  0  0  0  0  0  0  0  0
   12.3468   15.5243   21.7802 C   0  0  0  0  0  0  0  0  0  0  0  0
   11.5123   14.5982   22.2665 C   0  0  0  0  0  0  0  0  0  0  0  0
 13 14  2  0  0  0
 14 12  1  0  0  0
 12 10  1  0  0  0
 10 11  2  0  0  0
 10  1  1  0  0  0
  1  2  1  0  0  0
  1  4  1  0  0  0
  4  5  2  0  0  0
  5  6  1  0  0  0
  6  7  2  0  0  0
  7  8  1  0  0  0
  8  9  2  0  0  0
  9  4  1  0  0  0
  2  3  1  0  0  0
M  END
> <minimizedAffinity>
-5.24587

> <minimizedRMSD>
1.09545

$$$$
C15036-P152


 15 15  0  0  0  0  0  0  0  0999 V2000
    8.8085   13.5046   25.2700 S   0  0  0  0  0  0  0  0  0  0  0  0
   10.0871   13.8615   25.8304 O   0  0  0  0  0  0  0  0  0  0  0  0
    7.5949   13.7483   26.0125 O   0  0  0  0  0  0  0  0  0  0  0  0
    8.8115   11.8027   24.8802 C   0  0  0  0  0  0  0  0  0  0  0  0
    9.6963   11.2304   23.9773 C   0  0  0  0  0  0  0  0  0  0  0  0
    9.5853    9.8756   23.7137 C   0  0  0  0  0  0  0  0  0  0  0  0
    8.6378    9.1493   24.3969 C   0  0  0  0  0  0  0  0  0  0  0  0
    7.7392    9.6828   25.2523 N   0  0  0  0  0  0  0  0  0  0  0  0
    7.8359   11.0116   25.4637 C   0  0  0  0  0  0  0  0  0  0  0  0
    8.6257   14.2971   23.8192 N   0  0  0  0  0  0  0  0  0  0  0  0
    7.9147   13.7661   23.3163 H   0  0  0  0  0  0  0  0  0  0  0  0
    9.6772   14.5655   22.8223 C   0  0  0  0  0  0  0  0  0  0  0  0
   10.7608   15.5787   23.1886 C   0  0  0  0  0  0  0  0  0  0  0  0
   12.4465   15.6439   21.1844 N   0  0  0  0  0  0  0  0  0  0  0  0
   11.7349   15.6371   22.0978 C   0  0  0  0  0  0  0  0  0  0  0  0
 14 15  3  0  0  0
 15 13  1  0  0  0
 13 12  1  0  0  0
 12 10  1  0  0  0
 10  1  1  0  0  0
  1  2  2  0  0  0
  1  3  2  0  0  0
  1  4  1  0  0  0
  4  5  2  0  0  0
  5  6  1  0  0  0
  6  7  2  0  0  0
  7  8  1  0  0  0
  8  9  2  0  0  0
  9  4  1  0  0  0
 10 11  1  0  0  0
M  END
> <minimizedAffinity>
-4.48838

> <minimizedRMSD>
0.67717

$$$$
C15044-P152


 16 16  0  0  0  0  0  0  0  0999 V2000
    9.2397   13.8174   24.8267 S   0  0  0  0  0  0  0  0  0  0  0  0
   10.3613   13.9999   25.7257 O   0  0  0  0  0  0  0  0  0  0  0  0
    7.9638   14.4694   25.0226 O   0  0  0  0  0  0  0  0  0  0  0  0
    8.9316   12.0744   24.7731 C   0  0  0  0  0  0  0  0  0  0  0  0
    7.9519   11.5407   25.5976 C   0  0  0  0  0  0  0  0  0  0  0  0
    7.7234   10.1791   25.5039 C   0  0  0  0  0  0  0  0  0  0  0  0
    8.4796    9.4319   24.6055 C   0  0  0  0  0  0  0  0  0  0  0  0
    9.4375   10.0637   23.8312 C   0  0  0  0  0  0  0  0  0  0  0  0
    9.7027   11.3762   23.9066 N   0  0  0  0  0  0  0  0  0  0  0  0
    9.7447   14.2568   23.2955 N   0  0  0  0  0  0  0  0  0  0  0  0
   10.2577   13.4610   22.9162 H   0  0  0  0  0  0  0  0  0  0  0  0
   10.5886   15.4244   23.1103 C   0  0  0  0  0  0  0  0  0  0  0  0
   11.9950   15.0215   22.6708 C   0  0  0  0  0  0  0  0  0  0  0  0
   12.5037   15.7724   21.4393 C   0  0  0  0  0  0  0  0  0  0  0  0
   11.5410   14.8315   19.1903 N   0  0  0  0  0  0  0  0  0  0  0  0
   11.9780   15.2061   20.1958 C   0  0  0  0  0  0  0  0  0  0  0  0
 15 16  3  0  0  0
 16 14  1  0  0  0
 14 13  1  0  0  0
 13 12  1  0  0  0
 12 10  1  0  0  0
 10  1  1  0  0  0
  1  2  2  0  0  0
  1  3  2  0  0  0
  1  4  1  0  0  0
  4  5  2  0  0  0
  5  6  1  0  0  0
  6  7  2  0  0  0
  7  8  1  0  0  0
  8  9  2  0  0  0
  9  4  1  0  0  0
 10 11  1  0  0  0
M  END
> <minimizedAffinity>
-5.25196

> <minimizedRMSD>
1.07227

$$$$
C15045-P152


 16 16  0  0  0  0  0  0  0  0999 V2000
    9.4523   13.0814   24.6041 C   0  0  0  0  0  0  0  0  0  0  0  0
    8.9399   13.8543   25.6981 O   0  0  0  0  0  0  0  0  0  0  0  0
    7.9708   13.8676   25.6587 H   0  0  0  0  0  0  0  0  0  0  0  0
    9.0018   11.6406   24.6846 C   0  0  0  0  0  0  0  0  0  0  0  0
    9.5787   10.6376   23.8909 C   0  0  0  0  0  0  0  0  0  0  0  0
    9.0988    9.3418   23.9885 C   0  0  0  0  0  0  0  0  0  0  0  0
    8.1096    8.9885   24.8279 N   0  0  0  0  0  0  0  0  0  0  0  0
    7.5666    9.9606   25.5820 C   0  0  0  0  0  0  0  0  0  0  0  0
    7.9808   11.2728   25.5603 C   0  0  0  0  0  0  0  0  0  0  0  0
    8.9248   13.7687   23.3549 C   0  0  0  0  0  0  0  0  0  0  0  0
    8.0025   13.2624   22.6995 O   0  0  0  0  0  0  0  0  0  0  0  0
    9.6045   15.0013   22.8264 C   0  0  0  0  0  0  0  0  0  0  0  0
   10.9808   15.3672   23.3786 C   0  0  0  0  0  0  0  0  0  0  0  0
   12.0863   14.8001   22.4879 C   0  0  0  0  0  0  0  0  0  0  0  0
   12.0021   15.0533   20.0072 C   0  0  0  0  0  0  0  0  0  0  0  0
   12.2365   15.5761   21.2182 C   0  0  0  0  0  0  0  0  0  0  0  0
 15 16  2  0  0  0
 16 14  1  0  0  0
 14 13  1  0  0  0
 13 12  1  0  0  0
 12 10  1  0  0  0
 10 11  2  0  0  0
 10  1  1  0  0  0
  1  2  1  0  0  0
  1  4  1  0  0  0
  4  5  2  0  0  0
  5  6  1  0  0  0
  6  7  2  0  0  0
  7  8  1  0  0  0
  8  9  2  0  0  0
  9  4  1  0  0  0
  2  3  1  0  0  0
M  END
> <minimizedAffinity>
-5.80388

> <minimizedRMSD>
0.73387

$$$$
C15065-P152


 14 14  0  0  0  0  0  0  0  0999 V2000
    8.7905   13.2648   25.2000 C   0  0  0  0  0  0  0  0  0  0  0  0
    8.3973   13.6436   26.3044 O   0  0  0  0  0  0  0  0  0  0  0  0
    8.8016   11.8266   24.8762 C   0  0  0  0  0  0  0  0  0  0  0  0
    9.6879   11.2635   23.9594 C   0  0  0  0  0  0  0  0  0  0  0  0
    9.6030    9.9120   23.6758 C   0  0  0  0  0  0  0  0  0  0  0  0
    8.6586    9.1774   24.3538 C   0  0  0  0  0  0  0  0  0  0  0  0
    7.7742    9.6768   25.2440 N   0  0  0  0  0  0  0  0  0  0  0  0
    7.8627   11.0027   25.4809 C   0  0  0  0  0  0  0  0  0  0  0  0
    9.1277   14.2524   24.0924 C   0  0  0  0  0  0  0  0  0  0  0  0
    7.9458   15.0232   23.8628 O   0  0  0  0  0  0  0  0  0  0  0  0
    7.6857   15.4689   24.6841 H   0  0  0  0  0  0  0  0  0  0  0  0
   10.3213   15.1130   24.4985 C   0  0  0  0  0  0  0  0  0  0  0  0
   11.9934   14.1786   23.0859 C   0  0  0  0  0  0  0  0  0  0  0  0
   11.5415   14.3691   24.4226 O   0  0  0  0  0  0  0  0  0  0  0  0
 13 14  1  0  0  0
 14 12  1  0  0  0
 12  9  1  0  0  0
  9 10  1  0  0  0
  9  1  1  0  0  0
  1  2  2  0  0  0
  1  3  1  0  0  0
  3  4  2  0  0  0
  4  5  1  0  0  0
  5  6  2  0  0  0
  6  7  1  0  0  0
  7  8  2  0  0  0
  8  3  1  0  0  0
 10 11  1  0  0  0
M  END
> <minimizedAffinity>
-4.19732

> <minimizedRMSD>
0.88530

$$$$
C15067-P152


 16 16  0  0  0  0  0  0  0  0999 V2000
    8.3583   13.2413   24.5898 C   0  0  0  0  0  0  0  0  0  0  0  0
    7.0058   13.5734   24.9052 O   0  0  0  0  0  0  0  0  0  0  0  0
    6.4305   13.3231   24.1655 H   0  0  0  0  0  0  0  0  0  0  0  0
    8.5464   11.7583   24.4209 C   0  0  0  0  0  0  0  0  0  0  0  0
    9.5485   11.2354   23.5947 C   0  0  0  0  0  0  0  0  0  0  0  0
    9.7246    9.8691   23.4993 C   0  0  0  0  0  0  0  0  0  0  0  0
    8.9250    9.0721   24.2784 C   0  0  0  0  0  0  0  0  0  0  0  0
    7.9333    9.5159   25.0802 N   0  0  0  0  0  0  0  0  0  0  0  0
    7.7664   10.8513   25.1286 C   0  0  0  0  0  0  0  0  0  0  0  0
    8.6973   14.0242   23.3338 C   0  0  0  0  0  0  0  0  0  0  0  0
    8.0264   13.9141   22.3004 O   0  0  0  0  0  0  0  0  0  0  0  0
    9.8172   15.0446   23.4657 C   0  0  0  0  0  0  0  0  0  0  0  0
   11.0946   14.5031   23.7589 O   0  0  0  0  0  0  0  0  0  0  0  0
   11.8980   14.1869   22.6185 C   0  0  0  0  0  0  0  0  0  0  0  0
   11.9887   15.1683   20.2950 C   0  0  0  0  0  0  0  0  0  0  0  0
   12.2621   15.4073   21.7745 C   0  0  0  0  0  0  0  0  0  0  0  0
 15 16  1  0  0  0
 16 14  1  0  0  0
 14 13  1  0  0  0
 13 12  1  0  0  0
 12 10  1  0  0  0
 10 11  2  0  0  0
 10  1  1  0  0  0
  1  2  1  0  0  0
  1  4  1  0  0  0
  4  5  2  0  0  0
  5  6  1  0  0  0
  6  7  2  0  0  0
  7  8  1  0  0  0
  8  9  2  0  0  0
  9  4  1  0  0  0
  2  3  1  0  0  0
M  END
> <minimizedAffinity>
-4.99451

> <minimizedRMSD>
0.36559

$$$$
C15070-P152


 16 16  0  0  0  0  0  0  0  0999 V2000
    8.1823   14.0171   23.6428 C   0  0  0  0  0  0  0  0  0  0  0  0
    7.3285   13.3411   22.7145 O   0  0  0  0  0  0  0  0  0  0  0  0
    7.8036   12.5899   22.3260 H   0  0  0  0  0  0  0  0  0  0  0  0
    8.5214   13.0976   24.8111 C   0  0  0  0  0  0  0  0  0  0  0  0
    8.6561   13.5430   25.9507 O   0  0  0  0  0  0  0  0  0  0  0  0
    8.6400   11.6462   24.5841 C   0  0  0  0  0  0  0  0  0  0  0  0
    9.5976   11.0752   23.7493 C   0  0  0  0  0  0  0  0  0  0  0  0
    9.6547    9.6985   23.6259 C   0  0  0  0  0  0  0  0  0  0  0  0
    8.7676    8.9526   24.3647 C   0  0  0  0  0  0  0  0  0  0  0  0
    7.7987    9.4635   25.1574 N   0  0  0  0  0  0  0  0  0  0  0  0
    7.7591   10.8085   25.2507 C   0  0  0  0  0  0  0  0  0  0  0  0
    9.3849   14.6150   22.9031 C   0  0  0  0  0  0  0  0  0  0  0  0
   10.7606   14.4308   23.5751 C   0  0  0  0  0  0  0  0  0  0  0  0
   11.0777   15.5736   24.5271 C   0  0  0  0  0  0  0  0  0  0  0  0
   12.3183   15.5061   21.8055 C   0  0  0  0  0  0  0  0  0  0  0  0
   11.8801   14.2433   22.5326 C   0  0  0  0  0  0  0  0  0  0  0  0
 15 16  1  0  0  0
 16 13  1  0  0  0
 13 14  1  0  0  0
 13 12  1  0  0  0
 12  1  1  0  0  0
  1  2  1  0  0  0
  1  4  1  0  0  0
  4  5  2  0  0  0
  4  6  1  0  0  0
  6  7  2  0  0  0
  7  8  1  0  0  0
  8  9  2  0  0  0
  9 10  1  0  0  0
 10 11  2  0  0  0
 11  6  1  0  0  0
  2  3  1  0  0  0
M  END
> <minimizedAffinity>
-5.28842

> <minimizedRMSD>
0.30982

$$$$
C8138-P152


 17 17  0  0  0  0  0  0  0  0999 V2000
    8.5482   13.4121   24.6991 C   0  0  0  0  0  0  0  0  0  0  0  0
    9.2340   14.2383   25.6309 O   0  0  0  0  0  0  0  0  0  0  0  0
   10.1908   14.1492   25.4990 H   0  0  0  0  0  0  0  0  0  0  0  0
    8.8804   11.9250   24.9655 C   0  0  0  0  0  0  0  0  0  0  0  0
    9.3923   11.1334   23.7574 C   0  0  0  0  0  0  0  0  0  0  0  0
    9.4526    9.6253   23.9683 C   0  0  0  0  0  0  0  0  0  0  0  0
    8.2248    9.0666   24.4948 N   0  0  0  0  0  0  0  0  0  0  0  0
    7.6573    9.7899   25.6104 C   0  0  0  0  0  0  0  0  0  0  0  0
    7.5942   11.2819   25.4776 C   0  0  0  0  0  0  0  0  0  0  0  0
    8.4161    8.1123   24.8001 H   0  0  0  0  0  0  0  0  0  0  0  0
    8.6735   13.8583   23.2441 C   0  0  0  0  0  0  0  0  0  0  0  0
    7.8096   13.5245   22.4236 O   0  0  0  0  0  0  0  0  0  0  0  0
    9.8027   14.7763   22.8297 C   0  0  0  0  0  0  0  0  0  0  0  0
   11.0938   14.0684   22.3996 C   0  0  0  0  0  0  0  0  0  0  0  0
   12.0463   13.9171   23.5839 C   0  0  0  0  0  0  0  0  0  0  0  0
   12.5725   16.0187   21.5186 C   0  0  0  0  0  0  0  0  0  0  0  0
   11.7946   14.7469   21.2053 C   0  0  0  0  0  0  0  0  0  0  0  0
 16 17  1  0  0  0
 17 14  1  0  0  0
 14 15  1  0  0  0
 14 13  1  0  0  0
 13 11  1  0  0  0
 11 12  2  0  0  0
 11  1  1  0  0  0
  1  2  1  0  0  0
  1  4  1  0  0  0
  4  5  1  0  0  0
  5  6  1  0  0  0
  6  7  1  0  0  0
  7  8  1  0  0  0
  8  9  1  0  0  0
  9  4  1  0  0  0
  2  3  1  0  0  0
  7 10  1  0  0  0
M  END
> <minimizedAffinity>
-5.52370

> <minimizedRMSD>
0.91949

$$$$
C6248-P354


 14 15  0  0  0  0  0  0  0  0999 V2000
    8.8520   14.5176   23.2994 C   0  0  0  0  0  0  0  0  0  0  0  0
    9.5275   15.4440   24.1839 N   0  0  0  0  0  0  0  0  0  0  0  0
   10.8762   15.1229   24.5978 C   0  0  0  0  0  0  0  0  0  0  0  0
   11.9100   14.8439   23.5159 C   0  0  0  0  0  0  0  0  0  0  0  0
   11.7357   15.6651   22.2448 C   0  0  0  0  0  0  0  0  0  0  0  0
   10.8414   14.9519   21.2440 C   0  0  0  0  0  0  0  0  0  0  0  0
    9.0492   14.9159   21.5535 S   0  0  0  0  0  0  0  0  0  0  0  0
    8.9615   15.5250   25.0286 H   0  0  0  0  0  0  0  0  0  0  0  0
    7.7257   11.3688   25.0647 C   0  0  0  0  0  0  0  0  0  0  0  0
    7.8889   12.7035   24.7376 C   0  0  0  0  0  0  0  0  0  0  0  0
    8.8025   13.0667   23.7337 C   0  0  0  0  0  0  0  0  0  0  0  0
    9.5656   12.0454   23.1673 C   0  0  0  0  0  0  0  0  0  0  0  0
    9.3311   10.7322   23.5571 C   0  0  0  0  0  0  0  0  0  0  0  0
    8.4251   10.3739   24.4919 N   0  0  0  0  0  0  0  0  0  0  0  0
  9 10  2  0  0  0
 10 11  1  0  0  0
  1 11  1  0  0  0
  1  2  1  0  0  0
  2  3  1  0  0  0
  3  4  1  0  0  0
  4  5  1  0  0  0
  5  6  1  0  0  0
  6  7  1  0  0  0
 11 12  2  0  0  0
 12 13  1  0  0  0
 13 14  2  0  0  0
 14  9  1  0  0  0
  7  1  1  0  0  0
  2  8  1  0  0  0
M  END
> <minimizedAffinity>
-5.35480

> <minimizedRMSD>
0.18825

$$$$
C8138-P613


 17 17  0  0  0  0  0  0  0  0999 V2000
   10.5548   13.2635   23.3512 C   0  0  0  0  0  0  0  0  0  0  0  0
   11.7145   13.7463   24.0284 O   0  0  0  0  0  0  0  0  0  0  0  0
   11.4719   14.5009   24.5874 H   0  0  0  0  0  0  0  0  0  0  0  0
    9.5534   12.7359   24.3899 C   0  0  0  0  0  0  0  0  0  0  0  0
    8.5047   13.7425   24.8657 C   0  0  0  0  0  0  0  0  0  0  0  0
    7.5735   13.1538   25.9277 C   0  0  0  0  0  0  0  0  0  0  0  0
    7.0037   11.8666   25.5536 N   0  0  0  0  0  0  0  0  0  0  0  0
    8.0203   10.8953   25.1870 C   0  0  0  0  0  0  0  0  0  0  0  0
    8.9761   11.3561   24.0965 C   0  0  0  0  0  0  0  0  0  0  0  0
    6.3797   12.0034   24.7584 H   0  0  0  0  0  0  0  0  0  0  0  0
   10.0288   14.3295   22.3923 C   0  0  0  0  0  0  0  0  0  0  0  0
    9.1248   14.0955   21.5846 O   0  0  0  0  0  0  0  0  0  0  0  0
   10.5385   15.7505   22.5022 C   0  0  0  0  0  0  0  0  0  0  0  0
   11.2583   16.4201   21.3257 C   0  0  0  0  0  0  0  0  0  0  0  0
   10.1818   17.2006   20.5530 C   0  0  0  0  0  0  0  0  0  0  0  0
   11.3253   15.3705   19.0074 C   0  0  0  0  0  0  0  0  0  0  0  0
   11.9723   15.4445   20.3797 C   0  0  0  0  0  0  0  0  0  0  0  0
 16 17  1  0  0  0
 17 14  1  0  0  0
 14 15  1  0  0  0
 14 13  1  0  0  0
 13 11  1  0  0  0
 11 12  2  0  0  0
 11  1  1  0  0  0
  1  2  1  0  0  0
  1  4  1  0  0  0
  4  5  1  0  0  0
  5  6  1  0  0  0
  6  7  1  0  0  0
  7  8  1  0  0  0
  8  9  1  0  0  0
  9  4  1  0  0  0
  2  3  1  0  0  0
  7 10  1  0  0  0
M  END
> <minimizedAffinity>
-5.40880

> <minimizedRMSD>
2.00168

$$$$
C8142-P613


 14 14  0  0  0  0  0  0  0  0999 V2000
    9.8858   14.0410   23.9136 C   0  0  0  0  0  0  0  0  0  0  0  0
    9.1647   15.0386   24.6325 O   0  0  0  0  0  0  0  0  0  0  0  0
    8.2235   14.9846   24.4043 H   0  0  0  0  0  0  0  0  0  0  0  0
    9.4145   12.6507   24.3706 C   0  0  0  0  0  0  0  0  0  0  0  0
    7.9878   12.5141   24.8855 C   0  0  0  0  0  0  0  0  0  0  0  0
    7.7735   11.1076   25.4558 C   0  0  0  0  0  0  0  0  0  0  0  0
    8.2938    9.9795   24.5670 C   0  0  0  0  0  0  0  0  0  0  0  0
    9.6302   10.2097   24.0354 N   0  0  0  0  0  0  0  0  0  0  0  0
    9.7871   11.5201   23.4158 C   0  0  0  0  0  0  0  0  0  0  0  0
    9.8275    9.4949   23.3350 H   0  0  0  0  0  0  0  0  0  0  0  0
    9.8252   14.3241   22.4217 C   0  0  0  0  0  0  0  0  0  0  0  0
   12.0282   15.7039   22.1631 C   0  0  0  0  0  0  0  0  0  0  0  0
   10.5288   15.6123   22.0282 C   0  0  0  0  0  0  0  0  0  0  0  0
    9.8782   16.5445   21.5513 O   0  0  0  0  0  0  0  0  0  0  0  0
 12 13  1  0  0  0
 13 14  2  0  0  0
 13 11  1  0  0  0
 11  1  1  0  0  0
  1  2  1  0  0  0
  1  4  1  0  0  0
  4  5  1  0  0  0
  5  6  1  0  0  0
  6  7  1  0  0  0
  7  8  1  0  0  0
  8  9  1  0  0  0
  9  4  1  0  0  0
  2  3  1  0  0  0
  8 10  1  0  0  0
M  END
> <minimizedAffinity>
-4.29456

> <minimizedRMSD>
1.89547

$$$$
C8155-P613


 17 17  0  0  0  0  0  0  0  0999 V2000
    8.8457   13.7944   22.8905 S   0  0  0  0  0  0  0  0  0  0  0  0
    7.5620   13.6798   22.2390 O   0  0  0  0  0  0  0  0  0  0  0  0
    9.8667   12.7796   22.7831 O   0  0  0  0  0  0  0  0  0  0  0  0
    9.4981   15.3047   22.6098 N   0  0  0  0  0  0  0  0  0  0  0  0
   10.5036   15.8251   23.5499 C   0  0  0  0  0  0  0  0  0  0  0  0
   11.9066   15.4115   23.1215 C   0  0  0  0  0  0  0  0  0  0  0  0
   12.1978   15.8318   21.6834 C   0  0  0  0  0  0  0  0  0  0  0  0
   11.1254   15.2926   20.7425 C   0  0  0  0  0  0  0  0  0  0  0  0
    9.7371   15.7158   21.2030 C   0  0  0  0  0  0  0  0  0  0  0  0
    8.5636   13.9459   24.5385 N   0  0  0  0  0  0  0  0  0  0  0  0
    9.1740   13.2939   25.0311 H   0  0  0  0  0  0  0  0  0  0  0  0
    7.1771   13.6661   24.9268 C   0  0  0  0  0  0  0  0  0  0  0  0
    6.7839   12.3230   27.0423 C   0  0  0  0  0  0  0  0  0  0  0  0
    7.1461   13.4412   26.3978 C   0  0  0  0  0  0  0  0  0  0  0  0
    8.3045   10.3776   24.9418 C   0  0  0  0  0  0  0  0  0  0  0  0
    7.0078   10.2467   25.6458 C   0  0  0  0  0  0  0  0  0  0  0  0
    6.3663   11.0559   26.4984 C   0  0  0  0  0  0  0  0  0  0  0  0
 15 16  1  0  0  0
 16 17  2  0  0  0
 17 13  1  0  0  0
 13 14  2  0  0  0
 14 12  1  0  0  0
 12 10  1  0  0  0
 10  1  1  0  0  0
  1  2  2  0  0  0
  1  3  2  0  0  0
  1  4  1  0  0  0
  4  5  1  0  0  0
  5  6  1  0  0  0
  6  7  1  0  0  0
  7  8  1  0  0  0
  8  9  1  0  0  0
  9  4  1  0  0  0
 10 11  1  0  0  0
M  END
> <minimizedAffinity>
-5.00535

> <minimizedRMSD>
0.68169

$$$$
C8176-P613


 17 17  0  0  0  0  0  0  0  0999 V2000
    8.9978   14.7384   25.8087 C   0  0  0  0  0  0  0  0  0  0  0  0
    9.6254   13.9420   24.6599 C   0  0  0  0  0  0  0  0  0  0  0  0
   11.0437   13.9567   24.8959 O   0  0  0  0  0  0  0  0  0  0  0  0
   11.3701   14.8689   24.8476 H   0  0  0  0  0  0  0  0  0  0  0  0
    9.1892   12.4541   24.7547 C   0  0  0  0  0  0  0  0  0  0  0  0
    7.7479   12.1358   25.1429 C   0  0  0  0  0  0  0  0  0  0  0  0
    7.6221   10.6447   25.4753 C   0  0  0  0  0  0  0  0  0  0  0  0
    8.2927    9.7111   24.4717 C   0  0  0  0  0  0  0  0  0  0  0  0
    9.6076   10.1376   24.0101 N   0  0  0  0  0  0  0  0  0  0  0  0
    9.6640   11.5442   23.6222 C   0  0  0  0  0  0  0  0  0  0  0  0
    9.8655    9.5701   23.2028 H   0  0  0  0  0  0  0  0  0  0  0  0
    9.3121   14.6590   23.3273 C   0  0  0  0  0  0  0  0  0  0  0  0
    8.3076   14.3614   22.6684 O   0  0  0  0  0  0  0  0  0  0  0  0
   10.3132   15.7247   22.8685 C   0  0  0  0  0  0  0  0  0  0  0  0
   11.0127   16.2966   23.8845 F   0  0  0  0  0  0  0  0  0  0  0  0
    9.7104   16.7455   22.2021 F   0  0  0  0  0  0  0  0  0  0  0  0
   11.5934   14.8560   21.6913 Br  0  0  0  0  0  0  0  0  0  0  0  0
  2  1  1  0  0  0
  2  3  1  0  0  0
  2 12  1  0  0  0
 12 13  2  0  0  0
 12 14  1  0  0  0
 14 15  1  0  0  0
 14 16  1  0  0  0
 14 17  1  0  0  0
  2  5  1  0  0  0
  5  6  1  0  0  0
  6  7  1  0  0  0
  7  8  1  0  0  0
  8  9  1  0  0  0
  9 10  1  0  0  0
 10  5  1  0  0  0
  3  4  1  0  0  0
  9 11  1  0  0  0
M  END
> <minimizedAffinity>
-5.00010

> <minimizedRMSD>
1.60339

$$$$
C8841-P444


 16 18  0  0  0  0  0  0  0  0999 V2000
    6.6858   17.1265   25.5987 C   0  0  0  0  0  0  0  0  0  0  0  0
    7.2722   15.9844   26.0978 C   0  0  0  0  0  0  0  0  0  0  0  0
    7.4500   14.9994   25.0823 C   0  0  0  0  0  0  0  0  0  0  0  0
    7.0063   15.4381   23.8549 C   0  0  0  0  0  0  0  0  0  0  0  0
    6.3431   16.9895   23.9296 S   0  0  0  0  0  0  0  0  0  0  0  0
    7.0362   14.6362   22.5952 C   0  0  0  0  0  0  0  0  0  0  0  0
    8.0431   13.5599   22.6446 N   0  0  0  0  0  0  0  0  0  0  0  0
    7.9719   12.8173   23.9182 C   0  0  0  0  0  0  0  0  0  0  0  0
    8.0643   13.6531   25.2224 C   0  0  0  0  0  0  0  0  0  0  0  0
    9.4071   13.8664   22.1479 C   0  0  0  0  0  0  0  0  0  0  0  0
   10.4698   14.3209   23.1658 C   0  0  0  0  0  0  0  0  0  0  0  0
   11.8396   14.4039   22.4868 C   0  0  0  0  0  0  0  0  0  0  0  0
   11.8156   15.3105   21.2604 C   0  0  0  0  0  0  0  0  0  0  0  0
   10.8054   14.8586   20.3142 N   0  0  0  0  0  0  0  0  0  0  0  0
    9.4737   14.8177   20.9158 C   0  0  0  0  0  0  0  0  0  0  0  0
   11.0506   13.9223   19.9922 H   0  0  0  0  0  0  0  0  0  0  0  0
  1  2  2  0  0  0
  2  3  1  0  0  0
  3  4  2  0  0  0
  4  5  1  0  0  0
  4  6  1  0  0  0
  6  7  1  0  0  0
 10  7  1  0  0  0
 10 11  1  0  0  0
 11 12  1  0  0  0
 12 13  1  0  0  0
 13 14  1  0  0  0
 14 15  1  0  0  0
  7  8  1  0  0  0
  8  9  1  0  0  0
  5  1  1  0  0  0
 15 10  1  0  0  0
  9  3  1  0  0  0
 14 16  1  0  0  0
M  END
> <minimizedAffinity>
-5.24996

> <minimizedRMSD>
0.46877

$$$$
C8848-P444


 16 18  0  0  0  0  0  0  0  0999 V2000
    4.4868   13.9023   25.3729 C   0  0  0  0  0  0  0  0  0  0  0  0
    5.5351   13.0300   25.5741 C   0  0  0  0  0  0  0  0  0  0  0  0
    6.6337   13.3265   24.7190 C   0  0  0  0  0  0  0  0  0  0  0  0
    6.3835   14.4071   23.9026 C   0  0  0  0  0  0  0  0  0  0  0  0
    4.8329   15.0633   24.1609 S   0  0  0  0  0  0  0  0  0  0  0  0
    7.3512   14.9992   22.9160 C   0  0  0  0  0  0  0  0  0  0  0  0
    8.7423   14.4232   22.9702 N   0  0  0  0  0  0  0  0  0  0  0  0
    9.0174   13.6874   24.2291 C   0  0  0  0  0  0  0  0  0  0  0  0
    7.9488   12.6491   24.6279 C   0  0  0  0  0  0  0  0  0  0  0  0
    9.7280   15.5363   22.7624 C   0  0  0  0  0  0  0  0  0  0  0  0
   11.2027   15.2138   23.0816 C   0  0  0  0  0  0  0  0  0  0  0  0
   11.8327   14.3140   22.0311 C   0  0  0  0  0  0  0  0  0  0  0  0
   11.7783   14.9458   20.7194 N   0  0  0  0  0  0  0  0  0  0  0  0
   10.3937   15.2117   20.3229 C   0  0  0  0  0  0  0  0  0  0  0  0
    9.6871   16.1097   21.3286 C   0  0  0  0  0  0  0  0  0  0  0  0
   12.2090   14.3267   20.0327 H   0  0  0  0  0  0  0  0  0  0  0  0
  1  2  2  0  0  0
  2  3  1  0  0  0
  3  4  2  0  0  0
  4  5  1  0  0  0
  4  6  1  0  0  0
  6  7  1  0  0  0
  7 10  1  0  0  0
 10 11  1  0  0  0
 11 12  1  0  0  0
 12 13  1  0  0  0
 13 14  1  0  0  0
 14 15  1  0  0  0
  7  8  1  0  0  0
  8  9  1  0  0  0
  5  1  1  0  0  0
 15 10  1  0  0  0
  9  3  1  0  0  0
 13 16  1  0  0  0
M  END
> <minimizedAffinity>
-5.02337

> <minimizedRMSD>
0.77838

$$$$
C7479-P274


 24 25  0  0  0  0  0  0  0  0999 V2000
    6.9273   14.9801   22.5307 S   0  0  0  0  0  0  0  0  0  0  0  0
    6.7148   13.6309   22.0239 O   0  0  0  0  0  0  0  0  0  0  0  0
    7.9003   15.7544   21.7873 O   0  0  0  0  0  0  0  0  0  0  0  0
    6.8762   15.1374   24.0556 N   0  0  0  0  0  0  0  0  0  0  0  0
    8.2326   14.8381   24.7209 S   0  0  0  0  0  0  0  0  0  0  0  0
    8.0543   15.3717   26.4129 C   0  0  0  0  0  0  0  0  0  0  0  0
    9.4964   15.3967   24.2869 O   0  0  0  0  0  0  0  0  0  0  0  0
    8.5073   13.0624   24.9328 C   0  0  0  0  0  0  0  0  0  0  0  0
    9.3083   12.4681   23.7771 C   0  0  0  0  0  0  0  0  0  0  0  0
    9.3955   10.9448   23.7347 C   0  0  0  0  0  0  0  0  0  0  0  0
    8.2560   10.1569   24.3535 C   0  0  0  0  0  0  0  0  0  0  0  0
    7.4472   10.8414   25.4375 C   0  0  0  0  0  0  0  0  0  0  0  0
    7.2115   12.3154   25.1869 C   0  0  0  0  0  0  0  0  0  0  0  0
    5.5020   15.7574   22.1397 N   0  0  0  0  0  0  0  0  0  0  0  0
    5.4583   16.6057   22.7043 H   0  0  0  0  0  0  0  0  0  0  0  0
    4.2444   15.0512   22.3304 C   0  0  0  0  0  0  0  0  0  0  0  0
    3.3035   14.5810   19.9381 C   0  0  0  0  0  0  0  0  0  0  0  0
    2.2746   15.0990   19.2046 O   0  0  0  0  0  0  0  0  0  0  0  0
    1.8078   16.1177   19.9575 C   0  0  0  0  0  0  0  0  0  0  0  0
    2.4230   16.2954   21.1082 N   0  0  0  0  0  0  0  0  0  0  0  0
    3.3709   15.2808   21.1324 C   0  0  0  0  0  0  0  0  0  0  0  0
    3.8803   13.4333   17.8032 C   0  0  0  0  0  0  0  0  0  0  0  0
    4.0285   13.4432   19.3244 C   0  0  0  0  0  0  0  0  0  0  0  0
    3.5504   12.1165   19.9137 C   0  0  0  0  0  0  0  0  0  0  0  0
 22 23  1  0  0  0
 23 24  1  0  0  0
 23 17  1  0  0  0
 17 18  1  0  0  0
 18 19  1  0  0  0
 19 20  2  0  0  0
 20 21  1  0  0  0
 21 16  1  0  0  0
 16 14  1  0  0  0
 14  1  1  0  0  0
  1  2  2  0  0  0
  1  3  2  0  0  0
  1  4  1  0  0  0
  4  5  2  0  0  0
  5  6  1  0  0  0
  5  7  2  0  0  0
  5  8  1  0  0  0
  8  9  1  0  0  0
  9 10  1  0  0  0
 10 11  1  0  0  0
 11 12  1  0  0  0
 12 13  1  0  0  0
 21 17  2  0  0  0
 13  8  1  0  0  0
 14 15  1  0  0  0
M  END
> <minimizedAffinity>
-6.15182

> <minimizedRMSD>
0.57687

$$$$
C9954-P364


 11 11  0  0  0  0  0  0  0  0999 V2000
   10.3685   14.5293   22.0659 N   0  0  0  0  0  0  0  0  0  0  0  0
    9.8423   15.1377   20.8581 C   0  0  0  0  0  0  0  0  0  0  0  0
   11.0820   15.6777   20.1717 C   0  0  0  0  0  0  0  0  0  0  0  0
   11.9830   15.8826   21.2700 N   0  0  0  0  0  0  0  0  0  0  0  0
   11.6255   15.0765   22.3425 C   0  0  0  0  0  0  0  0  0  0  0  0
   12.3113   14.9135   23.3386 O   0  0  0  0  0  0  0  0  0  0  0  0
   12.7453   16.5055   21.2638 H   0  0  0  0  0  0  0  0  0  0  0  0
    9.4657   13.8718   22.9927 C   0  0  0  0  0  0  0  0  0  0  0  0
    9.7310   12.3984   23.2333 C   0  0  0  0  0  0  0  0  0  0  0  0
    7.7995   11.8578   24.5218 O   0  0  0  0  0  0  0  0  0  0  0  0
    9.0208   11.9911   24.4849 C   0  0  0  0  0  0  0  0  0  0  0  0
 10 11  2  0  0  0
 11  9  1  0  0  0
  9  8  1  0  0  0
  8  1  1  0  0  0
  1  2  1  0  0  0
  2  3  1  0  0  0
  3  4  1  0  0  0
  4  5  1  0  0  0
  5  6  2  0  0  0
  5  1  1  0  0  0
  4  7  1  0  0  0
M  END
> <minimizedAffinity>
-3.91191

> <minimizedRMSD>
1.25235

$$$$
C6291-P213


 11 12  0  0  0  0  0  0  0  0999 V2000
    6.3623   10.2679   26.2552 C   0  0  0  0  0  0  0  0  0  0  0  0
    7.4105    9.9986   25.3872 C   0  0  0  0  0  0  0  0  0  0  0  0
    8.2536   11.0222   24.9272 C   0  0  0  0  0  0  0  0  0  0  0  0
    7.8852   12.3153   25.3293 C   0  0  0  0  0  0  0  0  0  0  0  0
    6.8061   12.5039   26.1846 C   0  0  0  0  0  0  0  0  0  0  0  0
    6.0617   11.5004   26.6918 N   0  0  0  0  0  0  0  0  0  0  0  0
    9.5734   10.7671   24.0985 C   0  0  0  0  0  0  0  0  0  0  0  0
   10.1891    9.3582   23.9992 C   0  0  0  0  0  0  0  0  0  0  0  0
    9.7807    9.3538   22.5585 C   0  0  0  0  0  0  0  0  0  0  0  0
    9.3331   10.7392   22.6741 N   0  0  0  0  0  0  0  0  0  0  0  0
    8.3532   10.8724   22.4241 H   0  0  0  0  0  0  0  0  0  0  0  0
  1  2  2  0  0  0
  2  3  1  0  0  0
  7  3  1  0  0  0
  7  8  1  0  0  0
  8  9  1  0  0  0
  9 10  1  0  0  0
  3  4  2  0  0  0
  4  5  1  0  0  0
  5  6  2  0  0  0
  6  1  1  0  0  0
 10  7  1  0  0  0
 10 11  1  0  0  0
M  END
> <minimizedAffinity>
-1.55826

> <minimizedRMSD>
0.13599

$$$$
C6773-P441


 13 14  0  0  0  0  0  0  0  0999 V2000
    9.7242   14.0480   23.1702 C   0  0  0  0  0  0  0  0  0  0  0  0
   11.2290   13.9855   22.8208 C   0  0  0  0  0  0  0  0  0  0  0  0
   11.7788   15.4056   21.8461 S   0  0  0  0  0  0  0  0  0  0  0  0
   10.5412   15.2378   20.5344 C   0  0  0  0  0  0  0  0  0  0  0  0
    9.1388   15.2767   21.1297 C   0  0  0  0  0  0  0  0  0  0  0  0
    8.7987   14.1751   22.0337 N   0  0  0  0  0  0  0  0  0  0  0  0
    8.8159   13.3040   21.5033 H   0  0  0  0  0  0  0  0  0  0  0  0
    8.2486   10.6899   25.2012 C   0  0  0  0  0  0  0  0  0  0  0  0
    9.0438   10.4360   24.1590 N   0  0  0  0  0  0  0  0  0  0  0  0
    9.5351   11.5198   23.5332 C   0  0  0  0  0  0  0  0  0  0  0  0
    9.2855   12.8228   23.9327 C   0  0  0  0  0  0  0  0  0  0  0  0
    8.4573   12.9391   25.0279 C   0  0  0  0  0  0  0  0  0  0  0  0
    7.9230   11.8956   25.6829 N   0  0  0  0  0  0  0  0  0  0  0  0
  8  9  2  0  0  0
  9 10  1  0  0  0
 10 11  2  0  0  0
  1 11  1  0  0  0
  1  2  1  0  0  0
  2  3  1  0  0  0
  3  4  1  0  0  0
  4  5  1  0  0  0
  5  6  1  0  0  0
 11 12  1  0  0  0
 12 13  2  0  0  0
 13  8  1  0  0  0
  6  1  1  0  0  0
  6  7  1  0  0  0
M  END
> <minimizedAffinity>
-5.14320

> <minimizedRMSD>
0.22968

$$$$
C6812-P441


 11 12  0  0  0  0  0  0  0  0999 V2000
    9.3656   10.5868   24.0691 C   0  0  0  0  0  0  0  0  0  0  0  0
    9.9232   11.7505   23.5828 C   0  0  0  0  0  0  0  0  0  0  0  0
    9.3739   12.9548   23.9782 C   0  0  0  0  0  0  0  0  0  0  0  0
    8.2865   12.9658   24.7666 N   0  0  0  0  0  0  0  0  0  0  0  0
    7.8144   11.7802   25.1891 C   0  0  0  0  0  0  0  0  0  0  0  0
    8.3080   10.5729   24.8898 N   0  0  0  0  0  0  0  0  0  0  0  0
    9.8947   14.1850   23.5792 N   0  0  0  0  0  0  0  0  0  0  0  0
   11.3569   14.3451   23.5412 C   0  0  0  0  0  0  0  0  0  0  0  0
   11.6590   15.1716   22.2971 C   0  0  0  0  0  0  0  0  0  0  0  0
   10.4930   14.8728   21.3819 C   0  0  0  0  0  0  0  0  0  0  0  0
    9.3143   14.7222   22.3369 C   0  0  0  0  0  0  0  0  0  0  0  0
  1  2  2  0  0  0
  2  3  1  0  0  0
  3  7  1  0  0  0
  7  8  1  0  0  0
  8  9  1  0  0  0
  9 10  1  0  0  0
 10 11  1  0  0  0
  3  4  2  0  0  0
  4  5  1  0  0  0
  5  6  2  0  0  0
  6  1  1  0  0  0
 11  7  1  0  0  0
M  END
> <minimizedAffinity>
-4.74636

> <minimizedRMSD>
0.55254

$$$$
C961-P187


 20 22  0  0  0  0  0  0  0  0999 V2000
   25.7740   12.9618   -1.5033 O   0  0  0  0  0  0  0  0  0  0  0  0
   25.0536   12.3019   -0.8588 C   0  0  0  0  0  0  0  0  0  0  0  0
   23.6921   11.6380   -1.2271 N   0  0  0  0  0  0  0  0  0  0  0  0
   23.2359   11.1899   -0.4786 H   0  0  0  0  0  0  0  0  0  0  0  0
   25.3905   11.8638    0.5821 C   0  0  0  0  0  0  0  0  0  0  0  0
   26.9091   11.9409    0.8463 C   0  0  0  0  0  0  0  0  0  0  0  0
   27.2323   11.7845    2.3353 C   0  0  0  0  0  0  0  0  0  0  0  0
   26.5654   12.8870    3.1578 C   0  0  0  0  0  0  0  0  0  0  0  0
   25.2011   13.1185    2.7465 N   0  0  0  0  0  0  0  0  0  0  0  0
   24.2437   13.8231    3.3984 C   0  0  0  0  0  0  0  0  0  0  0  0
   23.1418   13.8177    2.6817 N   0  0  0  0  0  0  0  0  0  0  0  0
   23.3893   13.0948    1.5351 N   0  0  0  0  0  0  0  0  0  0  0  0
   24.6458   12.7012    1.5680 C   0  0  0  0  0  0  0  0  0  0  0  0
   23.0277   11.5770   -2.4232 N   0  0  0  0  0  0  0  0  0  0  0  0
   23.3905   11.9711   -3.2492 H   0  0  0  0  0  0  0  0  0  0  0  0
   21.8241   10.9292   -2.3871 C   0  0  0  0  0  0  0  0  0  0  0  0
   21.4696    9.9885   -1.5714 N   0  0  0  0  0  0  0  0  0  0  0  0
   20.1051    9.5365   -1.9038 C   0  0  0  0  0  0  0  0  0  0  0  0
   19.3444   10.6532   -2.5966 C   0  0  0  0  0  0  0  0  0  0  0  0
   20.6349   11.4634   -3.5540 S   0  0  0  0  0  0  0  0  0  0  0  0
  1  2  2  0  0  0
  2  3  1  0  0  0
  3 14  1  0  0  0
 14 16  1  0  0  0
 16 17  2  0  0  0
 17 18  1  0  0  0
 18 19  1  0  0  0
 19 20  1  0  0  0
  5  2  1  0  0  0
  5  6  1  0  0  0
  6  7  1  0  0  0
  7  8  1  0  0  0
  8  9  1  0  0  0
  9 10  1  0  0  0
 10 11  2  0  0  0
 11 12  1  0  0  0
 12 13  2  0  0  0
 20 16  1  0  0  0
 13  5  1  0  0  0
 13  9  1  0  0  0
  3  4  1  0  0  0
 14 15  1  0  0  0
M  END
> <minimizedAffinity>
-3.53492

> <minimizedRMSD>
1.91875

$$$$
C1394-P423


 20 20  0  0  0  0  0  0  0  0999 V2000
    8.9470   14.0438   23.5035 N   0  0  0  0  0  0  0  0  0  0  0  0
    7.8305   12.9708   23.6733 C   0  0  0  0  0  0  0  0  0  0  0  0
    6.9007   12.7325   23.0045 O   0  0  0  0  0  0  0  0  0  0  0  0
    9.5863   14.0954   24.2503 H   0  0  0  0  0  0  0  0  0  0  0  0
    9.1979   14.9811   22.4214 C   0  0  0  0  0  0  0  0  0  0  0  0
    8.4264   14.5332   21.2008 C   0  0  0  0  0  0  0  0  0  0  0  0
    8.7764   16.3688   22.9109 C   0  0  0  0  0  0  0  0  0  0  0  0
   10.6640   14.9619   21.9473 C   0  0  0  0  0  0  0  0  0  0  0  0
   12.1101   15.1167   24.3066 C   0  0  0  0  0  0  0  0  0  0  0  0
   11.7073   16.1047   22.8627 S   0  0  0  0  0  0  0  0  0  0  0  0
    8.2577   12.1587   24.9108 C   0  0  0  0  0  0  0  0  0  0  0  0
    8.8493   10.9828   24.5071 F   0  0  0  0  0  0  0  0  0  0  0  0
    9.2509   12.7986   25.6041 F   0  0  0  0  0  0  0  0  0  0  0  0
    7.1387   11.8113   25.8678 C   0  0  0  0  0  0  0  0  0  0  0  0
    6.2018   12.9823   26.1543 C   0  0  0  0  0  0  0  0  0  0  0  0
    5.2255   12.5817   27.2522 C   0  0  0  0  0  0  0  0  0  0  0  0
    4.5499   11.2483   26.9542 C   0  0  0  0  0  0  0  0  0  0  0  0
    5.4541   10.1856   26.5316 N   0  0  0  0  0  0  0  0  0  0  0  0
    6.3529   10.5709   25.4530 C   0  0  0  0  0  0  0  0  0  0  0  0
    4.8939    9.3938   26.2157 H   0  0  0  0  0  0  0  0  0  0  0  0
  9 10  1  0  0  0
 10  8  1  0  0  0
  8  5  1  0  0  0
  5  6  1  0  0  0
  5  7  1  0  0  0
  5  1  1  0  0  0
  1  2  1  0  0  0
  2  3  2  0  0  0
  2 11  1  0  0  0
 11 12  1  0  0  0
 11 13  1  0  0  0
 14 11  1  0  0  0
 14 15  1  0  0  0
 15 16  1  0  0  0
 16 17  1  0  0  0
 17 18  1  0  0  0
 18 19  1  0  0  0
 19 14  1  0  0  0
  1  4  1  0  0  0
 18 20  1  0  0  0
M  END
> <minimizedAffinity>
-4.94457

> <minimizedRMSD>
1.42066

$$$$
C7479-P279


 24 25  0  0  0  0  0  0  0  0999 V2000
    7.2880   14.7996   22.5800 S   0  0  0  0  0  0  0  0  0  0  0  0
    7.1034   13.4291   22.1260 O   0  0  0  0  0  0  0  0  0  0  0  0
    8.2092   15.5828   21.7825 O   0  0  0  0  0  0  0  0  0  0  0  0
    7.2629   15.0149   24.0984 N   0  0  0  0  0  0  0  0  0  0  0  0
    8.6071   14.6491   24.7577 S   0  0  0  0  0  0  0  0  0  0  0  0
    8.4755   15.2217   26.4404 C   0  0  0  0  0  0  0  0  0  0  0  0
    9.8951   15.1260   24.2975 O   0  0  0  0  0  0  0  0  0  0  0  0
    8.7867   12.8660   25.0056 C   0  0  0  0  0  0  0  0  0  0  0  0
    9.5416   12.2181   23.8481 C   0  0  0  0  0  0  0  0  0  0  0  0
    9.6006   10.6980   23.8808 C   0  0  0  0  0  0  0  0  0  0  0  0
    8.4273    9.9586   24.4914 C   0  0  0  0  0  0  0  0  0  0  0  0
    7.6206   10.7056   25.5368 C   0  0  0  0  0  0  0  0  0  0  0  0
    7.4552   12.1853   25.2596 C   0  0  0  0  0  0  0  0  0  0  0  0
    5.8228   15.5232   22.2095 N   0  0  0  0  0  0  0  0  0  0  0  0
    5.7498   16.3703   22.7729 H   0  0  0  0  0  0  0  0  0  0  0  0
    4.6104   14.7464   22.4319 C   0  0  0  0  0  0  0  0  0  0  0  0
    3.4359   14.2815   20.1511 C   0  0  0  0  0  0  0  0  0  0  0  0
    2.3639   14.8288   19.5085 O   0  0  0  0  0  0  0  0  0  0  0  0
    2.0250   15.8882   20.2744 C   0  0  0  0  0  0  0  0  0  0  0  0
    2.7641   16.0652   21.3502 N   0  0  0  0  0  0  0  0  0  0  0  0
    3.6507   15.0037   21.3132 C   0  0  0  0  0  0  0  0  0  0  0  0
    3.8863   13.1331   17.9873 C   0  0  0  0  0  0  0  0  0  0  0  0
    4.0482   13.0968   19.5059 C   0  0  0  0  0  0  0  0  0  0  0  0
    3.4640   11.8048   20.0768 C   0  0  0  0  0  0  0  0  0  0  0  0
 22 23  1  0  0  0
 23 24  1  0  0  0
 23 17  1  0  0  0
 17 18  1  0  0  0
 18 19  1  0  0  0
 19 20  2  0  0  0
 20 21  1  0  0  0
 21 16  1  0  0  0
 16 14  1  0  0  0
 14  1  1  0  0  0
  1  2  2  0  0  0
  1  3  2  0  0  0
  1  4  1  0  0  0
  4  5  2  0  0  0
  5  6  1  0  0  0
  5  7  2  0  0  0
  5  8  1  0  0  0
  8  9  1  0  0  0
  9 10  1  0  0  0
 10 11  1  0  0  0
 11 12  1  0  0  0
 12 13  1  0  0  0
 21 17  2  0  0  0
 13  8  1  0  0  0
 14 15  1  0  0  0
M  END
> <minimizedAffinity>
-5.48386

> <minimizedRMSD>
0.48680

$$$$
C15051-P343


 15 15  0  0  0  0  0  0  0  0999 V2000
   10.5612   13.4056   24.4184 C   0  0  0  0  0  0  0  0  0  0  0  0
    9.2803   13.1454   23.6183 C   0  0  0  0  0  0  0  0  0  0  0  0
    9.6117   12.2853   22.5490 O   0  0  0  0  0  0  0  0  0  0  0  0
   10.2690   12.7154   21.9799 H   0  0  0  0  0  0  0  0  0  0  0  0
    8.2465   12.3925   24.4579 C   0  0  0  0  0  0  0  0  0  0  0  0
    8.1156   11.0010   24.3378 C   0  0  0  0  0  0  0  0  0  0  0  0
    7.1775   10.3236   25.1098 C   0  0  0  0  0  0  0  0  0  0  0  0
    6.3735   11.0458   25.9764 C   0  0  0  0  0  0  0  0  0  0  0  0
    6.5414   12.4191   26.0278 C   0  0  0  0  0  0  0  0  0  0  0  0
    7.4713   13.0989   25.3159 N   0  0  0  0  0  0  0  0  0  0  0  0
    8.7691   14.5222   23.1754 C   0  0  0  0  0  0  0  0  0  0  0  0
    9.1380   15.5661   23.7324 O   0  0  0  0  0  0  0  0  0  0  0  0
    7.8962   14.5532   21.9541 C   0  0  0  0  0  0  0  0  0  0  0  0
    8.6503   14.3816   20.8282 F   0  0  0  0  0  0  0  0  0  0  0  0
    6.9450   13.5779   21.9466 F   0  0  0  0  0  0  0  0  0  0  0  0
  2  1  1  0  0  0
  2  3  1  0  0  0
  2 11  1  0  0  0
 11 12  2  0  0  0
 11 13  1  0  0  0
 13 14  1  0  0  0
 13 15  1  0  0  0
  2  5  1  0  0  0
  5  6  2  0  0  0
  6  7  1  0  0  0
  7  8  2  0  0  0
  8  9  1  0  0  0
  9 10  2  0  0  0
 10  5  1  0  0  0
  3  4  1  0  0  0
M  END
> <minimizedAffinity>
-4.97000

> <minimizedRMSD>
0.67555

$$$$
C15054-P343


 16 16  0  0  0  0  0  0  0  0999 V2000
   11.2239   13.4031   24.2226 C   0  0  0  0  0  0  0  0  0  0  0  0
    9.9885   13.3122   23.3289 C   0  0  0  0  0  0  0  0  0  0  0  0
    8.9922   12.3271   23.9207 C   0  0  0  0  0  0  0  0  0  0  0  0
    9.0424   10.9776   23.5867 C   0  0  0  0  0  0  0  0  0  0  0  0
    8.1463   10.1045   24.1948 C   0  0  0  0  0  0  0  0  0  0  0  0
    7.2106   10.5982   25.0951 C   0  0  0  0  0  0  0  0  0  0  0  0
    7.2057   11.9575   25.3508 C   0  0  0  0  0  0  0  0  0  0  0  0
    8.0926   12.8229   24.8154 N   0  0  0  0  0  0  0  0  0  0  0  0
    9.4234   14.6736   23.2902 N   0  0  0  0  0  0  0  0  0  0  0  0
   10.1640   15.3117   23.5811 H   0  0  0  0  0  0  0  0  0  0  0  0
    8.8116   15.2604   21.8583 S   0  0  0  0  0  0  0  0  0  0  0  0
    7.8882   14.2499   21.3811 O   0  0  0  0  0  0  0  0  0  0  0  0
    8.3216   16.5822   22.1751 O   0  0  0  0  0  0  0  0  0  0  0  0
   10.2194   15.4003   20.7454 C   0  0  0  0  0  0  0  0  0  0  0  0
   11.2980   16.0081   21.5094 C   0  0  0  0  0  0  0  0  0  0  0  0
   12.1127   16.4678   22.1980 N   0  0  0  0  0  0  0  0  0  0  0  0
  2  1  1  0  0  0
  2  9  1  0  0  0
  9 11  1  0  0  0
 11 12  2  0  0  0
 11 13  2  0  0  0
 11 14  1  0  0  0
 14 15  1  0  0  0
 15 16  3  0  0  0
  2  3  1  0  0  0
  3  4  2  0  0  0
  4  5  1  0  0  0
  5  6  2  0  0  0
  6  7  1  0  0  0
  7  8  2  0  0  0
  8  3  1  0  0  0
  9 10  1  0  0  0
M  END
> <minimizedAffinity>
-5.36327

> <minimizedRMSD>
0.42368

$$$$
C8132-P343


 17 17  0  0  0  0  0  0  0  0999 V2000
    9.7887   15.0604   23.3750 N   0  0  0  0  0  0  0  0  0  0  0  0
    8.9917   15.1434   24.0061 H   0  0  0  0  0  0  0  0  0  0  0  0
    8.5758   14.3133   21.3102 O   0  0  0  0  0  0  0  0  0  0  0  0
    9.2679   15.4981   21.8004 S   0  0  0  0  0  0  0  0  0  0  0  0
    8.4974   16.7053   22.0230 O   0  0  0  0  0  0  0  0  0  0  0  0
   10.8957   15.8726   20.9147 C   0  0  0  0  0  0  0  0  0  0  0  0
   11.6917   16.6786   21.6736 F   0  0  0  0  0  0  0  0  0  0  0  0
   10.7133   16.4701   19.7119 F   0  0  0  0  0  0  0  0  0  0  0  0
   11.6199   14.7337   20.7102 F   0  0  0  0  0  0  0  0  0  0  0  0
   10.3328   13.6800   23.4978 C   0  0  0  0  0  0  0  0  0  0  0  0
    9.3008   12.8244   24.2698 C   0  0  0  0  0  0  0  0  0  0  0  0
    9.1175   11.4596   23.6235 C   0  0  0  0  0  0  0  0  0  0  0  0
    8.0336   10.6229   24.2880 C   0  0  0  0  0  0  0  0  0  0  0  0
    7.2412   11.3413   25.3678 C   0  0  0  0  0  0  0  0  0  0  0  0
    6.9962   12.8264   25.1337 C   0  0  0  0  0  0  0  0  0  0  0  0
    8.0246   13.5452   24.3922 N   0  0  0  0  0  0  0  0  0  0  0  0
    8.2020   14.4296   24.8685 H   0  0  0  0  0  0  0  0  0  0  0  0
  3  4  2  0  0  0
  4  5  2  0  0  0
  4  1  1  0  0  0
  1 10  1  0  0  0
 11 10  1  0  0  0
 11 12  1  0  0  0
 12 13  1  0  0  0
 13 14  1  0  0  0
 14 15  1  0  0  0
 15 16  1  0  0  0
  4  6  1  0  0  0
  6  7  1  0  0  0
  6  8  1  0  0  0
  6  9  1  0  0  0
 16 11  1  0  0  0
  1  2  1  0  0  0
 16 17  1  0  0  0
M  END
> <minimizedAffinity>
-5.44326

> <minimizedRMSD>
0.76738

$$$$
C8137-P343


 20 20  0  0  0  0  0  0  0  0999 V2000
    6.3989   14.5057   23.9646 N   0  0  0  0  0  0  0  0  0  0  0  0
    5.6332   13.8370   24.0478 H   0  0  0  0  0  0  0  0  0  0  0  0
    6.4918   14.9353   22.3449 S   0  0  0  0  0  0  0  0  0  0  0  0
    6.2789   13.7519   21.5434 O   0  0  0  0  0  0  0  0  0  0  0  0
    5.5977   16.0558   22.2001 O   0  0  0  0  0  0  0  0  0  0  0  0
    8.1120   15.4024   22.2263 N   0  0  0  0  0  0  0  0  0  0  0  0
    8.2791   16.8683   22.2400 C   0  0  0  0  0  0  0  0  0  0  0  0
    8.8823   14.7211   21.1418 C   0  0  0  0  0  0  0  0  0  0  0  0
   10.0031   15.5393   20.4943 C   0  0  0  0  0  0  0  0  0  0  0  0
   11.9863   16.1487   22.0206 C   0  0  0  0  0  0  0  0  0  0  0  0
   11.4192   15.2183   20.9694 C   0  0  0  0  0  0  0  0  0  0  0  0
    7.5667   13.9022   24.6403 C   0  0  0  0  0  0  0  0  0  0  0  0
    7.4156   14.1916   26.1335 C   0  0  0  0  0  0  0  0  0  0  0  0
    7.6756   12.4147   24.2527 C   0  0  0  0  0  0  0  0  0  0  0  0
    7.1809   11.3758   25.2550 C   0  0  0  0  0  0  0  0  0  0  0  0
    7.3838    9.9660   24.7132 C   0  0  0  0  0  0  0  0  0  0  0  0
    8.7248    9.7263   24.2286 N   0  0  0  0  0  0  0  0  0  0  0  0
    9.1783   10.6858   23.2391 C   0  0  0  0  0  0  0  0  0  0  0  0
    9.0920   12.1083   23.7581 C   0  0  0  0  0  0  0  0  0  0  0  0
    8.7524    8.7968   23.8095 H   0  0  0  0  0  0  0  0  0  0  0  0
 10 11  1  0  0  0
 11  9  1  0  0  0
  9  8  1  0  0  0
  8  6  1  0  0  0
  6  7  1  0  0  0
  6  3  1  0  0  0
  3  4  2  0  0  0
  3  5  2  0  0  0
  3  1  1  0  0  0
  1 12  1  0  0  0
 12 13  1  0  0  0
 12 14  1  0  0  0
 14 15  1  0  0  0
 15 16  1  0  0  0
 16 17  1  0  0  0
 17 18  1  0  0  0
 18 19  1  0  0  0
 19 14  1  0  0  0
  1  2  1  0  0  0
 17 20  1  0  0  0
M  END
> <minimizedAffinity>
-5.39236

> <minimizedRMSD>
0.68726

$$$$
C9179-P22


 17 18  0  0  0  0  0  0  0  0999 V2000
   10.8334   13.9656   21.7871 N   0  0  0  0  0  0  0  0  0  0  0  0
   11.3592   13.1825   21.3988 H   0  0  0  0  0  0  0  0  0  0  0  0
   13.5736   16.7207   18.7881 C   0  0  0  0  0  0  0  0  0  0  0  0
   13.0983   16.0459   19.9654 N   0  0  0  0  0  0  0  0  0  0  0  0
   13.7530   16.1892   21.2320 C   0  0  0  0  0  0  0  0  0  0  0  0
   13.0872   15.1184   22.0603 C   0  0  0  0  0  0  0  0  0  0  0  0
   11.6314   15.2075   21.6038 C   0  0  0  0  0  0  0  0  0  0  0  0
   11.8086   15.5512   20.1277 C   0  0  0  0  0  0  0  0  0  0  0  0
   10.9587   15.4597   19.2545 O   0  0  0  0  0  0  0  0  0  0  0  0
   10.4845   13.6272   23.4107 S   0  0  0  0  0  0  0  0  0  0  0  0
   11.5492   12.7482   23.8423 O   0  0  0  0  0  0  0  0  0  0  0  0
   10.2879   14.9197   24.0298 O   0  0  0  0  0  0  0  0  0  0  0  0
    8.9753   12.6954   23.4667 C   0  0  0  0  0  0  0  0  0  0  0  0
    8.0131   13.0699   24.5956 C   0  0  0  0  0  0  0  0  0  0  0  0
    8.0296   11.6892   25.0888 N   0  0  0  0  0  0  0  0  0  0  0  0
    9.1210   11.3389   24.1789 C   0  0  0  0  0  0  0  0  0  0  0  0
    7.1651   11.1782   24.9100 H   0  0  0  0  0  0  0  0  0  0  0  0
  3  4  1  0  0  0
  4  5  1  0  0  0
  5  6  1  0  0  0
  6  7  1  0  0  0
  7  1  1  0  0  0
  1 10  1  0  0  0
 10 11  2  0  0  0
 10 12  2  0  0  0
 10 13  1  0  0  0
 13 14  1  0  0  0
 14 15  1  0  0  0
 15 16  1  0  0  0
  7  8  1  0  0  0
  8  9  2  0  0  0
  8  4  1  0  0  0
 16 13  1  0  0  0
  1  2  1  0  0  0
 15 17  1  0  0  0
M  END
> <minimizedAffinity>
-6.20890

> <minimizedRMSD>
1.58937

$$$$
C961-P228


 20 22  0  0  0  0  0  0  0  0999 V2000
   25.5689   10.2811   -1.1413 O   0  0  0  0  0  0  0  0  0  0  0  0
   25.0504   11.2339   -0.7025 C   0  0  0  0  0  0  0  0  0  0  0  0
   23.6015   11.7666   -0.8859 N   0  0  0  0  0  0  0  0  0  0  0  0
   23.3818   12.5590   -0.3446 H   0  0  0  0  0  0  0  0  0  0  0  0
   25.8451   12.2544    0.1502 C   0  0  0  0  0  0  0  0  0  0  0  0
   27.2639   11.7010    0.4269 C   0  0  0  0  0  0  0  0  0  0  0  0
   27.9754   12.4240    1.5688 C   0  0  0  0  0  0  0  0  0  0  0  0
   27.1720   12.3136    2.8604 C   0  0  0  0  0  0  0  0  0  0  0  0
   25.7876   12.6519    2.6367 N   0  0  0  0  0  0  0  0  0  0  0  0
   24.8956   13.1381    3.5341 C   0  0  0  0  0  0  0  0  0  0  0  0
   23.7618   13.3904    2.9200 N   0  0  0  0  0  0  0  0  0  0  0  0
   23.9263   13.0769    1.5877 N   0  0  0  0  0  0  0  0  0  0  0  0
   25.1492   12.6111    1.4261 C   0  0  0  0  0  0  0  0  0  0  0  0
   22.5790   11.3115   -1.6798 N   0  0  0  0  0  0  0  0  0  0  0  0
   21.6875   11.0958   -1.3223 H   0  0  0  0  0  0  0  0  0  0  0  0
   22.8911   11.1798   -3.0055 C   0  0  0  0  0  0  0  0  0  0  0  0
   23.2488   12.1159   -3.8246 N   0  0  0  0  0  0  0  0  0  0  0  0
   23.4343   11.5493   -5.1740 C   0  0  0  0  0  0  0  0  0  0  0  0
   23.7808   10.0746   -5.0723 C   0  0  0  0  0  0  0  0  0  0  0  0
   22.8225    9.5508   -3.6428 S   0  0  0  0  0  0  0  0  0  0  0  0
  1  2  2  0  0  0
  2  3  1  0  0  0
  3 14  1  0  0  0
 14 16  1  0  0  0
 16 17  2  0  0  0
 17 18  1  0  0  0
 18 19  1  0  0  0
 19 20  1  0  0  0
  5  2  1  0  0  0
  5  6  1  0  0  0
  6  7  1  0  0  0
  7  8  1  0  0  0
  8  9  1  0  0  0
  9 10  1  0  0  0
 10 11  2  0  0  0
 11 12  1  0  0  0
 12 13  2  0  0  0
 20 16  1  0  0  0
 13  5  1  0  0  0
 13  9  1  0  0  0
  3  4  1  0  0  0
 14 15  1  0  0  0
M  END
> <minimizedAffinity>
-2.82883

> <minimizedRMSD>
1.69077

$$$$
C1002-P228


 21 23  0  0  0  0  0  0  0  0999 V2000
   28.7943   10.6621    1.6754 N   0  0  0  0  0  0  0  0  0  0  0  0
   27.8034   11.5182    2.5044 C   0  0  0  0  0  0  0  0  0  0  0  0
   27.9676   12.1246    3.4867 O   0  0  0  0  0  0  0  0  0  0  0  0
   28.3899   10.1819    0.9171 H   0  0  0  0  0  0  0  0  0  0  0  0
   26.4522   11.4600    1.7802 C   0  0  0  0  0  0  0  0  0  0  0  0
   26.6098   11.6777    0.2628 C   0  0  0  0  0  0  0  0  0  0  0  0
   25.2627   11.5244   -0.4444 C   0  0  0  0  0  0  0  0  0  0  0  0
   24.2193   12.3299    0.2273 C   0  0  0  0  0  0  0  0  0  0  0  0
   23.0818   12.7635   -0.2655 N   0  0  0  0  0  0  0  0  0  0  0  0
   22.4546   13.4955    0.7159 N   0  0  0  0  0  0  0  0  0  0  0  0
   23.2210   13.4895    1.7886 C   0  0  0  0  0  0  0  0  0  0  0  0
   22.9523   14.1856    3.0609 C   0  0  0  0  0  0  0  0  0  0  0  0
   24.3346   12.7430    1.5263 N   0  0  0  0  0  0  0  0  0  0  0  0
   25.4963   12.5194    2.3631 C   0  0  0  0  0  0  0  0  0  0  0  0
   30.2113   10.4549    1.8345 C   0  0  0  0  0  0  0  0  0  0  0  0
   30.9008   11.5629    1.0443 C   0  0  0  0  0  0  0  0  0  0  0  0
   31.1207   12.9295    1.7576 C   0  0  0  0  0  0  0  0  0  0  0  0
   32.4671   13.0204    1.0132 C   0  0  0  0  0  0  0  0  0  0  0  0
   32.4532   11.4803    0.9547 C   0  0  0  0  0  0  0  0  0  0  0  0
   30.8386    8.0644    0.8200 C   0  0  0  0  0  0  0  0  0  0  0  0
   30.5572    9.1347    1.2876 C   0  0  0  0  0  0  0  0  0  0  0  0
 20 21  3  0  0  0
 15 21  1  0  0  0
 15  1  1  0  0  0
  1  2  1  0  0  0
  2  3  2  0  0  0
  5  2  1  0  0  0
  5  6  1  0  0  0
  6  7  1  0  0  0
  7  8  1  0  0  0
  8  9  2  0  0  0
  9 10  1  0  0  0
 10 11  2  0  0  0
 11 12  1  0  0  0
 11 13  1  0  0  0
 13 14  1  0  0  0
 15 16  1  0  0  0
 16 17  1  0  0  0
 17 18  1  0  0  0
 18 19  1  0  0  0
 14  5  1  0  0  0
 19 16  1  0  0  0
 13  8  1  0  0  0
  1  4  1  0  0  0
M  END
> <minimizedAffinity>
-3.44554

> <minimizedRMSD>
0.52660

$$$$
C1352-P196


 18 19  0  0  0  0  0  0  0  0999 V2000
    8.1827   14.5274   25.0043 C   0  0  0  0  0  0  0  0  0  0  0  0
    8.5679   14.6588   26.1628 O   0  0  0  0  0  0  0  0  0  0  0  0
    7.3618   13.5209   24.5807 N   0  0  0  0  0  0  0  0  0  0  0  0
    5.9751   13.7618   24.6351 O   0  0  0  0  0  0  0  0  0  0  0  0
    5.8151   14.6526   24.9840 H   0  0  0  0  0  0  0  0  0  0  0  0
    7.7586   12.2249   24.0780 C   0  0  0  0  0  0  0  0  0  0  0  0
    9.2507   11.9724   23.8777 C   0  0  0  0  0  0  0  0  0  0  0  0
    9.3089   10.4641   23.6474 C   0  0  0  0  0  0  0  0  0  0  0  0
    8.0986    9.8854   24.3769 C   0  0  0  0  0  0  0  0  0  0  0  0
    7.3440   11.0661   24.9662 C   0  0  0  0  0  0  0  0  0  0  0  0
    8.5615   15.4778   23.8912 C   0  0  0  0  0  0  0  0  0  0  0  0
   10.0706   15.7057   23.8890 C   0  0  0  0  0  0  0  0  0  0  0  0
   11.1095   15.7220   18.9010 C   0  0  0  0  0  0  0  0  0  0  0  0
   11.0601   15.7197   20.3725 C   0  0  0  0  0  0  0  0  0  0  0  0
   10.0582   15.9252   21.2861 C   0  0  0  0  0  0  0  0  0  0  0  0
   10.6781   15.6983   22.5353 C   0  0  0  0  0  0  0  0  0  0  0  0
   11.9830   15.4316   22.3944 N   0  0  0  0  0  0  0  0  0  0  0  0
   12.2199   15.4528   21.0295 O   0  0  0  0  0  0  0  0  0  0  0  0
 13 14  1  0  0  0
 14 15  2  0  0  0
 15 16  1  0  0  0
 16 12  1  0  0  0
 12 11  1  0  0  0
 11  1  1  0  0  0
  1  2  2  0  0  0
  1  3  1  0  0  0
  3  4  1  0  0  0
  3  6  1  0  0  0
  6  7  1  0  0  0
  7  8  1  0  0  0
  8  9  1  0  0  0
  9 10  1  0  0  0
 16 17  2  0  0  0
 17 18  1  0  0  0
 18 14  1  0  0  0
 10  6  1  0  0  0
  4  5  1  0  0  0
M  END
> <minimizedAffinity>
-5.74593

> <minimizedRMSD>
0.60585

$$$$
C7067-P174


 20 20  0  0  0  0  0  0  0  0999 V2000
    9.5378   16.2777   21.3764 C   0  0  0  0  0  0  0  0  0  0  0  0
   10.6506   15.2698   21.1470 C   0  0  0  0  0  0  0  0  0  0  0  0
   10.3969   14.0481   21.9052 N   0  0  0  0  0  0  0  0  0  0  0  0
   10.3836   13.7969   23.4386 C   0  0  0  0  0  0  0  0  0  0  0  0
   10.4973   14.5448   24.3293 O   0  0  0  0  0  0  0  0  0  0  0  0
   10.2028   13.2546   21.3557 H   0  0  0  0  0  0  0  0  0  0  0  0
   10.2895   12.2866   23.6692 C   0  0  0  0  0  0  0  0  0  0  0  0
    8.8965   11.6472   23.4493 C   0  0  0  0  0  0  0  0  0  0  0  0
    7.7839   12.5614   23.9808 C   0  0  0  0  0  0  0  0  0  0  0  0
    8.8519   10.2471   24.1325 C   0  0  0  0  0  0  0  0  0  0  0  0
    9.2824    9.1235   23.1850 C   0  0  0  0  0  0  0  0  0  0  0  0
    7.5255    9.8662   24.7816 C   0  0  0  0  0  0  0  0  0  0  0  0
   12.0638   15.7385   21.5242 C   0  0  0  0  0  0  0  0  0  0  0  0
   12.8435   16.7281   20.6440 C   0  0  0  0  0  0  0  0  0  0  0  0
   12.1541   18.0751   20.4567 C   0  0  0  0  0  0  0  0  0  0  0  0
   13.0236   19.0765   19.6986 C   0  0  0  0  0  0  0  0  0  0  0  0
   13.5098   18.5498   18.4313 N   0  0  0  0  0  0  0  0  0  0  0  0
   14.2055   17.2698   18.6312 C   0  0  0  0  0  0  0  0  0  0  0  0
   13.3101   16.2104   19.2921 C   0  0  0  0  0  0  0  0  0  0  0  0
   14.1564   19.2206   18.0161 H   0  0  0  0  0  0  0  0  0  0  0  0
  2  1  1  0  0  0
  2 13  1  0  0  0
 13 14  1  0  0  0
 14 15  1  0  0  0
 15 16  1  0  0  0
 16 17  1  0  0  0
 17 18  1  0  0  0
 18 19  1  0  0  0
  2  3  1  0  0  0
  3  4  1  0  0  0
  4  5  2  0  0  0
  4  7  1  0  0  0
  7  8  1  0  0  0
  8  9  1  0  0  0
  8 10  1  0  0  0
 10 11  1  0  0  0
 10 12  1  0  0  0
 19 14  1  0  0  0
 17 20  1  0  0  0
  3  6  1  0  0  0
M  END
> <minimizedAffinity>
-6.74159

> <minimizedRMSD>
0.78976

$$$$
C4728-P317


  9  9  0  0  0  0  0  0  0  0999 V2000
   10.3263   15.1603   22.6350 N   0  0  0  0  0  0  0  0  0  0  0  0
   11.7971   15.1213   22.6813 C   0  0  0  0  0  0  0  0  0  0  0  0
   12.2363   16.1669   21.7210 C   0  0  0  0  0  0  0  0  0  0  0  0
   11.2016   16.5864   20.9899 C   0  0  0  0  0  0  0  0  0  0  0  0
    9.9553   15.8861   21.3996 C   0  0  0  0  0  0  0  0  0  0  0  0
    9.6632   13.8645   22.7490 C   0  0  0  0  0  0  0  0  0  0  0  0
   10.3635   12.9212   23.7294 C   0  0  0  0  0  0  0  0  0  0  0  0
    8.3864   11.5579   24.0327 O   0  0  0  0  0  0  0  0  0  0  0  0
    9.6014   11.6218   23.8588 C   0  0  0  0  0  0  0  0  0  0  0  0
  8  9  2  0  0  0
  9  7  1  0  0  0
  7  6  1  0  0  0
  6  1  1  0  0  0
  1  2  1  0  0  0
  2  3  1  0  0  0
  3  4  2  0  0  0
  4  5  1  0  0  0
  5  1  1  0  0  0
M  END
> <minimizedAffinity>
-3.85878

> <minimizedRMSD>
1.79878

$$$$
C36269-P36


 24 26  0  0  0  0  0  0  0  0999 V2000
   21.6085   16.3690    0.6414 C   0  0  0  0  0  0  0  0  0  0  0  0
   22.2114   17.7256    0.3899 C   0  0  0  0  0  0  0  0  0  0  0  0
   21.4079   17.8805   -0.8849 N   0  0  0  0  0  0  0  0  0  0  0  0
   19.9588   18.2664   -1.0981 C   0  0  0  0  0  0  0  0  0  0  0  0
   19.0984   18.4597   -0.3157 O   0  0  0  0  0  0  0  0  0  0  0  0
   21.5890   16.3274   -0.8616 C   0  0  0  0  0  0  0  0  0  0  0  0
   19.6989   18.3981   -2.5534 C   0  0  0  0  0  0  0  0  0  0  0  0
   20.3922   19.1862   -3.4759 C   0  0  0  0  0  0  0  0  0  0  0  0
   19.7621   18.9583   -4.6397 N   0  0  0  0  0  0  0  0  0  0  0  0
   18.7505   18.0743   -4.4499 C   0  0  0  0  0  0  0  0  0  0  0  0
   18.6671   17.7024   -3.2021 N   0  0  0  0  0  0  0  0  0  0  0  0
   18.0368   17.7912   -5.7089 C   0  0  0  0  0  0  0  0  0  0  0  0
   19.0255   18.3613   -6.7584 C   0  0  0  0  0  0  0  0  0  0  0  0
   19.8897   19.3958   -6.0119 C   0  0  0  0  0  0  0  0  0  0  0  0
   22.1727   14.2738    2.3086 C   0  0  0  0  0  0  0  0  0  0  0  0
   21.1495   13.9024    2.7330 O   0  0  0  0  0  0  0  0  0  0  0  0
   22.4888   15.3993    1.2850 N   0  0  0  0  0  0  0  0  0  0  0  0
   23.4369   15.4696    1.0292 H   0  0  0  0  0  0  0  0  0  0  0  0
   23.5012   13.6015    2.7021 C   0  0  0  0  0  0  0  0  0  0  0  0
   24.4589   14.5693    3.3977 C   0  0  0  0  0  0  0  0  0  0  0  0
   24.1239   12.8924    1.4946 C   0  0  0  0  0  0  0  0  0  0  0  0
   25.4198   12.1753    1.8413 C   0  0  0  0  0  0  0  0  0  0  0  0
   27.2805   11.2746    0.7519 C   0  0  0  0  0  0  0  0  0  0  0  0
   26.3059   12.3100    0.7348 O   0  0  0  0  0  0  0  0  0  0  0  0
 23 24  1  0  0  0
 24 22  1  0  0  0
 22 21  1  0  0  0
 21 19  1  0  0  0
 19 20  1  0  0  0
 19 15  1  0  0  0
 15 16  2  0  0  0
 15 17  1  0  0  0
 17  1  1  0  0  0
  1  2  1  0  0  0
  2  3  1  0  0  0
  3  4  1  0  0  0
  4  5  2  0  0  0
  4  7  1  0  0  0
  7  8  2  0  0  0
  8  9  1  0  0  0
  9 10  1  0  0  0
 10 11  2  0  0  0
 10 12  1  0  0  0
 12 13  1  0  0  0
 13 14  1  0  0  0
  3  6  1  0  0  0
  6  1  1  0  0  0
 11  7  1  0  0  0
 14  9  1  0  0  0
 17 18  1  0  0  0
M  END
> <minimizedAffinity>
-2.50865

> <minimizedRMSD>
2.69850

$$$$
C9375-P489


 15 15  0  0  0  0  0  0  0  0999 V2000
    9.6143   13.3733   23.6075 S   0  0  0  0  0  0  0  0  0  0  0  0
    8.8665   14.4900   24.1161 O   0  0  0  0  0  0  0  0  0  0  0  0
   10.8563   12.9600   24.2161 O   0  0  0  0  0  0  0  0  0  0  0  0
    8.5853   12.0558   23.5477 N   0  0  0  0  0  0  0  0  0  0  0  0
    7.5547   12.0921   24.6118 C   0  0  0  0  0  0  0  0  0  0  0  0
    7.3678   10.6682   25.0937 C   0  0  0  0  0  0  0  0  0  0  0  0
    8.2093    9.7932   24.1929 C   0  0  0  0  0  0  0  0  0  0  0  0
    9.2113   10.7241   23.5416 C   0  0  0  0  0  0  0  0  0  0  0  0
    9.9586   13.6410   22.0224 N   0  0  0  0  0  0  0  0  0  0  0  0
   10.9662   13.7895   21.9661 H   0  0  0  0  0  0  0  0  0  0  0  0
    9.3269   14.7565   21.2802 C   0  0  0  0  0  0  0  0  0  0  0  0
   10.7271   15.5210   19.2847 C   0  0  0  0  0  0  0  0  0  0  0  0
   10.3566   15.7745   20.7384 C   0  0  0  0  0  0  0  0  0  0  0  0
   11.5391   15.7891   21.5977 C   0  0  0  0  0  0  0  0  0  0  0  0
   12.2743   15.8429   22.4912 N   0  0  0  0  0  0  0  0  0  0  0  0
 13 12  1  0  0  0
 13 14  1  0  0  0
 14 15  3  0  0  0
 13 11  1  0  0  0
 11  9  1  0  0  0
  9  1  1  0  0  0
  1  2  2  0  0  0
  1  3  2  0  0  0
  1  4  1  0  0  0
  4  5  1  0  0  0
  5  6  1  0  0  0
  6  7  1  0  0  0
  7  8  1  0  0  0
  8  4  1  0  0  0
  9 10  1  0  0  0
M  END
> <minimizedAffinity>
-5.72981

> <minimizedRMSD>
0.86116

$$$$
C7646-P138


 15 16  0  0  0  0  0  0  0  0999 V2000
    8.2036   14.5756   24.8722 C   0  0  0  0  0  0  0  0  0  0  0  0
    6.8139   14.7503   24.2761 C   0  0  0  0  0  0  0  0  0  0  0  0
    5.6843   16.2063   22.3699 N   0  0  0  0  0  0  0  0  0  0  0  0
    6.8339   14.9815   22.4982 S   0  0  0  0  0  0  0  0  0  0  0  0
    8.0698   15.6027   22.0856 O   0  0  0  0  0  0  0  0  0  0  0  0
    6.2540   13.8748   21.7725 O   0  0  0  0  0  0  0  0  0  0  0  0
    5.5706   16.4646   21.3897 H   0  0  0  0  0  0  0  0  0  0  0  0
    5.9931   17.0197   22.9022 H   0  0  0  0  0  0  0  0  0  0  0  0
    8.4982   13.1440   25.3047 C   0  0  0  0  0  0  0  0  0  0  0  0
    8.1109   12.1536   24.3199 N   0  0  0  0  0  0  0  0  0  0  0  0
    7.5449   10.9547   24.9496 C   0  0  0  0  0  0  0  0  0  0  0  0
    8.5251    9.8793   24.7535 C   0  0  0  0  0  0  0  0  0  0  0  0
    8.8671    9.1424   23.5027 C   0  0  0  0  0  0  0  0  0  0  0  0
    9.6020   10.3991   23.8782 C   0  0  0  0  0  0  0  0  0  0  0  0
    9.2468   11.7662   23.4680 C   0  0  0  0  0  0  0  0  0  0  0  0
  3  4  1  0  0  0
  4  5  2  0  0  0
  4  6  2  0  0  0
  4  2  1  0  0  0
  2  1  1  0  0  0
  1  9  1  0  0  0
  9 10  1  0  0  0
 10 11  1  0  0  0
 12 11  1  0  0  0
 12 13  1  0  0  0
 14 13  1  0  0  0
 14 15  1  0  0  0
 15 10  1  0  0  0
 14 12  1  0  0  0
  3  7  1  0  0  0
  3  8  1  0  0  0
M  END
> <minimizedAffinity>
-2.93254

> <minimizedRMSD>
0.54638

$$$$
C7649-P138


 16 17  0  0  0  0  0  0  0  0999 V2000
    7.2876   14.0953   25.2470 C   0  0  0  0  0  0  0  0  0  0  0  0
    6.1752   14.7261   24.4157 C   0  0  0  0  0  0  0  0  0  0  0  0
    5.3839   16.1138   22.2973 N   0  0  0  0  0  0  0  0  0  0  0  0
    6.5965   15.0271   22.7005 S   0  0  0  0  0  0  0  0  0  0  0  0
    7.8253   15.7760   22.6106 O   0  0  0  0  0  0  0  0  0  0  0  0
    6.3393   13.8755   21.8636 O   0  0  0  0  0  0  0  0  0  0  0  0
    5.4867   16.3912   21.3211 H   0  0  0  0  0  0  0  0  0  0  0  0
    5.4537   16.9380   22.8941 H   0  0  0  0  0  0  0  0  0  0  0  0
    7.1688   12.5666   25.3078 C   0  0  0  0  0  0  0  0  0  0  0  0
    8.3897   11.8442   24.9847 N   0  0  0  0  0  0  0  0  0  0  0  0
    8.9489   12.2862   23.7055 C   0  0  0  0  0  0  0  0  0  0  0  0
    9.9176   11.1972   23.3879 C   0  0  0  0  0  0  0  0  0  0  0  0
    9.2083    9.9660   23.8476 C   0  0  0  0  0  0  0  0  0  0  0  0
    9.8847    8.6214   24.0149 C   0  0  0  0  0  0  0  0  0  0  0  0
    9.0456    8.8435   22.8372 C   0  0  0  0  0  0  0  0  0  0  0  0
    8.1280   10.3897   24.8117 C   0  0  0  0  0  0  0  0  0  0  0  0
  3  4  1  0  0  0
  4  5  2  0  0  0
  4  6  2  0  0  0
  4  2  1  0  0  0
  2  1  1  0  0  0
  1  9  1  0  0  0
  9 10  1  0  0  0
 10 11  1  0  0  0
 11 12  1  0  0  0
 12 13  1  0  0  0
 13 14  1  0  0  0
 14 15  1  0  0  0
 13 16  1  0  0  0
 16 10  1  0  0  0
 15 13  1  0  0  0
  3  7  1  0  0  0
  3  8  1  0  0  0
M  END
> <minimizedAffinity>
-2.17724

> <minimizedRMSD>
0.34330

$$$$
C7674-P138


 15 16  0  0  0  0  0  0  0  0999 V2000
    7.1109   15.3078   25.2115 C   0  0  0  0  0  0  0  0  0  0  0  0
    5.9349   15.2899   24.2535 C   0  0  0  0  0  0  0  0  0  0  0  0
    4.9654   16.1435   21.9584 N   0  0  0  0  0  0  0  0  0  0  0  0
    6.4377   15.6104   22.5588 S   0  0  0  0  0  0  0  0  0  0  0  0
    7.3196   16.7493   22.5203 O   0  0  0  0  0  0  0  0  0  0  0  0
    6.7368   14.3978   21.8275 O   0  0  0  0  0  0  0  0  0  0  0  0
    5.0661   16.3790   20.9711 H   0  0  0  0  0  0  0  0  0  0  0  0
    4.6660   16.9697   22.4762 H   0  0  0  0  0  0  0  0  0  0  0  0
    7.8283   13.9660   25.1452 C   0  0  0  0  0  0  0  0  0  0  0  0
    9.2772   14.0669   25.2329 N   0  0  0  0  0  0  0  0  0  0  0  0
    9.8055   15.2913   24.5787 C   0  0  0  0  0  0  0  0  0  0  0  0
   10.1666   14.8507   23.1696 C   0  0  0  0  0  0  0  0  0  0  0  0
   10.5702   13.4254   23.2767 C   0  0  0  0  0  0  0  0  0  0  0  0
    9.5450   12.3420   23.2493 C   0  0  0  0  0  0  0  0  0  0  0  0
    9.9256   12.9379   24.5314 C   0  0  0  0  0  0  0  0  0  0  0  0
  3  4  1  0  0  0
  4  5  2  0  0  0
  4  6  2  0  0  0
  4  2  1  0  0  0
  2  1  1  0  0  0
  1  9  1  0  0  0
  9 10  1  0  0  0
 10 11  1  0  0  0
 11 12  1  0  0  0
 13 12  1  0  0  0
 13 14  1  0  0  0
 15 14  1  0  0  0
 15 10  1  0  0  0
 15 13  1  0  0  0
  3  7  1  0  0  0
  3  8  1  0  0  0
M  END
> <minimizedAffinity>
-3.10909

> <minimizedRMSD>
2.27702

$$$$
C7678-P138


 15 15  0  0  0  0  0  0  0  0999 V2000
    8.1536   13.6231   24.5753 C   0  0  0  0  0  0  0  0  0  0  0  0
    6.7801   14.1005   24.1186 C   0  0  0  0  0  0  0  0  0  0  0  0
    8.3781   14.5957   22.0073 N   0  0  0  0  0  0  0  0  0  0  0  0
    6.7757   14.7472   22.4550 S   0  0  0  0  0  0  0  0  0  0  0  0
    6.0241   13.8697   21.5856 O   0  0  0  0  0  0  0  0  0  0  0  0
    6.5052   16.1655   22.5016 O   0  0  0  0  0  0  0  0  0  0  0  0
    8.4992   14.9408   21.0551 H   0  0  0  0  0  0  0  0  0  0  0  0
    8.6519   13.6141   22.0505 H   0  0  0  0  0  0  0  0  0  0  0  0
    8.4621   14.0913   26.0051 C   0  0  0  0  0  0  0  0  0  0  0  0
    9.5207   15.2153   26.0730 C   0  0  0  0  0  0  0  0  0  0  0  0
    9.0797   16.5112   25.3599 C   0  0  0  0  0  0  0  0  0  0  0  0
    8.4642   17.5166   26.3251 C   0  0  0  0  0  0  0  0  0  0  0  0
    9.4686   17.9567   27.3908 C   0  0  0  0  0  0  0  0  0  0  0  0
   10.4871   16.8715   27.7435 C   0  0  0  0  0  0  0  0  0  0  0  0
    9.9085   15.4753   27.5452 C   0  0  0  0  0  0  0  0  0  0  0  0
  3  4  1  0  0  0
  4  5  2  0  0  0
  4  6  2  0  0  0
  4  2  1  0  0  0
  2  1  1  0  0  0
  1  9  1  0  0  0
  9 10  1  0  0  0
 10 11  1  0  0  0
 11 12  1  0  0  0
 12 13  1  0  0  0
 13 14  1  0  0  0
 14 15  1  0  0  0
 15 10  1  0  0  0
  3  7  1  0  0  0
  3  8  1  0  0  0
M  END
> <minimizedAffinity>
-2.94470

> <minimizedRMSD>
1.15577

$$$$
C1799-P256


 16 18  0  0  0  0  0  0  0  0999 V2000
    8.7677   10.8233   24.9152 C   0  0  0  0  0  0  0  0  0  0  0  0
    9.5153   10.9346   23.5912 C   0  0  0  0  0  0  0  0  0  0  0  0
    9.9016   12.3832   23.2582 C   0  0  0  0  0  0  0  0  0  0  0  0
    8.7836   13.3146   23.5259 C   0  0  0  0  0  0  0  0  0  0  0  0
    7.6992   12.9875   24.3712 C   0  0  0  0  0  0  0  0  0  0  0  0
    6.8582   14.0044   24.5358 N   0  0  0  0  0  0  0  0  0  0  0  0
    7.3731   15.0174   23.7505 O   0  0  0  0  0  0  0  0  0  0  0  0
    8.5261   14.6078   23.1368 C   0  0  0  0  0  0  0  0  0  0  0  0
    7.4944   11.6651   24.9907 C   0  0  0  0  0  0  0  0  0  0  0  0
    9.1866   15.6630   22.3096 C   0  0  0  0  0  0  0  0  0  0  0  0
   10.5332   16.1073   22.8924 C   0  0  0  0  0  0  0  0  0  0  0  0
   11.7378   15.4113   22.2743 C   0  0  0  0  0  0  0  0  0  0  0  0
   11.6560   15.4105   20.7549 C   0  0  0  0  0  0  0  0  0  0  0  0
   10.4569   14.7154   20.2997 N   0  0  0  0  0  0  0  0  0  0  0  0
    9.2343   15.3434   20.8028 C   0  0  0  0  0  0  0  0  0  0  0  0
   10.4908   13.7505   20.6287 H   0  0  0  0  0  0  0  0  0  0  0  0
  1  2  1  0  0  0
  2  3  1  0  0  0
  3  4  1  0  0  0
  4  5  1  0  0  0
  5  6  2  0  0  0
  6  7  1  0  0  0
  7  8  1  0  0  0
 10  8  1  0  0  0
 10 11  1  0  0  0
 11 12  1  0  0  0
 12 13  1  0  0  0
 13 14  1  0  0  0
 14 15  1  0  0  0
  5  9  1  0  0  0
  9  1  1  0  0  0
  8  4  2  0  0  0
 15 10  1  0  0  0
 14 16  1  0  0  0
M  END
> <minimizedAffinity>
-5.57274

> <minimizedRMSD>
0.69758

$$$$
C7506-P306


 18 18  0  0  0  0  0  0  0  0999 V2000
    5.1672   10.3575   26.8260 C   0  0  0  0  0  0  0  0  0  0  0  0
    5.5044   11.7816   26.4119 C   0  0  0  0  0  0  0  0  0  0  0  0
    6.9249   12.1701   26.5114 N   0  0  0  0  0  0  0  0  0  0  0  0
    7.3306   11.5691   27.2287 H   0  0  0  0  0  0  0  0  0  0  0  0
    7.8509   12.1217   25.3724 C   0  0  0  0  0  0  0  0  0  0  0  0
    8.3303   10.7565   24.9146 C   0  0  0  0  0  0  0  0  0  0  0  0
    9.4474   10.8214   23.8767 C   0  0  0  0  0  0  0  0  0  0  0  0
    9.7292   12.2391   23.3894 C   0  0  0  0  0  0  0  0  0  0  0  0
    8.5066   12.9778   23.0843 N   0  0  0  0  0  0  0  0  0  0  0  0
    7.5984   13.1170   24.2292 C   0  0  0  0  0  0  0  0  0  0  0  0
    8.0120   12.4876   22.3390 H   0  0  0  0  0  0  0  0  0  0  0  0
    4.7291   12.7023   27.3956 C   0  0  0  0  0  0  0  0  0  0  0  0
    3.3195   12.6844   27.1456 O   0  0  0  0  0  0  0  0  0  0  0  0
    2.5739   12.7157   28.3748 C   0  0  0  0  0  0  0  0  0  0  0  0
    2.1333   11.3305   28.8319 C   0  0  0  0  0  0  0  0  0  0  0  0
    1.8424   10.5183   27.7936 F   0  0  0  0  0  0  0  0  0  0  0  0
    3.1235   10.7428   29.5458 F   0  0  0  0  0  0  0  0  0  0  0  0
    1.0471   11.4119   29.6306 F   0  0  0  0  0  0  0  0  0  0  0  0
  2  1  1  0  0  0
  2 12  1  0  0  0
 12 13  1  0  0  0
 13 14  1  0  0  0
 14 15  1  0  0  0
 15 16  1  0  0  0
 15 17  1  0  0  0
 15 18  1  0  0  0
  2  3  1  0  0  0
  5  3  1  0  0  0
  5  6  1  0  0  0
  6  7  1  0  0  0
  7  8  1  0  0  0
  8  9  1  0  0  0
  9 10  1  0  0  0
 10  5  1  0  0  0
  3  4  1  0  0  0
  9 11  1  0  0  0
M  END
> <minimizedAffinity>
-3.48436

> <minimizedRMSD>
1.17101

$$$$
C6726-P252


 14 14  0  0  0  0  0  0  0  0999 V2000
    9.8414   14.0066   23.2961 C   0  0  0  0  0  0  0  0  0  0  0  0
   10.1717   15.2520   24.1123 C   0  0  0  0  0  0  0  0  0  0  0  0
   10.0355   14.2724   21.9053 O   0  0  0  0  0  0  0  0  0  0  0  0
   11.3063   14.8830   21.6686 C   0  0  0  0  0  0  0  0  0  0  0  0
   11.3708   15.2222   19.1510 C   0  0  0  0  0  0  0  0  0  0  0  0
   11.2510   15.8793   20.5163 C   0  0  0  0  0  0  0  0  0  0  0  0
   10.0211   16.7563   20.5743 C   0  0  0  0  0  0  0  0  0  0  0  0
    8.3826   13.5872   23.5009 C   0  0  0  0  0  0  0  0  0  0  0  0
    8.2890   12.2010   24.0523 C   0  0  0  0  0  0  0  0  0  0  0  0
    9.0423   11.1674   23.7344 N   0  0  0  0  0  0  0  0  0  0  0  0
    8.5173   10.0949   24.4017 C   0  0  0  0  0  0  0  0  0  0  0  0
    7.4355   10.4836   25.1532 C   0  0  0  0  0  0  0  0  0  0  0  0
    7.3044   11.8264   24.9308 N   0  0  0  0  0  0  0  0  0  0  0  0
    6.6256   12.4178   25.3293 H   0  0  0  0  0  0  0  0  0  0  0  0
  5  6  1  0  0  0
  6  7  1  0  0  0
  6  4  1  0  0  0
  4  3  1  0  0  0
  3  1  1  0  0  0
  1  2  1  0  0  0
  1  8  1  0  0  0
  8  9  1  0  0  0
  9 10  2  0  0  0
 10 11  1  0  0  0
 11 12  2  0  0  0
 12 13  1  0  0  0
 13  9  1  0  0  0
 13 14  1  0  0  0
M  END
> <minimizedAffinity>
-4.67965

> <minimizedRMSD>
0.39990

$$$$
C13035-P321


 19 20  0  0  0  0  0  0  0  0999 V2000
    4.9307   10.0828   28.0997 C   0  0  0  0  0  0  0  0  0  0  0  0
    5.4275    9.0611   28.3619 O   0  0  0  0  0  0  0  0  0  0  0  0
    5.4160   11.2265   27.1773 N   0  0  0  0  0  0  0  0  0  0  0  0
    4.8458   12.0291   27.1808 H   0  0  0  0  0  0  0  0  0  0  0  0
    6.4958   11.3029   26.3673 C   0  0  0  0  0  0  0  0  0  0  0  0
    7.2187   10.2414   25.7446 C   0  0  0  0  0  0  0  0  0  0  0  0
    8.1697   10.8915   25.0069 C   0  0  0  0  0  0  0  0  0  0  0  0
    7.9746   12.2083   25.2432 N   0  0  0  0  0  0  0  0  0  0  0  0
    6.9793   12.5110   26.0552 N   0  0  0  0  0  0  0  0  0  0  0  0
    8.8920   13.1009   24.5750 C   0  0  0  0  0  0  0  0  0  0  0  0
    9.9590   12.1074   24.0981 C   0  0  0  0  0  0  0  0  0  0  0  0
    9.2848   10.7028   24.0663 C   0  0  0  0  0  0  0  0  0  0  0  0
    3.5494   10.5017   28.5991 C   0  0  0  0  0  0  0  0  0  0  0  0
    2.3745   10.1857   30.7709 C   0  0  0  0  0  0  0  0  0  0  0  0
    2.9324    9.4642   29.5458 C   0  0  0  0  0  0  0  0  0  0  0  0
    1.8430    8.6795   28.8375 C   0  0  0  0  0  0  0  0  0  0  0  0
    1.4127    7.6471   29.5918 F   0  0  0  0  0  0  0  0  0  0  0  0
    2.2877    8.1754   27.6647 F   0  0  0  0  0  0  0  0  0  0  0  0
    0.7797    9.4639   28.5604 F   0  0  0  0  0  0  0  0  0  0  0  0
 15 14  1  0  0  0
 15 13  1  0  0  0
 13  1  1  0  0  0
  1  2  2  0  0  0
  1  3  1  0  0  0
  3  5  1  0  0  0
  5  6  1  0  0  0
  6  7  2  0  0  0
  7  8  1  0  0  0
  8  9  1  0  0  0
  8 10  1  0  0  0
 10 11  1  0  0  0
 11 12  1  0  0  0
 15 16  1  0  0  0
 16 17  1  0  0  0
 16 18  1  0  0  0
 16 19  1  0  0  0
  9  5  2  0  0  0
 12  7  1  0  0  0
  3  4  1  0  0  0
M  END
> <minimizedAffinity>
-4.15587

> <minimizedRMSD>
1.45346

$$$$
C11210-P213


 11 11  0  0  0  0  0  0  0  0999 V2000
   10.1879   12.8854   24.0924 C   0  0  0  0  0  0  0  0  0  0  0  0
    9.9288   11.5788   23.6970 C   0  0  0  0  0  0  0  0  0  0  0  0
    8.7875   10.9553   24.1776 C   0  0  0  0  0  0  0  0  0  0  0  0
    7.9708   11.6344   25.0651 C   0  0  0  0  0  0  0  0  0  0  0  0
    8.2092   12.8959   25.4791 N   0  0  0  0  0  0  0  0  0  0  0  0
    9.3035   13.5079   24.9609 C   0  0  0  0  0  0  0  0  0  0  0  0
   11.4363   13.5230   23.6527 C   0  0  0  0  0  0  0  0  0  0  0  0
   12.4345   13.3423   24.3431 O   0  0  0  0  0  0  0  0  0  0  0  0
   11.4058   14.3240   22.3680 C   0  0  0  0  0  0  0  0  0  0  0  0
   12.4049   16.3825   21.2659 C   0  0  0  0  0  0  0  0  0  0  0  0
   11.8632   15.7703   22.5506 C   0  0  0  0  0  0  0  0  0  0  0  0
 10 11  1  0  0  0
 11  9  1  0  0  0
  9  7  1  0  0  0
  7  8  2  0  0  0
  7  1  1  0  0  0
  1  2  2  0  0  0
  2  3  1  0  0  0
  3  4  2  0  0  0
  4  5  1  0  0  0
  5  6  2  0  0  0
  6  1  1  0  0  0
M  END
> <minimizedAffinity>
-4.60136

> <minimizedRMSD>
2.48735

$$$$
C11229-P213


 15 15  0  0  0  0  0  0  0  0999 V2000
    9.1789   12.9107   24.2684 C   0  0  0  0  0  0  0  0  0  0  0  0
   10.3231   12.4808   24.1489 O   0  0  0  0  0  0  0  0  0  0  0  0
    8.2073   12.0432   24.9388 C   0  0  0  0  0  0  0  0  0  0  0  0
    8.2192   10.6860   24.6460 C   0  0  0  0  0  0  0  0  0  0  0  0
    7.3432    9.8589   25.3277 C   0  0  0  0  0  0  0  0  0  0  0  0
    6.5263   10.3983   26.3060 C   0  0  0  0  0  0  0  0  0  0  0  0
    6.5104   11.7092   26.6223 N   0  0  0  0  0  0  0  0  0  0  0  0
    7.3358   12.5143   25.9090 C   0  0  0  0  0  0  0  0  0  0  0  0
    8.6945   14.2521   23.7566 C   0  0  0  0  0  0  0  0  0  0  0  0
    9.4927   14.7129   22.5422 C   0  0  0  0  0  0  0  0  0  0  0  0
   10.4712   15.8346   22.8976 C   0  0  0  0  0  0  0  0  0  0  0  0
   11.9055   15.5156   22.4821 C   0  0  0  0  0  0  0  0  0  0  0  0
   12.3923   16.2777   21.2556 C   0  0  0  0  0  0  0  0  0  0  0  0
   11.5758   15.3547   18.8954 C   0  0  0  0  0  0  0  0  0  0  0  0
   11.9341   15.7109   19.9839 C   0  0  0  0  0  0  0  0  0  0  0  0
 14 15  3  0  0  0
 15 13  1  0  0  0
 13 12  1  0  0  0
 12 11  1  0  0  0
 11 10  1  0  0  0
 10  9  1  0  0  0
  9  1  1  0  0  0
  1  2  2  0  0  0
  1  3  1  0  0  0
  3  4  2  0  0  0
  4  5  1  0  0  0
  5  6  2  0  0  0
  6  7  1  0  0  0
  7  8  2  0  0  0
  8  3  1  0  0  0
M  END
> <minimizedAffinity>
-5.19475

> <minimizedRMSD>
0.42073

$$$$
C9125-P22


 14 14  0  0  0  0  0  0  0  0999 V2000
   10.6849   14.3152   22.7491 N   0  0  0  0  0  0  0  0  0  0  0  0
   10.5530   15.2274   23.8738 C   0  0  0  0  0  0  0  0  0  0  0  0
   11.1276   14.9293   21.4739 C   0  0  0  0  0  0  0  0  0  0  0  0
   12.6031   14.5982   21.2087 C   0  0  0  0  0  0  0  0  0  0  0  0
   13.3656   15.7946   21.7356 C   0  0  0  0  0  0  0  0  0  0  0  0
   12.4684   16.8879   21.5238 N   0  0  0  0  0  0  0  0  0  0  0  0
   11.1547   16.4646   21.4609 C   0  0  0  0  0  0  0  0  0  0  0  0
   10.1966   17.2217   21.4434 O   0  0  0  0  0  0  0  0  0  0  0  0
   12.7519   17.8264   21.4340 H   0  0  0  0  0  0  0  0  0  0  0  0
    9.4620   13.5171   22.5901 C   0  0  0  0  0  0  0  0  0  0  0  0
    9.5404   12.2220   23.3984 C   0  0  0  0  0  0  0  0  0  0  0  0
   10.2571   11.2728   23.0804 O   0  0  0  0  0  0  0  0  0  0  0  0
    7.6955   13.1771   24.8812 C   0  0  0  0  0  0  0  0  0  0  0  0
    8.6357   12.0346   24.5884 C   0  0  0  0  0  0  0  0  0  0  0  0
 13 14  1  0  0  0
 14 11  1  0  0  0
 11 12  2  0  0  0
 11 10  1  0  0  0
 10  1  1  0  0  0
  1  2  1  0  0  0
  3  1  1  0  0  0
  3  4  1  0  0  0
  4  5  1  0  0  0
  5  6  1  0  0  0
  6  7  1  0  0  0
  7  8  2  0  0  0
  7  3  1  0  0  0
  6  9  1  0  0  0
M  END
> <minimizedAffinity>
-5.09193

> <minimizedRMSD>
1.23017

$$$$
C6791-P465


 12 13  0  0  0  0  0  0  0  0999 V2000
    9.4757   10.2309   24.0048 C   0  0  0  0  0  0  0  0  0  0  0  0
    9.6265   11.5107   23.5058 C   0  0  0  0  0  0  0  0  0  0  0  0
    8.7803   12.4951   23.9658 C   0  0  0  0  0  0  0  0  0  0  0  0
    7.8599   12.1913   24.8991 N   0  0  0  0  0  0  0  0  0  0  0  0
    7.7708   10.9156   25.3047 C   0  0  0  0  0  0  0  0  0  0  0  0
    8.5401    9.8996   24.9048 N   0  0  0  0  0  0  0  0  0  0  0  0
    8.8018   13.7981   23.5038 N   0  0  0  0  0  0  0  0  0  0  0  0
    9.0670   14.1922   22.1092 C   0  0  0  0  0  0  0  0  0  0  0  0
   10.5453   14.4164   21.7870 C   0  0  0  0  0  0  0  0  0  0  0  0
   11.3337   15.6212   22.8969 S   0  0  0  0  0  0  0  0  0  0  0  0
   10.7242   14.9772   24.4881 C   0  0  0  0  0  0  0  0  0  0  0  0
    9.2054   14.7938   24.4980 C   0  0  0  0  0  0  0  0  0  0  0  0
  1  2  2  0  0  0
  2  3  1  0  0  0
  3  7  1  0  0  0
  7  8  1  0  0  0
  8  9  1  0  0  0
  9 10  1  0  0  0
 10 11  1  0  0  0
 11 12  1  0  0  0
  3  4  2  0  0  0
  4  5  1  0  0  0
  5  6  2  0  0  0
  6  1  1  0  0  0
 12  7  1  0  0  0
M  END
> <minimizedAffinity>
-4.50339

> <minimizedRMSD>
0.25558

$$$$
C6812-P465


 11 12  0  0  0  0  0  0  0  0999 V2000
    9.3606   10.6653   24.2301 C   0  0  0  0  0  0  0  0  0  0  0  0
    9.8371   11.8454   23.6948 C   0  0  0  0  0  0  0  0  0  0  0  0
    9.1377   13.0078   23.9580 C   0  0  0  0  0  0  0  0  0  0  0  0
    8.0105   12.9630   24.6868 N   0  0  0  0  0  0  0  0  0  0  0  0
    7.6224   11.7658   25.1562 C   0  0  0  0  0  0  0  0  0  0  0  0
    8.2471   10.5958   24.9749 N   0  0  0  0  0  0  0  0  0  0  0  0
    9.5518   14.2553   23.4846 N   0  0  0  0  0  0  0  0  0  0  0  0
    9.5607   14.4046   22.0149 C   0  0  0  0  0  0  0  0  0  0  0  0
   11.0024   14.7449   21.6484 C   0  0  0  0  0  0  0  0  0  0  0  0
   11.4816   15.5086   22.8650 C   0  0  0  0  0  0  0  0  0  0  0  0
   10.8399   14.7365   24.0152 C   0  0  0  0  0  0  0  0  0  0  0  0
  1  2  2  0  0  0
  2  3  1  0  0  0
  3  7  1  0  0  0
  7  8  1  0  0  0
  8  9  1  0  0  0
  9 10  1  0  0  0
 10 11  1  0  0  0
  3  4  2  0  0  0
  4  5  1  0  0  0
  5  6  2  0  0  0
  6  1  1  0  0  0
 11  7  1  0  0  0
M  END
> <minimizedAffinity>
-4.29351

> <minimizedRMSD>
0.55054

$$$$
C13035-P161


 19 20  0  0  0  0  0  0  0  0999 V2000
    5.6069   10.4200   28.6763 C   0  0  0  0  0  0  0  0  0  0  0  0
    6.1562   11.2173   29.3312 O   0  0  0  0  0  0  0  0  0  0  0  0
    5.8295   10.0077   27.1962 N   0  0  0  0  0  0  0  0  0  0  0  0
    5.2819    9.2477   26.8931 H   0  0  0  0  0  0  0  0  0  0  0  0
    6.6599   10.5269   26.2481 C   0  0  0  0  0  0  0  0  0  0  0  0
    7.3131    9.7576   25.2460 C   0  0  0  0  0  0  0  0  0  0  0  0
    8.1603   10.6384   24.6433 C   0  0  0  0  0  0  0  0  0  0  0  0
    7.8324   11.8465   25.1464 N   0  0  0  0  0  0  0  0  0  0  0  0
    7.0278   11.8153   26.2018 N   0  0  0  0  0  0  0  0  0  0  0  0
    8.5968   12.9509   24.6165 C   0  0  0  0  0  0  0  0  0  0  0  0
    9.6768   12.2177   23.7940 C   0  0  0  0  0  0  0  0  0  0  0  0
    9.2760   10.7251   23.6961 C   0  0  0  0  0  0  0  0  0  0  0  0
    4.4093    9.6413   29.2172 C   0  0  0  0  0  0  0  0  0  0  0  0
    2.1362   10.5666   28.5449 C   0  0  0  0  0  0  0  0  0  0  0  0
    3.2824    9.6192   28.1750 C   0  0  0  0  0  0  0  0  0  0  0  0
    2.7244    8.2196   27.9936 C   0  0  0  0  0  0  0  0  0  0  0  0
    3.3089    7.3277   28.8174 F   0  0  0  0  0  0  0  0  0  0  0  0
    2.8969    7.7938   26.7223 F   0  0  0  0  0  0  0  0  0  0  0  0
    1.3963    8.2062   28.2356 F   0  0  0  0  0  0  0  0  0  0  0  0
 15 14  1  0  0  0
 15 13  1  0  0  0
 13  1  1  0  0  0
  1  2  2  0  0  0
  1  3  1  0  0  0
  3  5  1  0  0  0
  5  6  1  0  0  0
  6  7  2  0  0  0
  7  8  1  0  0  0
  8  9  1  0  0  0
  8 10  1  0  0  0
 10 11  1  0  0  0
 11 12  1  0  0  0
 15 16  1  0  0  0
 16 17  1  0  0  0
 16 18  1  0  0  0
 16 19  1  0  0  0
  9  5  2  0  0  0
 12  7  1  0  0  0
  3  4  1  0  0  0
M  END
> <minimizedAffinity>
-5.12973

> <minimizedRMSD>
1.78548

$$$$
C7527-P441


 16 16  0  0  0  0  0  0  0  0999 V2000
    8.1621   13.8515   24.8071 C   0  0  0  0  0  0  0  0  0  0  0  0
    7.9680   14.5016   23.5142 N   0  0  0  0  0  0  0  0  0  0  0  0
    7.8521   15.5032   23.6682 H   0  0  0  0  0  0  0  0  0  0  0  0
    9.0884   14.2980   22.5980 N   0  0  0  0  0  0  0  0  0  0  0  0
   10.3629   14.4024   23.3367 C   0  0  0  0  0  0  0  0  0  0  0  0
   11.5838   14.4391   22.4355 C   0  0  0  0  0  0  0  0  0  0  0  0
   11.4956   15.5712   21.4356 C   0  0  0  0  0  0  0  0  0  0  0  0
   10.1992   15.4678   20.6541 C   0  0  0  0  0  0  0  0  0  0  0  0
    8.9933   15.3801   21.5831 C   0  0  0  0  0  0  0  0  0  0  0  0
    7.4839   14.6812   25.9045 C   0  0  0  0  0  0  0  0  0  0  0  0
    7.5696   14.0027   27.1622 O   0  0  0  0  0  0  0  0  0  0  0  0
    6.3341   13.4327   27.6042 C   0  0  0  0  0  0  0  0  0  0  0  0
    5.2567   12.2947   25.8378 F   0  0  0  0  0  0  0  0  0  0  0  0
    5.9267   12.0984   26.9869 C   0  0  0  0  0  0  0  0  0  0  0  0
    5.1153   11.4565   27.8559 F   0  0  0  0  0  0  0  0  0  0  0  0
    6.9591   11.2801   26.7129 F   0  0  0  0  0  0  0  0  0  0  0  0
 13 14  1  0  0  0
 14 15  1  0  0  0
 14 16  1  0  0  0
 14 12  1  0  0  0
 12 11  1  0  0  0
 11 10  1  0  0  0
 10  1  1  0  0  0
  1  2  1  0  0  0
  2  4  1  0  0  0
  4  5  1  0  0  0
  5  6  1  0  0  0
  6  7  1  0  0  0
  7  8  1  0  0  0
  8  9  1  0  0  0
  9  4  1  0  0  0
  2  3  1  0  0  0
M  END
> <minimizedAffinity>
-4.11603

> <minimizedRMSD>
0.80804

$$$$
C7529-P441


 14 14  0  0  0  0  0  0  0  0999 V2000
    9.0404   14.0356   25.8025 O   0  0  0  0  0  0  0  0  0  0  0  0
    8.3942   13.3456   25.1012 C   0  0  0  0  0  0  0  0  0  0  0  0
    8.4385   13.1528   23.5337 N   0  0  0  0  0  0  0  0  0  0  0  0
    7.7354   12.5675   23.1698 H   0  0  0  0  0  0  0  0  0  0  0  0
    9.3073   13.6745   22.5884 N   0  0  0  0  0  0  0  0  0  0  0  0
   10.4307   14.3937   23.2019 C   0  0  0  0  0  0  0  0  0  0  0  0
   11.4450   14.8250   22.1588 C   0  0  0  0  0  0  0  0  0  0  0  0
   10.8088   15.6832   21.0833 C   0  0  0  0  0  0  0  0  0  0  0  0
    9.5793   15.0014   20.5038 C   0  0  0  0  0  0  0  0  0  0  0  0
    8.6195   14.5088   21.5885 C   0  0  0  0  0  0  0  0  0  0  0  0
    7.3537   12.3265   25.6027 C   0  0  0  0  0  0  0  0  0  0  0  0
    7.0567   12.4673   26.9199 F   0  0  0  0  0  0  0  0  0  0  0  0
    6.1858   12.4096   24.9100 F   0  0  0  0  0  0  0  0  0  0  0  0
    8.0151   10.7097   25.2982 Cl  0  0  0  0  0  0  0  0  0  0  0  0
  1  2  2  0  0  0
  2  3  1  0  0  0
  3  5  1  0  0  0
  5  6  1  0  0  0
  6  7  1  0  0  0
  7  8  1  0  0  0
  8  9  1  0  0  0
  9 10  1  0  0  0
  2 11  1  0  0  0
 11 12  1  0  0  0
 11 13  1  0  0  0
 11 14  1  0  0  0
 10  5  1  0  0  0
  3  4  1  0  0  0
M  END
> <minimizedAffinity>
-4.95961

> <minimizedRMSD>
0.77943

$$$$
C4135-P200


 22 24  0  0  0  0  0  0  0  0999 V2000
    6.9873   15.1021   23.2276 C   0  0  0  0  0  0  0  0  0  0  0  0
    7.4818   14.7330   24.6900 C   0  0  0  0  0  0  0  0  0  0  0  0
    9.0031   14.4485   24.7017 C   0  0  0  0  0  0  0  0  0  0  0  0
    9.0418   12.9703   24.5647 C   0  0  0  0  0  0  0  0  0  0  0  0
    9.9801   12.1906   23.9155 C   0  0  0  0  0  0  0  0  0  0  0  0
    9.7594   10.8226   23.8885 C   0  0  0  0  0  0  0  0  0  0  0  0
    8.7000   10.2727   24.6154 C   0  0  0  0  0  0  0  0  0  0  0  0
    7.7569   11.0706   25.2595 C   0  0  0  0  0  0  0  0  0  0  0  0
    7.8916   12.4297   25.1316 C   0  0  0  0  0  0  0  0  0  0  0  0
    6.9169   13.5141   25.4672 C   0  0  0  0  0  0  0  0  0  0  0  0
    8.5663   14.6616   21.2720 C   0  0  0  0  0  0  0  0  0  0  0  0
    7.3604   14.1696   22.0715 C   0  0  0  0  0  0  0  0  0  0  0  0
    5.7116   15.8160   23.0820 N   0  0  0  0  0  0  0  0  0  0  0  0
    5.8081   16.3415   22.2132 H   0  0  0  0  0  0  0  0  0  0  0  0
    4.3513   15.2470   23.0246 C   0  0  0  0  0  0  0  0  0  0  0  0
    3.5740   14.8926   24.2881 C   0  0  0  0  0  0  0  0  0  0  0  0
    3.8432   14.5892   21.7554 C   0  0  0  0  0  0  0  0  0  0  0  0
    2.9579   15.1066   20.9108 N   0  0  0  0  0  0  0  0  0  0  0  0
    2.6213   14.0556   20.0970 C   0  0  0  0  0  0  0  0  0  0  0  0
    3.3785   12.9570   20.4125 C   0  0  0  0  0  0  0  0  0  0  0  0
    3.4710   11.6019   19.8468 C   0  0  0  0  0  0  0  0  0  0  0  0
    4.1680   13.2814   21.4869 O   0  0  0  0  0  0  0  0  0  0  0  0
 11 12  1  0  0  0
  1 12  1  0  0  0
  1 13  1  0  0  0
 13 15  1  0  0  0
 15 16  1  0  0  0
 15 17  1  0  0  0
 17 18  2  0  0  0
 18 19  1  0  0  0
 19 20  2  0  0  0
 20 21  1  0  0  0
 20 22  1  0  0  0
  1  2  1  0  0  0
  2  3  1  0  0  0
  3  4  1  0  0  0
  4  5  2  0  0  0
  5  6  1  0  0  0
  6  7  2  0  0  0
  7  8  1  0  0  0
  8  9  2  0  0  0
  9 10  1  0  0  0
 22 17  1  0  0  0
 10  2  1  0  0  0
  9  4  1  0  0  0
 13 14  1  0  0  0
M  END
> <minimizedAffinity>
-5.75105

> <minimizedRMSD>
0.73806

$$$$
C15024-P274


 16 16  0  0  0  0  0  0  0  0999 V2000
    8.8828   13.5445   23.7078 N   0  0  0  0  0  0  0  0  0  0  0  0
    9.8265   13.4351   24.0792 H   0  0  0  0  0  0  0  0  0  0  0  0
    8.9014   14.8477   22.6226 S   0  0  0  0  0  0  0  0  0  0  0  0
    9.0760   14.2414   21.3259 O   0  0  0  0  0  0  0  0  0  0  0  0
    7.7549   15.6782   22.9096 O   0  0  0  0  0  0  0  0  0  0  0  0
   10.3886   15.7021   23.1451 C   0  0  0  0  0  0  0  0  0  0  0  0
   12.3513   16.1161   21.6439 C   0  0  0  0  0  0  0  0  0  0  0  0
   11.6604   15.1247   22.5654 C   0  0  0  0  0  0  0  0  0  0  0  0
    7.9596   13.6647   24.8519 C   0  0  0  0  0  0  0  0  0  0  0  0
    8.6447   14.3938   26.0097 C   0  0  0  0  0  0  0  0  0  0  0  0
    7.3905   12.3521   25.3478 C   0  0  0  0  0  0  0  0  0  0  0  0
    6.3941   12.3951   26.3376 C   0  0  0  0  0  0  0  0  0  0  0  0
    5.8178   11.2287   26.8114 C   0  0  0  0  0  0  0  0  0  0  0  0
    6.2392   10.0384   26.2617 C   0  0  0  0  0  0  0  0  0  0  0  0
    7.2009    9.9382   25.3213 N   0  0  0  0  0  0  0  0  0  0  0  0
    7.7581   11.0946   24.8846 C   0  0  0  0  0  0  0  0  0  0  0  0
  7  8  1  0  0  0
  8  6  1  0  0  0
  6  3  1  0  0  0
  3  4  2  0  0  0
  3  5  2  0  0  0
  3  1  1  0  0  0
  1  9  1  0  0  0
  9 10  1  0  0  0
  9 11  1  0  0  0
 11 12  2  0  0  0
 12 13  1  0  0  0
 13 14  2  0  0  0
 14 15  1  0  0  0
 15 16  2  0  0  0
 16 11  1  0  0  0
  1  2  1  0  0  0
M  END
> <minimizedAffinity>
-5.09261

> <minimizedRMSD>
0.33886

$$$$
C15036-P274


 15 15  0  0  0  0  0  0  0  0999 V2000
    8.7758   13.6286   24.3545 S   0  0  0  0  0  0  0  0  0  0  0  0
    9.9980   13.6292   25.1229 O   0  0  0  0  0  0  0  0  0  0  0  0
    7.9492   14.8107   24.2814 O   0  0  0  0  0  0  0  0  0  0  0  0
    7.8069   12.2955   24.9289 C   0  0  0  0  0  0  0  0  0  0  0  0
    6.8697   12.4984   25.9396 C   0  0  0  0  0  0  0  0  0  0  0  0
    6.2506   11.3954   26.5116 C   0  0  0  0  0  0  0  0  0  0  0  0
    6.5850   10.1386   26.0370 C   0  0  0  0  0  0  0  0  0  0  0  0
    7.4799    9.9170   25.0487 N   0  0  0  0  0  0  0  0  0  0  0  0
    8.0850   11.0058   24.5152 C   0  0  0  0  0  0  0  0  0  0  0  0
    9.2514   13.2308   22.7830 N   0  0  0  0  0  0  0  0  0  0  0  0
   10.1876   12.8275   22.8190 H   0  0  0  0  0  0  0  0  0  0  0  0
    9.2758   14.4214   21.8551 C   0  0  0  0  0  0  0  0  0  0  0  0
   10.5606   15.2478   21.9887 C   0  0  0  0  0  0  0  0  0  0  0  0
   11.9161   15.1137   19.7609 N   0  0  0  0  0  0  0  0  0  0  0  0
   11.3328   15.1891   20.7569 C   0  0  0  0  0  0  0  0  0  0  0  0
 14 15  3  0  0  0
 15 13  1  0  0  0
 13 12  1  0  0  0
 12 10  1  0  0  0
 10  1  1  0  0  0
  1  2  2  0  0  0
  1  3  2  0  0  0
  1  4  1  0  0  0
  4  5  2  0  0  0
  5  6  1  0  0  0
  6  7  2  0  0  0
  7  8  1  0  0  0
  8  9  2  0  0  0
  9  4  1  0  0  0
 10 11  1  0  0  0
M  END
> <minimizedAffinity>
-4.60769

> <minimizedRMSD>
0.97564

$$$$
C15044-P274


 16 16  0  0  0  0  0  0  0  0999 V2000
    7.9405   13.9354   23.5651 S   0  0  0  0  0  0  0  0  0  0  0  0
    7.5736   15.1124   24.3213 O   0  0  0  0  0  0  0  0  0  0  0  0
    7.3321   13.5513   22.3104 O   0  0  0  0  0  0  0  0  0  0  0  0
    7.6677   12.5530   24.6405 C   0  0  0  0  0  0  0  0  0  0  0  0
    6.8657   12.7200   25.7567 C   0  0  0  0  0  0  0  0  0  0  0  0
    6.4710   11.5686   26.4080 C   0  0  0  0  0  0  0  0  0  0  0  0
    6.8903   10.3377   25.9076 C   0  0  0  0  0  0  0  0  0  0  0  0
    7.7179   10.2850   24.8018 C   0  0  0  0  0  0  0  0  0  0  0  0
    8.1466   11.3778   24.1560 N   0  0  0  0  0  0  0  0  0  0  0  0
    9.6105   13.9528   23.3317 N   0  0  0  0  0  0  0  0  0  0  0  0
   10.0330   13.4114   24.0859 H   0  0  0  0  0  0  0  0  0  0  0  0
   10.2601   15.2621   23.3098 C   0  0  0  0  0  0  0  0  0  0  0  0
   11.7306   15.1016   22.9481 C   0  0  0  0  0  0  0  0  0  0  0  0
   12.1985   16.0081   21.8101 C   0  0  0  0  0  0  0  0  0  0  0  0
   11.6164   15.0395   19.4405 N   0  0  0  0  0  0  0  0  0  0  0  0
   11.8642   15.4677   20.4881 C   0  0  0  0  0  0  0  0  0  0  0  0
 15 16  3  0  0  0
 16 14  1  0  0  0
 14 13  1  0  0  0
 13 12  1  0  0  0
 12 10  1  0  0  0
 10  1  1  0  0  0
  1  2  2  0  0  0
  1  3  2  0  0  0
  1  4  1  0  0  0
  4  5  2  0  0  0
  5  6  1  0  0  0
  6  7  2  0  0  0
  7  8  1  0  0  0
  8  9  2  0  0  0
  9  4  1  0  0  0
 10 11  1  0  0  0
M  END
> <minimizedAffinity>
-5.23147

> <minimizedRMSD>
1.27742

$$$$
C15048-P274


 17 17  0  0  0  0  0  0  0  0999 V2000
    9.2732   13.5839   23.8968 C   0  0  0  0  0  0  0  0  0  0  0  0
    8.7869   12.1780   24.2054 C   0  0  0  0  0  0  0  0  0  0  0  0
    9.3874   11.1026   23.5349 C   0  0  0  0  0  0  0  0  0  0  0  0
    8.9334    9.8114   23.7577 C   0  0  0  0  0  0  0  0  0  0  0  0
    7.9428    9.5068   24.6206 N   0  0  0  0  0  0  0  0  0  0  0  0
    7.3488   10.5485   25.2340 C   0  0  0  0  0  0  0  0  0  0  0  0
    7.7136   11.8772   25.0481 C   0  0  0  0  0  0  0  0  0  0  0  0
   10.1522   15.5517   25.4032 C   0  0  0  0  0  0  0  0  0  0  0  0
   10.3842   14.1743   24.8012 C   0  0  0  0  0  0  0  0  0  0  0  0
    8.1642   14.5626   23.8349 N   0  0  0  0  0  0  0  0  0  0  0  0
    8.5019   15.4512   24.2046 H   0  0  0  0  0  0  0  0  0  0  0  0
    7.5599   14.8320   22.2874 S   0  0  0  0  0  0  0  0  0  0  0  0
    8.6742   15.2848   21.4942 O   0  0  0  0  0  0  0  0  0  0  0  0
    6.7383   13.7186   21.8888 O   0  0  0  0  0  0  0  0  0  0  0  0
    6.5661   16.1294   22.6401 N   0  0  0  0  0  0  0  0  0  0  0  0
    6.8291   16.7932   23.9169 C   0  0  0  0  0  0  0  0  0  0  0  0
    5.1320   15.9571   22.3523 C   0  0  0  0  0  0  0  0  0  0  0  0
  8  9  1  0  0  0
  1  9  1  0  0  0
  1 10  1  0  0  0
 10 12  1  0  0  0
 12 13  2  0  0  0
 12 14  2  0  0  0
 12 15  1  0  0  0
 15 16  1  0  0  0
 15 17  1  0  0  0
  1  2  1  0  0  0
  2  3  2  0  0  0
  3  4  1  0  0  0
  4  5  2  0  0  0
  5  6  1  0  0  0
  6  7  2  0  0  0
  7  2  1  0  0  0
 10 11  1  0  0  0
M  END
> <minimizedAffinity>
-5.09763

> <minimizedRMSD>
1.84170

$$$$
C15065-P274


 14 14  0  0  0  0  0  0  0  0999 V2000
    8.6673   13.0448   24.3833 C   0  0  0  0  0  0  0  0  0  0  0  0
    9.5606   13.5334   25.0720 O   0  0  0  0  0  0  0  0  0  0  0  0
    7.8066   12.0168   25.0235 C   0  0  0  0  0  0  0  0  0  0  0  0
    6.9089   12.4263   26.0122 C   0  0  0  0  0  0  0  0  0  0  0  0
    6.1136   11.4859   26.6546 C   0  0  0  0  0  0  0  0  0  0  0  0
    6.2392   10.1604   26.2812 C   0  0  0  0  0  0  0  0  0  0  0  0
    7.1033    9.7210   25.3410 N   0  0  0  0  0  0  0  0  0  0  0  0
    7.8756   10.6592   24.7377 C   0  0  0  0  0  0  0  0  0  0  0  0
    8.4147   13.4344   22.9290 C   0  0  0  0  0  0  0  0  0  0  0  0
    7.0164   13.3378   22.6721 O   0  0  0  0  0  0  0  0  0  0  0  0
    6.5378   13.9490   23.2537 H   0  0  0  0  0  0  0  0  0  0  0  0
    8.9038   14.8532   22.6205 C   0  0  0  0  0  0  0  0  0  0  0  0
   10.0077   15.3512   20.5807 C   0  0  0  0  0  0  0  0  0  0  0  0
   10.1322   14.7949   21.8841 O   0  0  0  0  0  0  0  0  0  0  0  0
 13 14  1  0  0  0
 14 12  1  0  0  0
 12  9  1  0  0  0
  9 10  1  0  0  0
  9  1  1  0  0  0
  1  2  2  0  0  0
  1  3  1  0  0  0
  3  4  2  0  0  0
  4  5  1  0  0  0
  5  6  2  0  0  0
  6  7  1  0  0  0
  7  8  2  0  0  0
  8  3  1  0  0  0
 10 11  1  0  0  0
M  END
> <minimizedAffinity>
-4.87376

> <minimizedRMSD>
1.23032

$$$$
C15067-P274


 16 16  0  0  0  0  0  0  0  0999 V2000
    8.8645   13.0857   24.3975 C   0  0  0  0  0  0  0  0  0  0  0  0
    8.9997   14.1958   25.2907 O   0  0  0  0  0  0  0  0  0  0  0  0
    8.1389   14.6292   25.4005 H   0  0  0  0  0  0  0  0  0  0  0  0
    7.9449   12.0390   24.9928 C   0  0  0  0  0  0  0  0  0  0  0  0
    6.9992   12.3583   25.9773 C   0  0  0  0  0  0  0  0  0  0  0  0
    6.2004   11.3675   26.5306 C   0  0  0  0  0  0  0  0  0  0  0  0
    6.3775   10.0719   26.0913 C   0  0  0  0  0  0  0  0  0  0  0  0
    7.2868    9.7075   25.1658 N   0  0  0  0  0  0  0  0  0  0  0  0
    8.0454   10.6951   24.6331 C   0  0  0  0  0  0  0  0  0  0  0  0
    8.4012   13.6555   23.0687 C   0  0  0  0  0  0  0  0  0  0  0  0
    7.2805   13.4191   22.6021 O   0  0  0  0  0  0  0  0  0  0  0  0
    9.3008   14.6485   22.3617 C   0  0  0  0  0  0  0  0  0  0  0  0
   10.2724   15.2949   23.1564 O   0  0  0  0  0  0  0  0  0  0  0  0
   11.6069   15.0222   22.7180 C   0  0  0  0  0  0  0  0  0  0  0  0
   11.9022   15.2860   20.1887 C   0  0  0  0  0  0  0  0  0  0  0  0
   12.0988   15.9049   21.5691 C   0  0  0  0  0  0  0  0  0  0  0  0
 15 16  1  0  0  0
 16 14  1  0  0  0
 14 13  1  0  0  0
 13 12  1  0  0  0
 12 10  1  0  0  0
 10 11  2  0  0  0
 10  1  1  0  0  0
  1  2  1  0  0  0
  1  4  1  0  0  0
  4  5  2  0  0  0
  5  6  1  0  0  0
  6  7  2  0  0  0
  7  8  1  0  0  0
  8  9  2  0  0  0
  9  4  1  0  0  0
  2  3  1  0  0  0
M  END
> <minimizedAffinity>
-5.44070

> <minimizedRMSD>
0.68232

$$$$
C8155-P274


 17 17  0  0  0  0  0  0  0  0999 V2000
    7.5545   13.8655   23.2737 S   0  0  0  0  0  0  0  0  0  0  0  0
    7.0513   14.6855   24.3466 O   0  0  0  0  0  0  0  0  0  0  0  0
    6.7877   13.5377   22.0976 O   0  0  0  0  0  0  0  0  0  0  0  0
    8.0450   12.4184   23.9181 N   0  0  0  0  0  0  0  0  0  0  0  0
    7.5879   12.0833   25.2594 C   0  0  0  0  0  0  0  0  0  0  0  0
    7.3054   10.6036   25.3702 C   0  0  0  0  0  0  0  0  0  0  0  0
    8.1139    9.7114   24.4445 C   0  0  0  0  0  0  0  0  0  0  0  0
    9.3062   10.3082   23.7362 C   0  0  0  0  0  0  0  0  0  0  0  0
    9.3100   11.8121   23.5185 C   0  0  0  0  0  0  0  0  0  0  0  0
    8.9732   14.5303   22.7505 N   0  0  0  0  0  0  0  0  0  0  0  0
    9.6662   13.7836   22.6980 H   0  0  0  0  0  0  0  0  0  0  0  0
    9.5242   15.5878   23.5721 C   0  0  0  0  0  0  0  0  0  0  0  0
   11.8833   15.4445   22.4886 C   0  0  0  0  0  0  0  0  0  0  0  0
   11.0092   15.6311   23.4849 C   0  0  0  0  0  0  0  0  0  0  0  0
   11.0360   15.4864   18.7786 C   0  0  0  0  0  0  0  0  0  0  0  0
   10.9884   15.7959   20.2331 C   0  0  0  0  0  0  0  0  0  0  0  0
   11.6646   15.0634   21.1237 C   0  0  0  0  0  0  0  0  0  0  0  0
 15 16  1  0  0  0
 16 17  2  0  0  0
 17 13  1  0  0  0
 13 14  2  0  0  0
 14 12  1  0  0  0
 12 10  1  0  0  0
 10  1  1  0  0  0
  1  2  2  0  0  0
  1  3  2  0  0  0
  1  4  1  0  0  0
  4  5  1  0  0  0
  5  6  1  0  0  0
  6  7  1  0  0  0
  7  8  1  0  0  0
  8  9  1  0  0  0
  9  4  1  0  0  0
 10 11  1  0  0  0
M  END
> <minimizedAffinity>
-5.75827

> <minimizedRMSD>
0.48880

$$$$
C8176-P274


 17 17  0  0  0  0  0  0  0  0999 V2000
    9.3224   13.9411   25.0011 C   0  0  0  0  0  0  0  0  0  0  0  0
    8.8044   12.8997   24.0034 C   0  0  0  0  0  0  0  0  0  0  0  0
    9.8958   12.0359   23.6755 O   0  0  0  0  0  0  0  0  0  0  0  0
   10.6169   12.5579   23.2903 H   0  0  0  0  0  0  0  0  0  0  0  0
    7.6438   12.0569   24.6236 C   0  0  0  0  0  0  0  0  0  0  0  0
    7.0519   12.5863   25.9421 C   0  0  0  0  0  0  0  0  0  0  0  0
    5.9657   11.6652   26.4809 C   0  0  0  0  0  0  0  0  0  0  0  0
    6.3886   10.2031   26.5076 C   0  0  0  0  0  0  0  0  0  0  0  0
    6.9520    9.7429   25.2541 N   0  0  0  0  0  0  0  0  0  0  0  0
    8.0409   10.5810   24.7738 C   0  0  0  0  0  0  0  0  0  0  0  0
    6.2138    9.7351   24.5502 H   0  0  0  0  0  0  0  0  0  0  0  0
    8.2657   13.6444   22.7419 C   0  0  0  0  0  0  0  0  0  0  0  0
    7.0922   13.5267   22.3647 O   0  0  0  0  0  0  0  0  0  0  0  0
    9.2379   14.5754   22.0423 C   0  0  0  0  0  0  0  0  0  0  0  0
   10.4902   14.5368   22.5892 F   0  0  0  0  0  0  0  0  0  0  0  0
    9.3881   14.2994   20.7272 F   0  0  0  0  0  0  0  0  0  0  0  0
    8.4945   16.3595   22.2032 Br  0  0  0  0  0  0  0  0  0  0  0  0
  2  1  1  0  0  0
  2  3  1  0  0  0
  2 12  1  0  0  0
 12 13  2  0  0  0
 12 14  1  0  0  0
 14 15  1  0  0  0
 14 16  1  0  0  0
 14 17  1  0  0  0
  2  5  1  0  0  0
  5  6  1  0  0  0
  6  7  1  0  0  0
  7  8  1  0  0  0
  8  9  1  0  0  0
  9 10  1  0  0  0
 10  5  1  0  0  0
  3  4  1  0  0  0
  9 11  1  0  0  0
M  END
> <minimizedAffinity>
-5.28883

> <minimizedRMSD>
1.00051

$$$$
C10627-P252


 13 13  0  0  0  0  0  0  0  0999 V2000
    6.7544   15.5398   22.4182 C   0  0  0  0  0  0  0  0  0  0  0  0
    7.4813   14.4095   23.1038 C   0  0  0  0  0  0  0  0  0  0  0  0
    7.2448   13.2424   22.7591 O   0  0  0  0  0  0  0  0  0  0  0  0
    8.4520   14.7030   24.2626 C   0  0  0  0  0  0  0  0  0  0  0  0
    7.9459   15.7190   25.2857 C   0  0  0  0  0  0  0  0  0  0  0  0
   10.9050   15.3409   24.7105 C   0  0  0  0  0  0  0  0  0  0  0  0
    9.8145   15.1158   23.6724 C   0  0  0  0  0  0  0  0  0  0  0  0
    4.9916   15.4603   22.7925 S   0  0  0  0  0  0  0  0  0  0  0  0
    4.3906   14.9768   21.2443 C   0  0  0  0  0  0  0  0  0  0  0  0
    3.3303   15.5324   20.6943 N   0  0  0  0  0  0  0  0  0  0  0  0
    3.1978   14.8676   19.4999 C   0  0  0  0  0  0  0  0  0  0  0  0
    4.2158   13.9611   19.3532 C   0  0  0  0  0  0  0  0  0  0  0  0
    4.9906   14.0200   20.4709 O   0  0  0  0  0  0  0  0  0  0  0  0
  6  7  1  0  0  0
  7  4  1  0  0  0
  4  5  1  0  0  0
  4  2  1  0  0  0
  2  3  2  0  0  0
  2  1  1  0  0  0
  1  8  1  0  0  0
  8  9  1  0  0  0
  9 10  2  0  0  0
 10 11  1  0  0  0
 11 12  2  0  0  0
 12 13  1  0  0  0
 13  9  1  0  0  0
M  END
> <minimizedAffinity>
-3.81237

> <minimizedRMSD>
1.42324

$$$$
C8161-P228


 18 18  0  0  0  0  0  0  0  0999 V2000
    9.4311   14.3124   23.7557 C   0  0  0  0  0  0  0  0  0  0  0  0
   10.2883   13.3803   22.9022 C   0  0  0  0  0  0  0  0  0  0  0  0
    9.8197   15.7410   23.4690 N   0  0  0  0  0  0  0  0  0  0  0  0
   11.2569   16.0655   23.4959 C   0  0  0  0  0  0  0  0  0  0  0  0
   12.0174   15.6997   22.2329 C   0  0  0  0  0  0  0  0  0  0  0  0
   11.4731   16.4930   21.0692 C   0  0  0  0  0  0  0  0  0  0  0  0
    9.9727   16.3160   20.9424 C   0  0  0  0  0  0  0  0  0  0  0  0
    9.2271   16.4209   22.2887 C   0  0  0  0  0  0  0  0  0  0  0  0
    7.8791   14.0355   23.4564 C   0  0  0  0  0  0  0  0  0  0  0  0
    7.6352   13.6265   22.0974 O   0  0  0  0  0  0  0  0  0  0  0  0
    8.0317   12.7543   21.9461 H   0  0  0  0  0  0  0  0  0  0  0  0
    7.1711   12.9847   24.3687 C   0  0  0  0  0  0  0  0  0  0  0  0
    7.4445   11.6474   23.9438 O   0  0  0  0  0  0  0  0  0  0  0  0
    7.7978   10.6991   24.9347 C   0  0  0  0  0  0  0  0  0  0  0  0
    6.5877   10.2940   25.7541 C   0  0  0  0  0  0  0  0  0  0  0  0
    8.2817    9.4527   24.2625 C   0  0  0  0  0  0  0  0  0  0  0  0
    9.2860   15.1190   26.2433 C   0  0  0  0  0  0  0  0  0  0  0  0
    9.6907   14.0061   25.2707 C   0  0  0  0  0  0  0  0  0  0  0  0
 17 18  1  0  0  0
 18  1  1  0  0  0
  1  2  1  0  0  0
  1  9  1  0  0  0
  9 10  1  0  0  0
  9 12  1  0  0  0
 12 13  1  0  0  0
 13 14  1  0  0  0
 14 15  1  0  0  0
 14 16  1  0  0  0
  1  3  1  0  0  0
  3  4  1  0  0  0
  4  5  1  0  0  0
  5  6  1  0  0  0
  6  7  1  0  0  0
  7  8  1  0  0  0
  8  3  1  0  0  0
 10 11  1  0  0  0
M  END
> <minimizedAffinity>
-5.49818

> <minimizedRMSD>
1.25173

$$$$
C8176-P228


 17 17  0  0  0  0  0  0  0  0999 V2000
    7.7840   14.5322   21.6686 C   0  0  0  0  0  0  0  0  0  0  0  0
    8.6602   14.2880   22.9192 C   0  0  0  0  0  0  0  0  0  0  0  0
    8.3319   15.2770   23.9127 O   0  0  0  0  0  0  0  0  0  0  0  0
    8.5864   16.1558   23.5905 H   0  0  0  0  0  0  0  0  0  0  0  0
    8.2343   12.8885   23.4778 C   0  0  0  0  0  0  0  0  0  0  0  0
    9.3129   11.8944   23.9077 C   0  0  0  0  0  0  0  0  0  0  0  0
    8.6603   10.5639   24.2628 C   0  0  0  0  0  0  0  0  0  0  0  0
    7.5072   10.6940   25.2510 C   0  0  0  0  0  0  0  0  0  0  0  0
    6.5501   11.7425   24.9256 N   0  0  0  0  0  0  0  0  0  0  0  0
    7.2041   13.0152   24.6242 C   0  0  0  0  0  0  0  0  0  0  0  0
    5.9252   11.8748   25.7208 H   0  0  0  0  0  0  0  0  0  0  0  0
   10.1637   14.5484   22.6155 C   0  0  0  0  0  0  0  0  0  0  0  0
   10.9965   13.6394   22.5211 O   0  0  0  0  0  0  0  0  0  0  0  0
   10.5976   16.0119   22.6027 C   0  0  0  0  0  0  0  0  0  0  0  0
   10.8893   16.4533   23.8594 F   0  0  0  0  0  0  0  0  0  0  0  0
    9.6437   16.8610   22.1371 F   0  0  0  0  0  0  0  0  0  0  0  0
   12.1483   16.2130   21.4742 Br  0  0  0  0  0  0  0  0  0  0  0  0
  2  1  1  0  0  0
  2  3  1  0  0  0
  2 12  1  0  0  0
 12 13  2  0  0  0
 12 14  1  0  0  0
 14 15  1  0  0  0
 14 16  1  0  0  0
 14 17  1  0  0  0
  2  5  1  0  0  0
  5  6  1  0  0  0
  6  7  1  0  0  0
  7  8  1  0  0  0
  8  9  1  0  0  0
  9 10  1  0  0  0
 10  5  1  0  0  0
  3  4  1  0  0  0
  9 11  1  0  0  0
M  END
> <minimizedAffinity>
-5.23636

> <minimizedRMSD>
1.30064

$$$$
C7073-P183


 21 21  0  0  0  0  0  0  0  0999 V2000
    8.4743   13.1249   22.9901 C   0  0  0  0  0  0  0  0  0  0  0  0
    9.3497   15.1337   21.4250 C   0  0  0  0  0  0  0  0  0  0  0  0
    8.4990   15.9254   21.3928 O   0  0  0  0  0  0  0  0  0  0  0  0
    9.4090   13.7661   22.1163 N   0  0  0  0  0  0  0  0  0  0  0  0
   10.2223   13.2442   21.9283 H   0  0  0  0  0  0  0  0  0  0  0  0
   11.9731   15.1080   21.5202 C   0  0  0  0  0  0  0  0  0  0  0  0
   10.6821   15.4673   20.7904 C   0  0  0  0  0  0  0  0  0  0  0  0
   10.7136   15.1997   19.3088 C   0  0  0  0  0  0  0  0  0  0  0  0
   11.8845   14.6605   18.9138 F   0  0  0  0  0  0  0  0  0  0  0  0
   10.5858   16.3396   18.6115 F   0  0  0  0  0  0  0  0  0  0  0  0
    9.7070   14.4136   18.8944 F   0  0  0  0  0  0  0  0  0  0  0  0
    9.1048   12.4108   24.2024 C   0  0  0  0  0  0  0  0  0  0  0  0
   10.3066   13.2461   24.7048 C   0  0  0  0  0  0  0  0  0  0  0  0
    9.6903   11.0580   23.7426 C   0  0  0  0  0  0  0  0  0  0  0  0
    8.0697   12.3045   25.4128 C   0  0  0  0  0  0  0  0  0  0  0  0
    7.3944   10.9353   25.5824 C   0  0  0  0  0  0  0  0  0  0  0  0
    6.4415   10.8840   26.7770 C   0  0  0  0  0  0  0  0  0  0  0  0
    5.4477   11.9442   26.7514 N   0  0  0  0  0  0  0  0  0  0  0  0
    6.0872   13.2584   26.7237 C   0  0  0  0  0  0  0  0  0  0  0  0
    7.0348   13.4426   25.5373 C   0  0  0  0  0  0  0  0  0  0  0  0
    4.8636   11.8745   27.5847 H   0  0  0  0  0  0  0  0  0  0  0  0
  7  6  1  0  0  0
  7  2  1  0  0  0
  2  3  2  0  0  0
  2  4  1  0  0  0
  4  1  1  0  0  0
  1 12  1  0  0  0
 12 13  1  0  0  0
 12 14  1  0  0  0
 12 15  1  0  0  0
 15 16  1  0  0  0
 16 17  1  0  0  0
 17 18  1  0  0  0
 18 19  1  0  0  0
 19 20  1  0  0  0
  7  8  1  0  0  0
  8  9  1  0  0  0
  8 10  1  0  0  0
  8 11  1  0  0  0
 20 15  1  0  0  0
  4  5  1  0  0  0
 18 21  1  0  0  0
M  END
> <minimizedAffinity>
-5.97589

> <minimizedRMSD>
0.70476

$$$$
C994-P158


 25 28  0  0  0  0  0  0  0  0999 V2000
   20.5672   13.0780    3.5527 O   0  0  0  0  0  0  0  0  0  0  0  0
   21.1632   13.9206    3.0069 C   0  0  0  0  0  0  0  0  0  0  0  0
   22.6828   14.2106    2.9693 N   0  0  0  0  0  0  0  0  0  0  0  0
   22.9333   15.0357    2.4942 H   0  0  0  0  0  0  0  0  0  0  0  0
   20.4865   14.9388    2.0770 C   0  0  0  0  0  0  0  0  0  0  0  0
   19.7358   16.0350    2.7978 C   0  0  0  0  0  0  0  0  0  0  0  0
   18.5165   15.7678    3.4202 C   0  0  0  0  0  0  0  0  0  0  0  0
   17.8580   16.7632    4.1489 C   0  0  0  0  0  0  0  0  0  0  0  0
   18.3690   18.0691    4.2701 C   0  0  0  0  0  0  0  0  0  0  0  0
   19.5835   18.3194    3.6036 C   0  0  0  0  0  0  0  0  0  0  0  0
   20.2565   17.3291    2.8795 C   0  0  0  0  0  0  0  0  0  0  0  0
   17.6045   19.1770    5.1111 C   0  0  0  0  0  0  0  0  0  0  0  0
   18.2860   19.7633    6.3808 C   0  0  0  0  0  0  0  0  0  0  0  0
   17.5972   21.1019    6.0474 C   0  0  0  0  0  0  0  0  0  0  0  0
   17.5630   20.6376    4.5774 C   0  0  0  0  0  0  0  0  0  0  0  0
   23.7856   13.4729    3.5139 C   0  0  0  0  0  0  0  0  0  0  0  0
   24.4109   12.7294    2.3922 C   0  0  0  0  0  0  0  0  0  0  0  0
   23.9951   12.6871    1.1377 N   0  0  0  0  0  0  0  0  0  0  0  0
   24.8467   11.8798    0.4254 N   0  0  0  0  0  0  0  0  0  0  0  0
   25.7776   11.4571    1.2501 C   0  0  0  0  0  0  0  0  0  0  0  0
   25.5487   11.9806    2.4936 N   0  0  0  0  0  0  0  0  0  0  0  0
   26.4453   11.8464    3.6202 C   0  0  0  0  0  0  0  0  0  0  0  0
   27.5126   10.7699    3.4065 C   0  0  0  0  0  0  0  0  0  0  0  0
   28.0516   10.7838    1.9736 C   0  0  0  0  0  0  0  0  0  0  0  0
   26.9228   10.5599    0.9656 C   0  0  0  0  0  0  0  0  0  0  0  0
  1  2  2  0  0  0
  2  5  1  0  0  0
  5  6  1  0  0  0
  6  7  2  0  0  0
  7  8  1  0  0  0
  8  9  2  0  0  0
  9 12  1  0  0  0
 12 13  1  0  0  0
 13 14  1  0  0  0
 14 15  1  0  0  0
  9 10  1  0  0  0
 10 11  2  0  0  0
  2  3  1  0  0  0
  3 16  1  0  0  0
 16 17  1  0  0  0
 17 18  2  0  0  0
 18 19  1  0  0  0
 19 20  2  0  0  0
 20 21  1  0  0  0
 21 22  1  0  0  0
 22 23  1  0  0  0
 23 24  1  0  0  0
 24 25  1  0  0  0
 11  6  1  0  0  0
 21 17  1  0  0  0
 15 12  1  0  0  0
 25 20  1  0  0  0
  3  4  1  0  0  0
M  END
> <minimizedAffinity>
-4.94415

> <minimizedRMSD>
1.96603

$$$$
C9394-P277


 14 14  0  0  0  0  0  0  0  0999 V2000
    9.6358   13.4670   24.1029 C   0  0  0  0  0  0  0  0  0  0  0  0
   10.7268   12.6774   24.6030 O   0  0  0  0  0  0  0  0  0  0  0  0
   10.7812   11.8477   24.1034 H   0  0  0  0  0  0  0  0  0  0  0  0
    8.3764   12.6176   24.2545 C   0  0  0  0  0  0  0  0  0  0  0  0
    8.6663   11.5861   25.2037 O   0  0  0  0  0  0  0  0  0  0  0  0
    8.1981   10.3057   24.8003 C   0  0  0  0  0  0  0  0  0  0  0  0
    6.5012   10.3719   26.7014 C   0  0  0  0  0  0  0  0  0  0  0  0
    7.0319    9.8188   25.6031 C   0  0  0  0  0  0  0  0  0  0  0  0
    9.8523   13.8045   22.6178 C   0  0  0  0  0  0  0  0  0  0  0  0
   10.4784   15.0998   22.3258 N   0  0  0  0  0  0  0  0  0  0  0  0
   11.9416   15.0619   22.2912 C   0  0  0  0  0  0  0  0  0  0  0  0
   12.3092   16.3285   21.5358 C   0  0  0  0  0  0  0  0  0  0  0  0
   11.0874   16.6748   20.7067 C   0  0  0  0  0  0  0  0  0  0  0  0
   10.1020   15.5560   20.9777 C   0  0  0  0  0  0  0  0  0  0  0  0
  7  8  2  0  0  0
  8  6  1  0  0  0
  6  5  1  0  0  0
  5  4  1  0  0  0
  4  1  1  0  0  0
  1  2  1  0  0  0
  1  9  1  0  0  0
  9 10  1  0  0  0
 10 11  1  0  0  0
 11 12  1  0  0  0
 12 13  1  0  0  0
 13 14  1  0  0  0
 14 10  1  0  0  0
  2  3  1  0  0  0
M  END
> <minimizedAffinity>
-4.41160

> <minimizedRMSD>
1.22213

$$$$
C7646-P437


 15 16  0  0  0  0  0  0  0  0999 V2000
    8.0463   13.8869   25.1273 C   0  0  0  0  0  0  0  0  0  0  0  0
    6.7793   14.4854   24.5292 C   0  0  0  0  0  0  0  0  0  0  0  0
    5.6383   16.0369   22.7529 N   0  0  0  0  0  0  0  0  0  0  0  0
    6.9217   14.9501   22.8061 S   0  0  0  0  0  0  0  0  0  0  0  0
    8.1103   15.7425   22.5995 O   0  0  0  0  0  0  0  0  0  0  0  0
    6.5324   13.8929   21.9006 O   0  0  0  0  0  0  0  0  0  0  0  0
    5.5580   16.4224   21.8120 H   0  0  0  0  0  0  0  0  0  0  0  0
    5.8053   16.7930   23.4169 H   0  0  0  0  0  0  0  0  0  0  0  0
    7.8875   12.4135   25.4969 C   0  0  0  0  0  0  0  0  0  0  0  0
    7.6351   11.5966   24.3214 N   0  0  0  0  0  0  0  0  0  0  0  0
    7.3023   10.2022   24.6728 C   0  0  0  0  0  0  0  0  0  0  0  0
    8.6093    9.4944   24.6566 C   0  0  0  0  0  0  0  0  0  0  0  0
    9.2273    8.9594   23.3981 C   0  0  0  0  0  0  0  0  0  0  0  0
    9.5616   10.3409   23.8958 C   0  0  0  0  0  0  0  0  0  0  0  0
    8.8125   11.5489   23.4244 C   0  0  0  0  0  0  0  0  0  0  0  0
  3  4  1  0  0  0
  4  5  2  0  0  0
  4  6  2  0  0  0
  4  2  1  0  0  0
  2  1  1  0  0  0
  1  9  1  0  0  0
  9 10  1  0  0  0
 10 11  1  0  0  0
 12 11  1  0  0  0
 12 13  1  0  0  0
 14 13  1  0  0  0
 14 15  1  0  0  0
 15 10  1  0  0  0
 14 12  1  0  0  0
  3  7  1  0  0  0
  3  8  1  0  0  0
M  END
> <minimizedAffinity>
-4.12835

> <minimizedRMSD>
0.54966

$$$$
C4791-P317


 10 11  0  0  0  0  0  0  0  0999 V2000
    9.0834   11.3708   24.3881 C   0  0  0  0  0  0  0  0  0  0  0  0
    8.0484   11.4893   25.3285 C   0  0  0  0  0  0  0  0  0  0  0  0
    7.5687   10.2082   25.4691 C   0  0  0  0  0  0  0  0  0  0  0  0
    8.3302    9.4232   24.6463 N   0  0  0  0  0  0  0  0  0  0  0  0
    9.2500   10.1200   23.9663 N   0  0  0  0  0  0  0  0  0  0  0  0
    8.2141    8.4491   24.5630 H   0  0  0  0  0  0  0  0  0  0  0  0
   11.1253   13.0722   24.2049 C   0  0  0  0  0  0  0  0  0  0  0  0
    9.9470   12.5240   23.8543 C   0  0  0  0  0  0  0  0  0  0  0  0
    9.7100   13.5076   22.7301 C   0  0  0  0  0  0  0  0  0  0  0  0
   11.0928   14.0865   23.0823 C   0  0  0  0  0  0  0  0  0  0  0  0
  7  8  2  0  0  0
  8  1  1  0  0  0
  1  2  1  0  0  0
  2  3  2  0  0  0
  3  4  1  0  0  0
  4  5  1  0  0  0
  8  9  1  0  0  0
  9 10  1  0  0  0
 10  7  1  0  0  0
  5  1  2  0  0  0
  4  6  1  0  0  0
M  END
> <minimizedAffinity>
-4.03724

> <minimizedRMSD>
1.49733

$$$$
C4142-P136


 22 24  0  0  0  0  0  0  0  0999 V2000
   11.8938   14.3421   23.1346 N   0  0  0  0  0  0  0  0  0  0  0  0
   12.1809   15.2564   23.4839 H   0  0  0  0  0  0  0  0  0  0  0  0
   10.4430   14.1878   23.4110 C   0  0  0  0  0  0  0  0  0  0  0  0
    9.6931   13.0627   22.7037 C   0  0  0  0  0  0  0  0  0  0  0  0
    9.7577   11.7152   23.3976 C   0  0  0  0  0  0  0  0  0  0  0  0
    8.7041   11.5242   24.4689 C   0  0  0  0  0  0  0  0  0  0  0  0
    8.1601   10.2342   24.6010 C   0  0  0  0  0  0  0  0  0  0  0  0
    7.1385    9.9733   25.5106 C   0  0  0  0  0  0  0  0  0  0  0  0
    6.6378   10.9890   26.3084 C   0  0  0  0  0  0  0  0  0  0  0  0
    7.1863   12.2637   26.2156 C   0  0  0  0  0  0  0  0  0  0  0  0
    8.2436   12.5448   25.3253 C   0  0  0  0  0  0  0  0  0  0  0  0
    8.7842   13.9590   25.3381 C   0  0  0  0  0  0  0  0  0  0  0  0
   10.2545   14.1186   24.9363 C   0  0  0  0  0  0  0  0  0  0  0  0
   12.3077   14.2518   21.7099 C   0  0  0  0  0  0  0  0  0  0  0  0
   10.0841   16.5692   20.2710 C   0  0  0  0  0  0  0  0  0  0  0  0
   10.4645   16.1030   19.1016 N   0  0  0  0  0  0  0  0  0  0  0  0
   11.4555   15.2213   19.4174 C   0  0  0  0  0  0  0  0  0  0  0  0
   11.5771   15.1318   20.7822 C   0  0  0  0  0  0  0  0  0  0  0  0
   10.7538   16.0626   21.3316 O   0  0  0  0  0  0  0  0  0  0  0  0
    9.0219   17.5383   20.5821 C   0  0  0  0  0  0  0  0  0  0  0  0
    8.1995   19.3552   19.0391 C   0  0  0  0  0  0  0  0  0  0  0  0
    9.3263   18.8093   19.8408 C   0  0  0  0  0  0  0  0  0  0  0  0
 21 22  1  0  0  0
 22 20  1  0  0  0
 20 15  1  0  0  0
 15 16  2  0  0  0
 16 17  1  0  0  0
 17 18  2  0  0  0
 18 14  1  0  0  0
 14  1  1  0  0  0
  1  3  1  0  0  0
  3  4  1  0  0  0
  4  5  1  0  0  0
  5  6  1  0  0  0
  6  7  2  0  0  0
  7  8  1  0  0  0
  8  9  2  0  0  0
  9 10  1  0  0  0
 10 11  2  0  0  0
 11 12  1  0  0  0
 12 13  1  0  0  0
 18 19  1  0  0  0
 19 15  1  0  0  0
 13  3  1  0  0  0
 11  6  1  0  0  0
  1  2  1  0  0  0
M  END
> <minimizedAffinity>
-6.86190

> <minimizedRMSD>
0.28009

$$$$
C7479-P173


 24 25  0  0  0  0  0  0  0  0999 V2000
    6.8370   14.9197   22.4475 S   0  0  0  0  0  0  0  0  0  0  0  0
    6.6626   13.5716   21.9297 O   0  0  0  0  0  0  0  0  0  0  0  0
    7.8624   15.6945   21.7808 O   0  0  0  0  0  0  0  0  0  0  0  0
    6.6687   15.0567   23.9641 N   0  0  0  0  0  0  0  0  0  0  0  0
    7.9963   14.8122   24.7045 S   0  0  0  0  0  0  0  0  0  0  0  0
    7.6671   15.2373   26.4029 C   0  0  0  0  0  0  0  0  0  0  0  0
    9.2390   15.4843   24.3858 O   0  0  0  0  0  0  0  0  0  0  0  0
    8.3946   13.0472   24.8227 C   0  0  0  0  0  0  0  0  0  0  0  0
    9.3230   12.6122   23.6951 C   0  0  0  0  0  0  0  0  0  0  0  0
    9.5961   11.1162   23.5868 C   0  0  0  0  0  0  0  0  0  0  0  0
    8.5512   10.1548   24.1199 C   0  0  0  0  0  0  0  0  0  0  0  0
    7.5333   10.6968   25.1070 C   0  0  0  0  0  0  0  0  0  0  0  0
    7.1674   12.1600   24.9429 C   0  0  0  0  0  0  0  0  0  0  0  0
    5.4480   15.7054   21.9566 N   0  0  0  0  0  0  0  0  0  0  0  0
    5.4624   16.6341   22.3780 H   0  0  0  0  0  0  0  0  0  0  0  0
    4.1620   15.1074   22.2792 C   0  0  0  0  0  0  0  0  0  0  0  0
    3.2375   14.4513   19.9190 C   0  0  0  0  0  0  0  0  0  0  0  0
    2.1400   14.8283   19.1996 O   0  0  0  0  0  0  0  0  0  0  0  0
    1.5976   15.8304   19.9211 C   0  0  0  0  0  0  0  0  0  0  0  0
    2.2297   16.1232   21.0377 N   0  0  0  0  0  0  0  0  0  0  0  0
    3.2628   15.1996   21.0841 C   0  0  0  0  0  0  0  0  0  0  0  0
    4.1303   13.5166   17.7966 C   0  0  0  0  0  0  0  0  0  0  0  0
    4.0577   13.3770   19.3167 C   0  0  0  0  0  0  0  0  0  0  0  0
    3.5104   12.0015   19.6952 C   0  0  0  0  0  0  0  0  0  0  0  0
 22 23  1  0  0  0
 23 24  1  0  0  0
 23 17  1  0  0  0
 17 18  1  0  0  0
 18 19  1  0  0  0
 19 20  2  0  0  0
 20 21  1  0  0  0
 21 16  1  0  0  0
 16 14  1  0  0  0
 14  1  1  0  0  0
  1  2  2  0  0  0
  1  3  2  0  0  0
  1  4  1  0  0  0
  4  5  2  0  0  0
  5  6  1  0  0  0
  5  7  2  0  0  0
  5  8  1  0  0  0
  8  9  1  0  0  0
  9 10  1  0  0  0
 10 11  1  0  0  0
 11 12  1  0  0  0
 12 13  1  0  0  0
 21 17  2  0  0  0
 13  8  1  0  0  0
 14 15  1  0  0  0
M  END
> <minimizedAffinity>
-5.79773

> <minimizedRMSD>
0.60319

$$$$
C1392-P283


 19 19  0  0  0  0  0  0  0  0999 V2000
    9.6977   11.7926   23.4183 C   0  0  0  0  0  0  0  0  0  0  0  0
    8.7566   12.7954   24.1114 C   0  0  0  0  0  0  0  0  0  0  0  0
    9.5677   13.5751   25.1644 C   0  0  0  0  0  0  0  0  0  0  0  0
    7.5303   12.0675   24.7937 C   0  0  0  0  0  0  0  0  0  0  0  0
    6.8788   12.8866   25.9274 C   0  0  0  0  0  0  0  0  0  0  0  0
    5.6407   12.1856   26.4790 C   0  0  0  0  0  0  0  0  0  0  0  0
    5.8971   10.7203   26.8017 C   0  0  0  0  0  0  0  0  0  0  0  0
    6.5383   10.0044   25.7094 N   0  0  0  0  0  0  0  0  0  0  0  0
    7.7758   10.6270   25.2527 C   0  0  0  0  0  0  0  0  0  0  0  0
    5.8884    9.9641   24.9243 H   0  0  0  0  0  0  0  0  0  0  0  0
    8.1777   13.7216   22.9745 C   0  0  0  0  0  0  0  0  0  0  0  0
    7.1655   13.4652   22.4580 O   0  0  0  0  0  0  0  0  0  0  0  0
    9.1685   14.8707   22.7122 N   0  0  0  0  0  0  0  0  0  0  0  0
   10.0000   14.8258   23.2374 H   0  0  0  0  0  0  0  0  0  0  0  0
    9.0767   16.0036   21.8213 C   0  0  0  0  0  0  0  0  0  0  0  0
   10.2201   16.1984   20.8441 C   0  0  0  0  0  0  0  0  0  0  0  0
   11.3788   16.4592   21.4941 F   0  0  0  0  0  0  0  0  0  0  0  0
   10.4075   15.1383   20.0412 F   0  0  0  0  0  0  0  0  0  0  0  0
    9.9294   17.2609   20.0651 F   0  0  0  0  0  0  0  0  0  0  0  0
  1  2  1  0  0  0
  2  3  1  0  0  0
  2 11  1  0  0  0
 11 12  2  0  0  0
 11 13  1  0  0  0
 13 15  1  0  0  0
 15 16  1  0  0  0
 16 17  1  0  0  0
 16 18  1  0  0  0
 16 19  1  0  0  0
  4  2  1  0  0  0
  4  5  1  0  0  0
  5  6  1  0  0  0
  6  7  1  0  0  0
  7  8  1  0  0  0
  8  9  1  0  0  0
  9  4  1  0  0  0
 13 14  1  0  0  0
  8 10  1  0  0  0
M  END
> <minimizedAffinity>
-5.79374

> <minimizedRMSD>
0.43210

$$$$
C4093-P283


 12 13  0  0  0  0  0  0  0  0999 V2000
    8.9596    9.2960   23.9307 C   0  0  0  0  0  0  0  0  0  0  0  0
    9.5807   10.5104   24.0491 C   0  0  0  0  0  0  0  0  0  0  0  0
    8.7503   11.2437   24.8484 N   0  0  0  0  0  0  0  0  0  0  0  0
    7.6616   10.4745   25.1834 C   0  0  0  0  0  0  0  0  0  0  0  0
    7.7855    9.2810   24.6460 N   0  0  0  0  0  0  0  0  0  0  0  0
    8.9062   12.1718   25.1373 H   0  0  0  0  0  0  0  0  0  0  0  0
    6.6424   10.9261   25.9621 N   0  0  0  0  0  0  0  0  0  0  0  0
    5.5957    9.9454   26.2994 C   0  0  0  0  0  0  0  0  0  0  0  0
    4.3485   10.6095   26.8804 C   0  0  0  0  0  0  0  0  0  0  0  0
    4.7120   11.6166   27.9614 C   0  0  0  0  0  0  0  0  0  0  0  0
    5.7603   12.6223   27.4837 C   0  0  0  0  0  0  0  0  0  0  0  0
    6.2927   12.3345   26.0778 C   0  0  0  0  0  0  0  0  0  0  0  0
  1  2  2  0  0  0
  2  3  1  0  0  0
  3  4  1  0  0  0
  4  7  1  0  0  0
  7  8  1  0  0  0
  8  9  1  0  0  0
  9 10  1  0  0  0
 10 11  1  0  0  0
 11 12  1  0  0  0
  4  5  2  0  0  0
  5  1  1  0  0  0
 12  7  1  0  0  0
  3  6  1  0  0  0
M  END
> <minimizedAffinity>
-4.09997

> <minimizedRMSD>
0.72240

$$$$
C7139-P305


 24 25  0  0  0  0  0  0  0  0999 V2000
    6.2668   10.7712   26.5462 C   0  0  0  0  0  0  0  0  0  0  0  0
    7.3174   10.5484   25.7030 C   0  0  0  0  0  0  0  0  0  0  0  0
    7.5846   11.8167   25.1282 C   0  0  0  0  0  0  0  0  0  0  0  0
    6.7700   12.7600   25.6167 N   0  0  0  0  0  0  0  0  0  0  0  0
    5.9783   12.1020   26.4644 N   0  0  0  0  0  0  0  0  0  0  0  0
    5.2583   12.5332   26.9792 H   0  0  0  0  0  0  0  0  0  0  0  0
    8.5927   12.2286   24.0942 C   0  0  0  0  0  0  0  0  0  0  0  0
    9.5993   11.1369   23.7217 C   0  0  0  0  0  0  0  0  0  0  0  0
   10.5669   10.8681   24.8485 C   0  0  0  0  0  0  0  0  0  0  0  0
   11.1658   12.0703   25.4283 N   0  0  0  0  0  0  0  0  0  0  0  0
   10.2233   13.1712   25.6864 C   0  0  0  0  0  0  0  0  0  0  0  0
    9.3439   13.4952   24.4988 C   0  0  0  0  0  0  0  0  0  0  0  0
   11.8806   12.4098   24.7848 H   0  0  0  0  0  0  0  0  0  0  0  0
    5.0450   10.1474   28.7929 C   0  0  0  0  0  0  0  0  0  0  0  0
    5.2676   10.9955   29.5585 O   0  0  0  0  0  0  0  0  0  0  0  0
    5.5318    9.9591   27.3365 N   0  0  0  0  0  0  0  0  0  0  0  0
    5.2622    9.1098   26.9180 H   0  0  0  0  0  0  0  0  0  0  0  0
    4.0713    9.0077   29.0503 C   0  0  0  0  0  0  0  0  0  0  0  0
    2.2171   10.6548   28.2724 C   0  0  0  0  0  0  0  0  0  0  0  0
    2.5751    9.3251   28.9368 C   0  0  0  0  0  0  0  0  0  0  0  0
    1.9203    8.2051   28.1447 C   0  0  0  0  0  0  0  0  0  0  0  0
    0.5984    8.4177   27.9995 F   0  0  0  0  0  0  0  0  0  0  0  0
    2.0814    7.0151   28.7637 F   0  0  0  0  0  0  0  0  0  0  0  0
    2.4716    8.0947   26.9154 F   0  0  0  0  0  0  0  0  0  0  0  0
 20 19  1  0  0  0
 20 18  1  0  0  0
 18 14  1  0  0  0
 14 15  2  0  0  0
 14 16  1  0  0  0
 16  1  1  0  0  0
  1  2  2  0  0  0
  2  3  1  0  0  0
  3  7  1  0  0  0
  7  8  1  0  0  0
  8  9  1  0  0  0
  9 10  1  0  0  0
 10 11  1  0  0  0
 11 12  1  0  0  0
  3  4  2  0  0  0
  4  5  1  0  0  0
 20 21  1  0  0  0
 21 22  1  0  0  0
 21 23  1  0  0  0
 21 24  1  0  0  0
  5  1  1  0  0  0
 12  7  1  0  0  0
 16 17  1  0  0  0
 10 13  1  0  0  0
  5  6  1  0  0  0
M  END
> <minimizedAffinity>
-4.81242

> <minimizedRMSD>
1.99729

$$$$
C38611-P550


 13 13  0  0  0  0  0  0  0  0999 V2000
    9.7964   14.9681   22.5843 N   0  0  0  0  0  0  0  0  0  0  0  0
   10.1369   15.2090   21.1826 C   0  0  0  0  0  0  0  0  0  0  0  0
   11.6276   15.2581   20.8915 C   0  0  0  0  0  0  0  0  0  0  0  0
   12.3405   16.0782   21.9461 C   0  0  0  0  0  0  0  0  0  0  0  0
   12.1110   15.4374   23.2989 C   0  0  0  0  0  0  0  0  0  0  0  0
   10.6499   15.2455   23.6380 C   0  0  0  0  0  0  0  0  0  0  0  0
   10.2758   15.2406   24.8136 O   0  0  0  0  0  0  0  0  0  0  0  0
    8.4437   14.5094   22.8927 C   0  0  0  0  0  0  0  0  0  0  0  0
    8.4774   13.0463   23.3541 C   0  0  0  0  0  0  0  0  0  0  0  0
    9.2907   12.2346   22.9004 O   0  0  0  0  0  0  0  0  0  0  0  0
    7.1835   13.4762   25.5485 C   0  0  0  0  0  0  0  0  0  0  0  0
    7.4026   12.5777   24.3401 C   0  0  0  0  0  0  0  0  0  0  0  0
    7.7068   11.1519   24.7917 C   0  0  0  0  0  0  0  0  0  0  0  0
 11 12  1  0  0  0
 12 13  1  0  0  0
 12  9  1  0  0  0
  9 10  2  0  0  0
  9  8  1  0  0  0
  8  1  1  0  0  0
  1  2  1  0  0  0
  2  3  1  0  0  0
  3  4  1  0  0  0
  4  5  1  0  0  0
  5  6  1  0  0  0
  6  7  2  0  0  0
  6  1  1  0  0  0
M  END
> <minimizedAffinity>
-5.14709

> <minimizedRMSD>
0.91000

$$$$
C38614-P550


 14 14  0  0  0  0  0  0  0  0999 V2000
    8.8229   13.8604   24.5149 C   0  0  0  0  0  0  0  0  0  0  0  0
    7.7097   13.7607   25.5645 C   0  0  0  0  0  0  0  0  0  0  0  0
    6.7128   12.7017   25.1566 C   0  0  0  0  0  0  0  0  0  0  0  0
    7.3968   11.3687   24.9650 C   0  0  0  0  0  0  0  0  0  0  0  0
    8.5266   11.4537   24.0803 N   0  0  0  0  0  0  0  0  0  0  0  0
    9.4227   12.4884   24.1912 C   0  0  0  0  0  0  0  0  0  0  0  0
   10.6087   12.2710   23.9699 O   0  0  0  0  0  0  0  0  0  0  0  0
    8.6589   10.7649   23.3894 H   0  0  0  0  0  0  0  0  0  0  0  0
    9.8500   14.8771   25.0134 C   0  0  0  0  0  0  0  0  0  0  0  0
   10.7403   15.4563   23.9306 C   0  0  0  0  0  0  0  0  0  0  0  0
   10.0466   15.5224   22.6941 O   0  0  0  0  0  0  0  0  0  0  0  0
   10.2644   16.2754   20.4414 C   0  0  0  0  0  0  0  0  0  0  0  0
   10.9307   15.4907   21.5630 C   0  0  0  0  0  0  0  0  0  0  0  0
   12.3066   16.0755   21.8634 C   0  0  0  0  0  0  0  0  0  0  0  0
 12 13  1  0  0  0
 13 14  1  0  0  0
 13 11  1  0  0  0
 11 10  1  0  0  0
 10  9  1  0  0  0
  1  9  1  0  0  0
  1  2  1  0  0  0
  2  3  1  0  0  0
  3  4  1  0  0  0
  4  5  1  0  0  0
  5  6  1  0  0  0
  6  7  2  0  0  0
  6  1  1  0  0  0
  5  8  1  0  0  0
M  END
> <minimizedAffinity>
-4.45600

> <minimizedRMSD>
0.61699

$$$$
C38621-P550


 13 13  0  0  0  0  0  0  0  0999 V2000
    8.8154   13.9393   23.9822 C   0  0  0  0  0  0  0  0  0  0  0  0
    7.6968   13.9668   25.0272 C   0  0  0  0  0  0  0  0  0  0  0  0
    6.7894   12.7713   24.8217 C   0  0  0  0  0  0  0  0  0  0  0  0
    7.5719   11.4773   24.8720 C   0  0  0  0  0  0  0  0  0  0  0  0
    8.7491   11.4964   24.0426 N   0  0  0  0  0  0  0  0  0  0  0  0
    9.5636   12.6094   24.0236 C   0  0  0  0  0  0  0  0  0  0  0  0
   10.7785   12.4663   23.9780 O   0  0  0  0  0  0  0  0  0  0  0  0
    8.9728   10.7141   23.4884 H   0  0  0  0  0  0  0  0  0  0  0  0
    9.7200   15.1513   24.1767 C   0  0  0  0  0  0  0  0  0  0  0  0
   10.5113   15.4835   23.0476 O   0  0  0  0  0  0  0  0  0  0  0  0
    9.7971   15.6432   21.8254 C   0  0  0  0  0  0  0  0  0  0  0  0
   10.1821   15.6788   19.3346 C   0  0  0  0  0  0  0  0  0  0  0  0
   10.8267   15.7181   20.7059 C   0  0  0  0  0  0  0  0  0  0  0  0
 12 13  1  0  0  0
 13 11  1  0  0  0
 11 10  1  0  0  0
 10  9  1  0  0  0
  1  9  1  0  0  0
  1  2  1  0  0  0
  2  3  1  0  0  0
  3  4  1  0  0  0
  4  5  1  0  0  0
  5  6  1  0  0  0
  6  7  2  0  0  0
  6  1  1  0  0  0
  5  8  1  0  0  0
M  END
> <minimizedAffinity>
-4.04570

> <minimizedRMSD>
0.53557

$$$$
C2408-P441


 15 15  0  0  0  0  0  0  0  0999 V2000
    8.7648   13.2470   23.7597 C   0  0  0  0  0  0  0  0  0  0  0  0
    7.2634   13.2441   23.4464 C   0  0  0  0  0  0  0  0  0  0  0  0
    9.4403   11.8775   23.5185 C   0  0  0  0  0  0  0  0  0  0  0  0
    9.4887   14.1556   22.8457 N   0  0  0  0  0  0  0  0  0  0  0  0
   10.7663   14.6935   23.2828 C   0  0  0  0  0  0  0  0  0  0  0  0
   11.6863   14.9207   22.1000 C   0  0  0  0  0  0  0  0  0  0  0  0
   11.0521   15.8050   21.0477 C   0  0  0  0  0  0  0  0  0  0  0  0
    9.7032   15.2493   20.6335 C   0  0  0  0  0  0  0  0  0  0  0  0
    8.8058   14.9628   21.8383 C   0  0  0  0  0  0  0  0  0  0  0  0
    8.9498   13.5470   25.2885 C   0  0  0  0  0  0  0  0  0  0  0  0
    9.8780   13.0793   25.9574 O   0  0  0  0  0  0  0  0  0  0  0  0
    7.8346   14.3239   26.0246 C   0  0  0  0  0  0  0  0  0  0  0  0
    7.0316   13.3606   26.9028 C   0  0  0  0  0  0  0  0  0  0  0  0
    7.3481   16.5034   27.2434 C   0  0  0  0  0  0  0  0  0  0  0  0
    8.4122   15.4888   26.8424 C   0  0  0  0  0  0  0  0  0  0  0  0
 14 15  1  0  0  0
 15 12  1  0  0  0
 12 13  1  0  0  0
 12 10  1  0  0  0
 10 11  2  0  0  0
 10  1  1  0  0  0
  1  2  1  0  0  0
  1  3  1  0  0  0
  1  4  1  0  0  0
  4  5  1  0  0  0
  5  6  1  0  0  0
  6  7  1  0  0  0
  7  8  1  0  0  0
  8  9  1  0  0  0
  9  4  1  0  0  0
M  END
> <minimizedAffinity>
-4.63263

> <minimizedRMSD>
1.38859

$$$$
C35850-P200


 12 12  0  0  0  0  0  0  0  0999 V2000
   10.0918   13.1993   22.4456 N   0  0  0  0  0  0  0  0  0  0  0  0
   10.0405   12.9743   21.4885 H   0  0  0  0  0  0  0  0  0  0  0  0
    9.3253   12.5242   23.3008 C   0  0  0  0  0  0  0  0  0  0  0  0
    9.4193   11.2616   23.6196 N   0  0  0  0  0  0  0  0  0  0  0  0
    8.5964   11.1583   24.6985 C   0  0  0  0  0  0  0  0  0  0  0  0
    7.9506   12.3353   24.9419 C   0  0  0  0  0  0  0  0  0  0  0  0
    8.3892   13.2118   24.0137 O   0  0  0  0  0  0  0  0  0  0  0  0
   10.9997   14.2525   22.8636 C   0  0  0  0  0  0  0  0  0  0  0  0
   11.5781   14.8860   21.6027 C   0  0  0  0  0  0  0  0  0  0  0  0
   12.1556   13.7112   23.7559 C   0  0  0  0  0  0  0  0  0  0  0  0
   11.1525   14.8899   25.5896 C   0  0  0  0  0  0  0  0  0  0  0  0
   11.7112   13.6741   25.1247 O   0  0  0  0  0  0  0  0  0  0  0  0
 11 12  1  0  0  0
 12 10  1  0  0  0
 10  8  1  0  0  0
  8  9  1  0  0  0
  8  1  1  0  0  0
  1  3  1  0  0  0
  3  4  2  0  0  0
  4  5  1  0  0  0
  5  6  2  0  0  0
  6  7  1  0  0  0
  7  3  1  0  0  0
  1  2  1  0  0  0
M  END
> <minimizedAffinity>
-4.27517

> <minimizedRMSD>
1.62445

$$$$
C35879-P37


 13 13  0  0  0  0  0  0  0  0999 V2000
   10.2499   13.0967   22.5971 N   0  0  0  0  0  0  0  0  0  0  0  0
    9.6738   13.5745   21.9576 H   0  0  0  0  0  0  0  0  0  0  0  0
    9.7192   12.1401   23.3663 C   0  0  0  0  0  0  0  0  0  0  0  0
    9.8502   10.8521   23.1986 N   0  0  0  0  0  0  0  0  0  0  0  0
    9.0173   10.3177   24.1345 C   0  0  0  0  0  0  0  0  0  0  0  0
    8.3929   11.3104   24.8398 C   0  0  0  0  0  0  0  0  0  0  0  0
    8.8436   12.4931   24.3518 O   0  0  0  0  0  0  0  0  0  0  0  0
   11.6704   13.4504   22.6845 C   0  0  0  0  0  0  0  0  0  0  0  0
   11.9217   14.5948   21.6984 C   0  0  0  0  0  0  0  0  0  0  0  0
   13.3778   15.5076   22.1067 Cl  0  0  0  0  0  0  0  0  0  0  0  0
   12.1534   13.7707   24.1161 C   0  0  0  0  0  0  0  0  0  0  0  0
   11.6152   14.8286   26.1734 C   0  0  0  0  0  0  0  0  0  0  0  0
   11.4224   14.8195   24.7627 O   0  0  0  0  0  0  0  0  0  0  0  0
 12 13  1  0  0  0
 13 11  1  0  0  0
  8 11  1  0  0  0
  8  9  1  0  0  0
  9 10  1  0  0  0
  8  1  1  0  0  0
  1  3  1  0  0  0
  3  4  2  0  0  0
  4  5  1  0  0  0
  5  6  2  0  0  0
  6  7  1  0  0  0
  7  3  1  0  0  0
  1  2  1  0  0  0
M  END
> <minimizedAffinity>
-4.46530

> <minimizedRMSD>
1.45413

$$$$
C716-P440


 14 16  0  0  0  0  0  0  0  0999 V2000
    9.7284   13.2133   24.1333 N   0  0  0  0  0  0  0  0  0  0  0  0
    8.4485   13.5042   24.8116 C   0  0  0  0  0  0  0  0  0  0  0  0
    7.9696   12.2649   25.5713 C   0  0  0  0  0  0  0  0  0  0  0  0
    7.7647   11.1151   24.5907 C   0  0  0  0  0  0  0  0  0  0  0  0
    9.0615   10.8521   23.8769 C   0  0  0  0  0  0  0  0  0  0  0  0
    9.9379    9.7938   24.4944 C   0  0  0  0  0  0  0  0  0  0  0  0
    9.3015    9.5332   23.1697 C   0  0  0  0  0  0  0  0  0  0  0  0
    9.6240   12.0755   23.1947 C   0  0  0  0  0  0  0  0  0  0  0  0
   10.8857   15.9347   21.2095 C   0  0  0  0  0  0  0  0  0  0  0  0
   11.8604   15.3314   21.9873 C   0  0  0  0  0  0  0  0  0  0  0  0
   11.4665   14.5078   23.0377 C   0  0  0  0  0  0  0  0  0  0  0  0
   10.1051   14.3038   23.2802 C   0  0  0  0  0  0  0  0  0  0  0  0
    9.1567   14.9519   22.5720 N   0  0  0  0  0  0  0  0  0  0  0  0
    9.5624   15.7371   21.5529 C   0  0  0  0  0  0  0  0  0  0  0  0
  9 10  2  0  0  0
 10 11  1  0  0  0
 11 12  2  0  0  0
 12  1  1  0  0  0
  1  2  1  0  0  0
  2  3  1  0  0  0
  3  4  1  0  0  0
  4  5  1  0  0  0
  5  6  1  0  0  0
  6  7  1  0  0  0
  5  8  1  0  0  0
 12 13  1  0  0  0
 13 14  2  0  0  0
 14  9  1  0  0  0
  8  1  1  0  0  0
  7  5  1  0  0  0
M  END
> <minimizedAffinity>
-5.86540

> <minimizedRMSD>
0.49091

$$$$
C25767-P356


 14 14  0  0  0  0  0  0  0  0999 V2000
    8.2779   14.4362   24.5201 C   0  0  0  0  0  0  0  0  0  0  0  0
    7.0244   13.5552   24.5792 C   0  0  0  0  0  0  0  0  0  0  0  0
    8.2310   15.0844   23.3085 F   0  0  0  0  0  0  0  0  0  0  0  0
    9.6008   13.6075   24.5282 C   0  0  0  0  0  0  0  0  0  0  0  0
    9.5095   12.3286   23.6782 C   0  0  0  0  0  0  0  0  0  0  0  0
   12.1264   14.0047   24.6439 C   0  0  0  0  0  0  0  0  0  0  0  0
   10.7974   14.4648   24.0629 C   0  0  0  0  0  0  0  0  0  0  0  0
    8.1976   15.5712   25.5669 C   0  0  0  0  0  0  0  0  0  0  0  0
    8.7080   15.2831   26.9881 C   0  0  0  0  0  0  0  0  0  0  0  0
    9.9115   16.1566   27.3355 C   0  0  0  0  0  0  0  0  0  0  0  0
    9.3272   17.4064   27.9774 C   0  0  0  0  0  0  0  0  0  0  0  0
    7.8734   17.0676   28.2556 C   0  0  0  0  0  0  0  0  0  0  0  0
    7.7604   15.6149   28.0655 N   0  0  0  0  0  0  0  0  0  0  0  0
    6.8098   15.3640   27.7938 H   0  0  0  0  0  0  0  0  0  0  0  0
  6  7  1  0  0  0
  7  4  1  0  0  0
  4  5  1  0  0  0
  4  1  1  0  0  0
  1  2  1  0  0  0
  1  3  1  0  0  0
  1  8  1  0  0  0
  9  8  1  0  0  0
  9 10  1  0  0  0
 10 11  1  0  0  0
 11 12  1  0  0  0
 12 13  1  0  0  0
 13  9  1  0  0  0
 13 14  1  0  0  0
M  END
> <minimizedAffinity>
-3.33696

> <minimizedRMSD>
2.27399

$$$$
C92177-P134


 26 29  0  0  0  0  0  0  0  0999 V2000
   12.5737   12.8517   23.9427 O   0  0  0  0  0  0  0  0  0  0  0  0
   11.6725   13.1896   23.2808 C   0  0  0  0  0  0  0  0  0  0  0  0
   10.1832   12.7509   23.3088 N   0  0  0  0  0  0  0  0  0  0  0  0
    9.5965   13.2439   22.6908 H   0  0  0  0  0  0  0  0  0  0  0  0
   11.8508   14.1117   22.1297 C   0  0  0  0  0  0  0  0  0  0  0  0
   12.1087   13.6362   20.8534 C   0  0  0  0  0  0  0  0  0  0  0  0
   11.6830   14.2960   19.6901 C   0  0  0  0  0  0  0  0  0  0  0  0
   10.9352   15.4125   19.8641 C   0  0  0  0  0  0  0  0  0  0  0  0
   10.9822   16.0100   21.1152 C   0  0  0  0  0  0  0  0  0  0  0  0
   11.4246   15.3932   22.2565 C   0  0  0  0  0  0  0  0  0  0  0  0
   10.5144   17.3299   21.0459 N   0  0  0  0  0  0  0  0  0  0  0  0
    9.1898   17.2254   20.1002 S   0  0  0  0  0  0  0  0  0  0  0  0
    8.8789   18.5143   19.5353 O   0  0  0  0  0  0  0  0  0  0  0  0
    8.2733   16.4813   20.9524 O   0  0  0  0  0  0  0  0  0  0  0  0
   10.0231   16.1128   18.8982 C   0  0  0  0  0  0  0  0  0  0  0  0
   10.8963   18.1324   21.4694 H   0  0  0  0  0  0  0  0  0  0  0  0
    9.5553   11.7925   24.0510 C   0  0  0  0  0  0  0  0  0  0  0  0
    9.7513   10.4396   23.9642 C   0  0  0  0  0  0  0  0  0  0  0  0
    8.7782    9.8290   24.7096 N   0  0  0  0  0  0  0  0  0  0  0  0
    8.0659   10.7642   25.4202 C   0  0  0  0  0  0  0  0  0  0  0  0
    7.0631   10.6033   26.3824 C   0  0  0  0  0  0  0  0  0  0  0  0
    6.5488   11.7535   26.9815 C   0  0  0  0  0  0  0  0  0  0  0  0
    6.9895   13.0163   26.5971 C   0  0  0  0  0  0  0  0  0  0  0  0
    7.9588   13.1641   25.5981 C   0  0  0  0  0  0  0  0  0  0  0  0
    8.5245   12.0161   25.0095 C   0  0  0  0  0  0  0  0  0  0  0  0
    8.6129    8.8588   24.7329 H   0  0  0  0  0  0  0  0  0  0  0  0
  1  2  2  0  0  0
  2  3  1  0  0  0
  3 17  1  0  0  0
 17 18  2  0  0  0
 18 19  1  0  0  0
 19 20  1  0  0  0
 20 21  2  0  0  0
 21 22  1  0  0  0
 22 23  2  0  0  0
 23 24  1  0  0  0
 24 25  2  0  0  0
  2  5  1  0  0  0
  5  6  2  0  0  0
  6  7  1  0  0  0
  7  8  2  0  0  0
  8  9  1  0  0  0
  9 10  2  0  0  0
  9 11  1  0  0  0
 11 12  1  0  0  0
 12 13  2  0  0  0
 12 14  2  0  0  0
 12 15  1  0  0  0
 25 17  1  0  0  0
 10  5  1  0  0  0
 25 20  1  0  0  0
 15  8  1  0  0  0
  3  4  1  0  0  0
 19 26  1  0  0  0
 11 16  1  0  0  0
M  END
> <minimizedAffinity>
-3.63246

> <minimizedRMSD>
0.47505

$$$$
C7527-P465


 16 16  0  0  0  0  0  0  0  0999 V2000
   10.1077   13.0403   24.3393 C   0  0  0  0  0  0  0  0  0  0  0  0
    9.6079   13.6799   23.1231 N   0  0  0  0  0  0  0  0  0  0  0  0
    8.6744   13.3246   22.9164 H   0  0  0  0  0  0  0  0  0  0  0  0
    9.5434   15.1234   23.2957 N   0  0  0  0  0  0  0  0  0  0  0  0
   10.9065   15.6904   23.3586 C   0  0  0  0  0  0  0  0  0  0  0  0
   11.7350   15.5108   22.0931 C   0  0  0  0  0  0  0  0  0  0  0  0
   11.0161   16.1147   20.9003 C   0  0  0  0  0  0  0  0  0  0  0  0
    9.5901   15.5947   20.8081 C   0  0  0  0  0  0  0  0  0  0  0  0
    8.8371   15.7240   22.1357 C   0  0  0  0  0  0  0  0  0  0  0  0
    9.8841   11.5339   24.2599 C   0  0  0  0  0  0  0  0  0  0  0  0
    8.5185   11.1481   24.1584 O   0  0  0  0  0  0  0  0  0  0  0  0
    7.9228   10.7760   25.3983 C   0  0  0  0  0  0  0  0  0  0  0  0
    6.2043   12.3779   25.0283 F   0  0  0  0  0  0  0  0  0  0  0  0
    6.9034   11.7406   25.9876 C   0  0  0  0  0  0  0  0  0  0  0  0
    6.0483   11.0360   26.7586 F   0  0  0  0  0  0  0  0  0  0  0  0
    7.4632   12.6599   26.7977 F   0  0  0  0  0  0  0  0  0  0  0  0
 13 14  1  0  0  0
 14 15  1  0  0  0
 14 16  1  0  0  0
 14 12  1  0  0  0
 12 11  1  0  0  0
 11 10  1  0  0  0
 10  1  1  0  0  0
  1  2  1  0  0  0
  2  4  1  0  0  0
  4  5  1  0  0  0
  5  6  1  0  0  0
  6  7  1  0  0  0
  7  8  1  0  0  0
  8  9  1  0  0  0
  9  4  1  0  0  0
  2  3  1  0  0  0
M  END
> <minimizedAffinity>
-4.78204

> <minimizedRMSD>
0.73237

$$$$
C1002-P336


 21 23  0  0  0  0  0  0  0  0999 V2000
   29.0753   10.5078    1.6967 N   0  0  0  0  0  0  0  0  0  0  0  0
   28.0892   11.2382    2.6443 C   0  0  0  0  0  0  0  0  0  0  0  0
   28.2492   11.6655    3.7175 O   0  0  0  0  0  0  0  0  0  0  0  0
   28.6740   10.1733    0.8622 H   0  0  0  0  0  0  0  0  0  0  0  0
   26.7503   11.3314    1.9042 C   0  0  0  0  0  0  0  0  0  0  0  0
   26.9460   11.6260    0.4053 C   0  0  0  0  0  0  0  0  0  0  0  0
   25.6029   11.6110   -0.3264 C   0  0  0  0  0  0  0  0  0  0  0  0
   24.5971   12.4277    0.3903 C   0  0  0  0  0  0  0  0  0  0  0  0
   23.4811   12.9387   -0.0771 N   0  0  0  0  0  0  0  0  0  0  0  0
   22.8857   13.6438    0.9433 N   0  0  0  0  0  0  0  0  0  0  0  0
   23.6480   13.5440    2.0147 C   0  0  0  0  0  0  0  0  0  0  0  0
   23.4059   14.1790    3.3249 C   0  0  0  0  0  0  0  0  0  0  0  0
   24.7256   12.7601    1.7116 N   0  0  0  0  0  0  0  0  0  0  0  0
   25.8652   12.4201    2.5396 C   0  0  0  0  0  0  0  0  0  0  0  0
   30.4835   10.2391    1.8391 C   0  0  0  0  0  0  0  0  0  0  0  0
   31.2132   11.3856    1.1461 C   0  0  0  0  0  0  0  0  0  0  0  0
   31.4331   12.6970    1.9566 C   0  0  0  0  0  0  0  0  0  0  0  0
   32.8018   12.8148    1.2578 C   0  0  0  0  0  0  0  0  0  0  0  0
   32.7662   11.2827    1.0945 C   0  0  0  0  0  0  0  0  0  0  0  0
   31.0657    7.9149    0.6563 C   0  0  0  0  0  0  0  0  0  0  0  0
   30.7939    8.9573    1.1885 C   0  0  0  0  0  0  0  0  0  0  0  0
 20 21  3  0  0  0
 15 21  1  0  0  0
 15  1  1  0  0  0
  1  2  1  0  0  0
  2  3  2  0  0  0
  5  2  1  0  0  0
  5  6  1  0  0  0
  6  7  1  0  0  0
  7  8  1  0  0  0
  8  9  2  0  0  0
  9 10  1  0  0  0
 10 11  2  0  0  0
 11 12  1  0  0  0
 11 13  1  0  0  0
 13 14  1  0  0  0
 15 16  1  0  0  0
 16 17  1  0  0  0
 17 18  1  0  0  0
 18 19  1  0  0  0
 14  5  1  0  0  0
 19 16  1  0  0  0
 13  8  1  0  0  0
  1  4  1  0  0  0
M  END
> <minimizedAffinity>
-3.60740

> <minimizedRMSD>
0.89096

$$$$
C7480-P618


 14 14  0  0  0  0  0  0  0  0999 V2000
   10.3537   13.3932   24.5824 C   0  0  0  0  0  0  0  0  0  0  0  0
   10.7395   13.7335   25.6282 O   0  0  0  0  0  0  0  0  0  0  0  0
    9.8884   14.2269   23.3654 N   0  0  0  0  0  0  0  0  0  0  0  0
    9.5321   13.6982   22.6153 H   0  0  0  0  0  0  0  0  0  0  0  0
    9.8916   15.5863   23.1615 N   0  0  0  0  0  0  0  0  0  0  0  0
   11.2785   16.0603   23.1365 C   0  0  0  0  0  0  0  0  0  0  0  0
   12.0453   15.5892   21.9049 C   0  0  0  0  0  0  0  0  0  0  0  0
   11.3341   16.0278   20.6337 C   0  0  0  0  0  0  0  0  0  0  0  0
    9.8781   15.5816   20.6424 C   0  0  0  0  0  0  0  0  0  0  0  0
    9.1701   15.9818   21.9398 C   0  0  0  0  0  0  0  0  0  0  0  0
    9.5187    9.6957   24.0120 C   0  0  0  0  0  0  0  0  0  0  0  0
    9.3532   11.1091   24.4611 C   0  0  0  0  0  0  0  0  0  0  0  0
    8.1064   11.4647   25.2197 C   0  0  0  0  0  0  0  0  0  0  0  0
   10.3190   11.9803   24.1311 C   0  0  0  0  0  0  0  0  0  0  0  0
 11 12  1  0  0  0
 12 13  1  0  0  0
 12 14  2  0  0  0
 14  1  1  0  0  0
  1  2  2  0  0  0
  1  3  1  0  0  0
  3  5  1  0  0  0
  5  6  1  0  0  0
  6  7  1  0  0  0
  7  8  1  0  0  0
  8  9  1  0  0  0
  9 10  1  0  0  0
 10  5  1  0  0  0
  3  4  1  0  0  0
M  END
> <minimizedAffinity>
-5.21606

> <minimizedRMSD>
1.00734

$$$$
C727-P557


 12 13  0  0  0  0  0  0  0  0999 V2000
    9.3254   10.9713   23.7114 C   0  0  0  0  0  0  0  0  0  0  0  0
    9.7803   12.2558   23.4390 C   0  0  0  0  0  0  0  0  0  0  0  0
    9.1806   13.3393   24.0719 C   0  0  0  0  0  0  0  0  0  0  0  0
    8.1308   13.0688   24.9507 C   0  0  0  0  0  0  0  0  0  0  0  0
    7.7330   11.7559   25.1545 C   0  0  0  0  0  0  0  0  0  0  0  0
    8.3162   10.6953   24.5634 N   0  0  0  0  0  0  0  0  0  0  0  0
    9.5669   14.6630   23.8729 N   0  0  0  0  0  0  0  0  0  0  0  0
   10.8462   15.0656   24.4640 C   0  0  0  0  0  0  0  0  0  0  0  0
   11.9968   14.9850   23.4682 C   0  0  0  0  0  0  0  0  0  0  0  0
   11.6818   15.7537   22.1917 C   0  0  0  0  0  0  0  0  0  0  0  0
   10.3785   15.2518   21.5824 C   0  0  0  0  0  0  0  0  0  0  0  0
    9.2259   15.2899   22.5835 C   0  0  0  0  0  0  0  0  0  0  0  0
  1  2  2  0  0  0
  2  3  1  0  0  0
  3  7  1  0  0  0
  7  8  1  0  0  0
  8  9  1  0  0  0
  9 10  1  0  0  0
 10 11  1  0  0  0
 11 12  1  0  0  0
  3  4  2  0  0  0
  4  5  1  0  0  0
  5  6  2  0  0  0
  6  1  1  0  0  0
 12  7  1  0  0  0
M  END
> <minimizedAffinity>
-4.84891

> <minimizedRMSD>
0.30790

$$$$
C2410-P302


 15 15  0  0  0  0  0  0  0  0999 V2000
    9.4077   13.6857   24.0000 C   0  0  0  0  0  0  0  0  0  0  0  0
   10.2270   14.0894   25.0212 F   0  0  0  0  0  0  0  0  0  0  0  0
    8.8842   12.2998   24.4168 C   0  0  0  0  0  0  0  0  0  0  0  0
    7.4205   12.3485   24.8486 C   0  0  0  0  0  0  0  0  0  0  0  0
    7.0567   11.0672   25.5846 C   0  0  0  0  0  0  0  0  0  0  0  0
    7.5162    9.8196   24.8426 C   0  0  0  0  0  0  0  0  0  0  0  0
    8.8320    9.9282   24.0737 C   0  0  0  0  0  0  0  0  0  0  0  0
    9.0582   11.2169   23.4344 N   0  0  0  0  0  0  0  0  0  0  0  0
    8.3898   11.3394   22.6738 H   0  0  0  0  0  0  0  0  0  0  0  0
   10.1749   13.6938   22.6807 C   0  0  0  0  0  0  0  0  0  0  0  0
   10.2684   15.0598   22.0046 C   0  0  0  0  0  0  0  0  0  0  0  0
   12.1689   16.5649   21.3386 C   0  0  0  0  0  0  0  0  0  0  0  0
   11.4350   15.9124   22.4832 C   0  0  0  0  0  0  0  0  0  0  0  0
   12.3286   15.1583   23.1773 F   0  0  0  0  0  0  0  0  0  0  0  0
   10.9994   16.8811   23.3277 F   0  0  0  0  0  0  0  0  0  0  0  0
 12 13  1  0  0  0
 13 14  1  0  0  0
 13 15  1  0  0  0
 13 11  1  0  0  0
 11 10  1  0  0  0
 10  1  1  0  0  0
  1  2  1  0  0  0
  1  3  1  0  0  0
  3  4  1  0  0  0
  4  5  1  0  0  0
  5  6  1  0  0  0
  6  7  1  0  0  0
  7  8  1  0  0  0
  8  3  1  0  0  0
  8  9  1  0  0  0
M  END
> <minimizedAffinity>
-5.03317

> <minimizedRMSD>
1.69280

$$$$
C542-P467


 19 22  0  0  0  0  0  0  0  0999 V2000
   23.3216   22.6470   18.1287 N   0  0  0  0  0  0  0  0  0  0  0  0
   22.9706   23.3510   16.8858 C   0  0  0  0  0  0  0  0  0  0  0  0
   21.5907   24.0431   17.0143 C   0  0  0  0  0  0  0  0  0  0  0  0
   20.5000   23.1190   17.4380 N   0  0  0  0  0  0  0  0  0  0  0  0
   20.9161   22.5050   18.7238 C   0  0  0  0  0  0  0  0  0  0  0  0
   22.2591   21.7543   18.6153 C   0  0  0  0  0  0  0  0  0  0  0  0
   28.4509   20.6061   20.3935 C   0  0  0  0  0  0  0  0  0  0  0  0
   29.1178   21.0339   19.2502 C   0  0  0  0  0  0  0  0  0  0  0  0
   28.4200   21.6383   18.1989 C   0  0  0  0  0  0  0  0  0  0  0  0
   27.0296   21.7987   18.3252 C   0  0  0  0  0  0  0  0  0  0  0  0
   25.9068   22.4890   17.2258 S   0  0  0  0  0  0  0  0  0  0  0  0
   24.6059   22.2099   18.3352 C   0  0  0  0  0  0  0  0  0  0  0  0
   24.9797   21.6112   19.4484 N   0  0  0  0  0  0  0  0  0  0  0  0
   26.3426   21.3779   19.4599 C   0  0  0  0  0  0  0  0  0  0  0  0
   27.0668   20.7737   20.5089 C   0  0  0  0  0  0  0  0  0  0  0  0
   19.2683   23.8996   17.6571 C   0  0  0  0  0  0  0  0  0  0  0  0
   18.2883   23.7141   16.4676 C   0  0  0  0  0  0  0  0  0  0  0  0
   17.1690   23.5658   17.5199 C   0  0  0  0  0  0  0  0  0  0  0  0
   18.2592   23.0625   18.4890 C   0  0  0  0  0  0  0  0  0  0  0  0
  7  8  2  0  0  0
  8  9  1  0  0  0
  9 10  2  0  0  0
 10 11  1  0  0  0
 11 12  1  0  0  0
 12  1  1  0  0  0
  1  2  1  0  0  0
  2  3  1  0  0  0
  3  4  1  0  0  0
  4 16  1  0  0  0
 16 17  1  0  0  0
 17 18  1  0  0  0
 18 19  1  0  0  0
  4  5  1  0  0  0
  5  6  1  0  0  0
 12 13  2  0  0  0
 13 14  1  0  0  0
 14 15  2  0  0  0
 15  7  1  0  0  0
 14 10  1  0  0  0
  6  1  1  0  0  0
 19 16  1  0  0  0
M  END
> <minimizedAffinity>
-4.16857

> <minimizedRMSD>
1.70669

$$$$
C15040-P153


 20 20  0  0  0  0  0  0  0  0999 V2000
   10.6525   15.7030   24.9149 O   0  0  0  0  0  0  0  0  0  0  0  0
   10.7105   14.9616   24.0098 C   0  0  0  0  0  0  0  0  0  0  0  0
    9.6110   14.0514   23.3764 N   0  0  0  0  0  0  0  0  0  0  0  0
    9.9311   13.4546   22.6618 H   0  0  0  0  0  0  0  0  0  0  0  0
    8.0206   13.9290   23.7063 S   0  0  0  0  0  0  0  0  0  0  0  0
    7.3959   13.5621   22.4490 O   0  0  0  0  0  0  0  0  0  0  0  0
    7.6510   15.0899   24.4746 O   0  0  0  0  0  0  0  0  0  0  0  0
    7.9378   12.5029   24.7460 C   0  0  0  0  0  0  0  0  0  0  0  0
    8.5199   11.3100   24.3437 C   0  0  0  0  0  0  0  0  0  0  0  0
    8.1269   10.1707   25.0221 C   0  0  0  0  0  0  0  0  0  0  0  0
    7.1813   10.2868   26.0390 C   0  0  0  0  0  0  0  0  0  0  0  0
    6.6950   11.5317   26.3913 C   0  0  0  0  0  0  0  0  0  0  0  0
    7.0740   12.6537   25.7783 N   0  0  0  0  0  0  0  0  0  0  0  0
   11.9719   14.8213   23.1861 C   0  0  0  0  0  0  0  0  0  0  0  0
   12.1840   16.1662   21.9946 S   0  0  0  0  0  0  0  0  0  0  0  0
   11.6043   15.3903   20.4365 C   0  0  0  0  0  0  0  0  0  0  0  0
   10.2505   15.8615   19.9409 C   0  0  0  0  0  0  0  0  0  0  0  0
   10.2435   15.9781   18.5971 F   0  0  0  0  0  0  0  0  0  0  0  0
    9.8852   17.0219   20.4947 F   0  0  0  0  0  0  0  0  0  0  0  0
    9.2949   14.9704   20.2764 F   0  0  0  0  0  0  0  0  0  0  0  0
  1  2  2  0  0  0
  2 14  1  0  0  0
 14 15  1  0  0  0
 15 16  1  0  0  0
 16 17  1  0  0  0
 17 18  1  0  0  0
 17 19  1  0  0  0
 17 20  1  0  0  0
  2  3  1  0  0  0
  3  5  1  0  0  0
  5  6  2  0  0  0
  5  7  2  0  0  0
  5  8  1  0  0  0
  8  9  2  0  0  0
  9 10  1  0  0  0
 10 11  2  0  0  0
 11 12  1  0  0  0
 12 13  2  0  0  0
 13  8  1  0  0  0
  3  4  1  0  0  0
M  END
> <minimizedAffinity>
-5.95602

> <minimizedRMSD>
0.96231

$$$$
C15045-P153


 16 16  0  0  0  0  0  0  0  0999 V2000
    9.0748   13.2860   24.4703 C   0  0  0  0  0  0  0  0  0  0  0  0
    8.8775   13.9910   25.6971 O   0  0  0  0  0  0  0  0  0  0  0  0
    7.9335   13.9940   25.9200 H   0  0  0  0  0  0  0  0  0  0  0  0
    8.6957   11.8233   24.6196 C   0  0  0  0  0  0  0  0  0  0  0  0
    9.3579   10.8429   23.8677 C   0  0  0  0  0  0  0  0  0  0  0  0
    9.0075    9.5112   24.0423 C   0  0  0  0  0  0  0  0  0  0  0  0
    8.0478    9.0971   24.9010 N   0  0  0  0  0  0  0  0  0  0  0  0
    7.4065   10.0490   25.6022 C   0  0  0  0  0  0  0  0  0  0  0  0
    7.6941   11.3994   25.5025 C   0  0  0  0  0  0  0  0  0  0  0  0
    8.3305   14.0346   23.3544 C   0  0  0  0  0  0  0  0  0  0  0  0
    7.5506   13.4707   22.5822 O   0  0  0  0  0  0  0  0  0  0  0  0
    8.5291   15.5412   23.3095 C   0  0  0  0  0  0  0  0  0  0  0  0
    9.2316   16.0233   22.0418 C   0  0  0  0  0  0  0  0  0  0  0  0
   10.5141   15.2620   21.7158 C   0  0  0  0  0  0  0  0  0  0  0  0
   12.0666   14.9853   23.6412 C   0  0  0  0  0  0  0  0  0  0  0  0
   11.6614   15.6903   22.5789 C   0  0  0  0  0  0  0  0  0  0  0  0
 15 16  2  0  0  0
 16 14  1  0  0  0
 14 13  1  0  0  0
 13 12  1  0  0  0
 12 10  1  0  0  0
 10 11  2  0  0  0
 10  1  1  0  0  0
  1  2  1  0  0  0
  1  4  1  0  0  0
  4  5  2  0  0  0
  5  6  1  0  0  0
  6  7  2  0  0  0
  7  8  1  0  0  0
  8  9  2  0  0  0
  9  4  1  0  0  0
  2  3  1  0  0  0
M  END
> <minimizedAffinity>
-5.13481

> <minimizedRMSD>
0.49516

$$$$
C15048-P153


 17 17  0  0  0  0  0  0  0  0999 V2000
    8.6136   13.4522   24.6123 C   0  0  0  0  0  0  0  0  0  0  0  0
    8.5159   11.9273   24.6667 C   0  0  0  0  0  0  0  0  0  0  0  0
    7.5636   11.3733   25.5394 C   0  0  0  0  0  0  0  0  0  0  0  0
    7.4176   10.0013   25.6193 C   0  0  0  0  0  0  0  0  0  0  0  0
    8.1466    9.1390   24.8941 N   0  0  0  0  0  0  0  0  0  0  0  0
    9.0554    9.6699   24.0439 C   0  0  0  0  0  0  0  0  0  0  0  0
    9.2850   11.0371   23.9071 C   0  0  0  0  0  0  0  0  0  0  0  0
    8.9461   14.8354   26.7739 C   0  0  0  0  0  0  0  0  0  0  0  0
    9.5772   13.9274   25.7293 C   0  0  0  0  0  0  0  0  0  0  0  0
    9.0772   14.0326   23.3539 N   0  0  0  0  0  0  0  0  0  0  0  0
    9.7608   13.3784   22.9729 H   0  0  0  0  0  0  0  0  0  0  0  0
    8.0344   14.3914   22.1106 S   0  0  0  0  0  0  0  0  0  0  0  0
    8.8913   14.5659   20.9649 O   0  0  0  0  0  0  0  0  0  0  0  0
    6.9776   13.4121   22.0984 O   0  0  0  0  0  0  0  0  0  0  0  0
    7.4187   15.8706   22.5490 N   0  0  0  0  0  0  0  0  0  0  0  0
    8.3600   16.7947   23.1918 C   0  0  0  0  0  0  0  0  0  0  0  0
    6.0364   15.9749   23.0185 C   0  0  0  0  0  0  0  0  0  0  0  0
  8  9  1  0  0  0
  1  9  1  0  0  0
  1 10  1  0  0  0
 10 12  1  0  0  0
 12 13  2  0  0  0
 12 14  2  0  0  0
 12 15  1  0  0  0
 15 16  1  0  0  0
 15 17  1  0  0  0
  1  2  1  0  0  0
  2  3  2  0  0  0
  3  4  1  0  0  0
  4  5  2  0  0  0
  5  6  1  0  0  0
  6  7  2  0  0  0
  7  2  1  0  0  0
 10 11  1  0  0  0
M  END
> <minimizedAffinity>
-4.78926

> <minimizedRMSD>
1.09015

$$$$
C15067-P153


 16 16  0  0  0  0  0  0  0  0999 V2000
    8.7939   13.9323   24.1483 C   0  0  0  0  0  0  0  0  0  0  0  0
    8.1995   14.7033   25.1882 O   0  0  0  0  0  0  0  0  0  0  0  0
    7.2411   14.5542   25.1938 H   0  0  0  0  0  0  0  0  0  0  0  0
    8.6409   12.4484   24.3772 C   0  0  0  0  0  0  0  0  0  0  0  0
    9.4633   11.5469   23.6888 C   0  0  0  0  0  0  0  0  0  0  0  0
    9.3180   10.1824   23.8847 C   0  0  0  0  0  0  0  0  0  0  0  0
    8.3721    9.7616   24.7923 C   0  0  0  0  0  0  0  0  0  0  0  0
    7.5578   10.5844   25.4885 N   0  0  0  0  0  0  0  0  0  0  0  0
    7.7083   11.9081   25.2577 C   0  0  0  0  0  0  0  0  0  0  0  0
    8.1970   14.4030   22.8199 C   0  0  0  0  0  0  0  0  0  0  0  0
    7.3623   13.7323   22.2050 O   0  0  0  0  0  0  0  0  0  0  0  0
    8.6370   15.7867   22.3459 C   0  0  0  0  0  0  0  0  0  0  0  0
    9.4284   15.8376   21.1804 O   0  0  0  0  0  0  0  0  0  0  0  0
   10.6373   15.0862   21.2022 C   0  0  0  0  0  0  0  0  0  0  0  0
   12.0461   15.2220   23.3149 C   0  0  0  0  0  0  0  0  0  0  0  0
   11.7728   15.7991   21.9335 C   0  0  0  0  0  0  0  0  0  0  0  0
 15 16  1  0  0  0
 16 14  1  0  0  0
 14 13  1  0  0  0
 13 12  1  0  0  0
 12 10  1  0  0  0
 10 11  2  0  0  0
 10  1  1  0  0  0
  1  2  1  0  0  0
  1  4  1  0  0  0
  4  5  2  0  0  0
  5  6  1  0  0  0
  6  7  2  0  0  0
  7  8  1  0  0  0
  8  9  2  0  0  0
  9  4  1  0  0  0
  2  3  1  0  0  0
M  END
> <minimizedAffinity>
-4.66509

> <minimizedRMSD>
0.50616

$$$$
C15070-P153


 16 16  0  0  0  0  0  0  0  0999 V2000
    8.3025   15.5920   23.3651 C   0  0  0  0  0  0  0  0  0  0  0  0
    8.8543   15.8450   24.6387 O   0  0  0  0  0  0  0  0  0  0  0  0
    9.7307   15.4337   24.6989 H   0  0  0  0  0  0  0  0  0  0  0  0
    7.9268   14.1461   23.0421 C   0  0  0  0  0  0  0  0  0  0  0  0
    7.1908   13.8270   22.1065 O   0  0  0  0  0  0  0  0  0  0  0  0
    8.4126   13.0269   23.8490 C   0  0  0  0  0  0  0  0  0  0  0  0
    7.6784   12.5921   24.9534 C   0  0  0  0  0  0  0  0  0  0  0  0
    7.8062   11.2695   25.3707 C   0  0  0  0  0  0  0  0  0  0  0  0
    8.6488   10.4405   24.6513 C   0  0  0  0  0  0  0  0  0  0  0  0
    9.4278   10.8645   23.6345 N   0  0  0  0  0  0  0  0  0  0  0  0
    9.2864   12.1470   23.2410 C   0  0  0  0  0  0  0  0  0  0  0  0
    9.1295   16.2179   22.2311 C   0  0  0  0  0  0  0  0  0  0  0  0
   10.2577   15.3804   21.5932 C   0  0  0  0  0  0  0  0  0  0  0  0
   10.2838   15.6652   20.0818 C   0  0  0  0  0  0  0  0  0  0  0  0
   11.9507   14.8792   23.4319 C   0  0  0  0  0  0  0  0  0  0  0  0
   11.6401   15.6956   22.1897 C   0  0  0  0  0  0  0  0  0  0  0  0
 15 16  1  0  0  0
 16 13  1  0  0  0
 13 14  1  0  0  0
 13 12  1  0  0  0
 12  1  1  0  0  0
  1  2  1  0  0  0
  1  4  1  0  0  0
  4  5  2  0  0  0
  4  6  1  0  0  0
  6  7  2  0  0  0
  7  8  1  0  0  0
  8  9  2  0  0  0
  9 10  1  0  0  0
 10 11  2  0  0  0
 11  6  1  0  0  0
  2  3  1  0  0  0
M  END
> <minimizedAffinity>
-5.19725

> <minimizedRMSD>
0.45791

$$$$
C8131-P153


 15 15  0  0  0  0  0  0  0  0999 V2000
    9.1635   13.6339   24.0259 C   0  0  0  0  0  0  0  0  0  0  0  0
    8.6381   14.5223   25.0084 O   0  0  0  0  0  0  0  0  0  0  0  0
    7.6892   14.3555   25.1207 H   0  0  0  0  0  0  0  0  0  0  0  0
    9.0346   12.1873   24.5288 C   0  0  0  0  0  0  0  0  0  0  0  0
    9.4694   11.1605   23.4867 C   0  0  0  0  0  0  0  0  0  0  0  0
    9.3268    9.7126   23.9290 C   0  0  0  0  0  0  0  0  0  0  0  0
    8.0899    9.4250   24.6293 N   0  0  0  0  0  0  0  0  0  0  0  0
    7.6271   10.3991   25.5933 C   0  0  0  0  0  0  0  0  0  0  0  0
    7.6665   11.8347   25.0916 C   0  0  0  0  0  0  0  0  0  0  0  0
    8.2168    8.5420   25.1239 H   0  0  0  0  0  0  0  0  0  0  0  0
    8.5695   13.9190   22.6267 C   0  0  0  0  0  0  0  0  0  0  0  0
    7.3913   13.6940   22.3324 O   0  0  0  0  0  0  0  0  0  0  0  0
    9.4923   14.6034   21.6350 C   0  0  0  0  0  0  0  0  0  0  0  0
   11.8312   15.3755   22.6645 C   0  0  0  0  0  0  0  0  0  0  0  0
   10.7716   15.0134   22.2312 C   0  0  0  0  0  0  0  0  0  0  0  0
 14 15  3  0  0  0
 15 13  1  0  0  0
 13 11  1  0  0  0
 11 12  2  0  0  0
 11  1  1  0  0  0
  1  2  1  0  0  0
  1  4  1  0  0  0
  4  5  1  0  0  0
  5  6  1  0  0  0
  6  7  1  0  0  0
  7  8  1  0  0  0
  8  9  1  0  0  0
  9  4  1  0  0  0
  2  3  1  0  0  0
  7 10  1  0  0  0
M  END
> <minimizedAffinity>
-4.72308

> <minimizedRMSD>
0.54142

$$$$
C8138-P153


 17 17  0  0  0  0  0  0  0  0999 V2000
    8.5767   13.2536   24.4838 C   0  0  0  0  0  0  0  0  0  0  0  0
    7.7380   13.8694   25.4521 O   0  0  0  0  0  0  0  0  0  0  0  0
    6.8142   13.8139   25.1617 H   0  0  0  0  0  0  0  0  0  0  0  0
    8.2375   11.7724   24.3097 C   0  0  0  0  0  0  0  0  0  0  0  0
    9.4419   11.0004   23.7641 C   0  0  0  0  0  0  0  0  0  0  0  0
    9.2081    9.5019   23.6973 C   0  0  0  0  0  0  0  0  0  0  0  0
    8.5746    8.9679   24.8887 N   0  0  0  0  0  0  0  0  0  0  0  0
    7.4050    9.6583   25.3827 C   0  0  0  0  0  0  0  0  0  0  0  0
    7.6686   11.1396   25.5719 C   0  0  0  0  0  0  0  0  0  0  0  0
    9.2707    8.9722   25.6341 H   0  0  0  0  0  0  0  0  0  0  0  0
    8.3656   13.9842   23.1544 C   0  0  0  0  0  0  0  0  0  0  0  0
    7.4147   13.6892   22.4201 O   0  0  0  0  0  0  0  0  0  0  0  0
    9.2814   15.1365   22.8073 C   0  0  0  0  0  0  0  0  0  0  0  0
   10.7567   14.8062   23.0626 C   0  0  0  0  0  0  0  0  0  0  0  0
   11.3179   15.6022   24.2415 C   0  0  0  0  0  0  0  0  0  0  0  0
   12.3228   16.3125   21.6449 C   0  0  0  0  0  0  0  0  0  0  0  0
   11.6466   14.9691   21.8270 C   0  0  0  0  0  0  0  0  0  0  0  0
 16 17  1  0  0  0
 17 14  1  0  0  0
 14 15  1  0  0  0
 14 13  1  0  0  0
 13 11  1  0  0  0
 11 12  2  0  0  0
 11  1  1  0  0  0
  1  2  1  0  0  0
  1  4  1  0  0  0
  4  5  1  0  0  0
  5  6  1  0  0  0
  6  7  1  0  0  0
  7  8  1  0  0  0
  8  9  1  0  0  0
  9  4  1  0  0  0
  2  3  1  0  0  0
  7 10  1  0  0  0
M  END
> <minimizedAffinity>
-5.14961

> <minimizedRMSD>
0.45492

$$$$
C8141-P153


 16 16  0  0  0  0  0  0  0  0999 V2000
    9.5185   13.6306   24.6918 C   0  0  0  0  0  0  0  0  0  0  0  0
    8.6907   14.5937   25.5440 C   0  0  0  0  0  0  0  0  0  0  0  0
   10.8679   13.7559   25.1783 O   0  0  0  0  0  0  0  0  0  0  0  0
   11.1659   14.6729   25.0725 H   0  0  0  0  0  0  0  0  0  0  0  0
    9.1781   12.1326   24.9206 C   0  0  0  0  0  0  0  0  0  0  0  0
    9.5824   11.2550   23.7272 C   0  0  0  0  0  0  0  0  0  0  0  0
    9.3126    9.7733   23.9178 C   0  0  0  0  0  0  0  0  0  0  0  0
    8.0333    9.4738   24.5282 N   0  0  0  0  0  0  0  0  0  0  0  0
    7.5693   10.3331   25.5933 C   0  0  0  0  0  0  0  0  0  0  0  0
    7.7469   11.8192   25.3165 C   0  0  0  0  0  0  0  0  0  0  0  0
    8.0920    8.5281   24.9059 H   0  0  0  0  0  0  0  0  0  0  0  0
    9.3074   14.0564   23.2031 C   0  0  0  0  0  0  0  0  0  0  0  0
    8.2206   13.9448   22.6290 O   0  0  0  0  0  0  0  0  0  0  0  0
   12.2291   16.0984   21.6725 C   0  0  0  0  0  0  0  0  0  0  0  0
   10.9567   15.7446   22.3638 C   0  0  0  0  0  0  0  0  0  0  0  0
   10.4787   14.4932   22.3968 C   0  0  0  0  0  0  0  0  0  0  0  0
 14 15  1  0  0  0
 15 16  2  0  0  0
 16 12  1  0  0  0
 12 13  2  0  0  0
 12  1  1  0  0  0
  1  2  1  0  0  0
  1  3  1  0  0  0
  1  5  1  0  0  0
  5  6  1  0  0  0
  6  7  1  0  0  0
  7  8  1  0  0  0
  8  9  1  0  0  0
  9 10  1  0  0  0
 10  5  1  0  0  0
  3  4  1  0  0  0
  8 11  1  0  0  0
M  END
> <minimizedAffinity>
-5.39698

> <minimizedRMSD>
0.51071

$$$$
C8152-P153


 15 15  0  0  0  0  0  0  0  0999 V2000
    9.1119   15.1425   23.5459 C   0  0  0  0  0  0  0  0  0  0  0  0
    8.3883   15.7976   24.5891 O   0  0  0  0  0  0  0  0  0  0  0  0
    7.4438   15.8106   24.3687 H   0  0  0  0  0  0  0  0  0  0  0  0
    8.6417   13.7130   23.3564 C   0  0  0  0  0  0  0  0  0  0  0  0
    7.6821   13.3950   22.6722 O   0  0  0  0  0  0  0  0  0  0  0  0
    9.4387   12.8731   24.0686 O   0  0  0  0  0  0  0  0  0  0  0  0
    8.3169   10.8213   24.9206 C   0  0  0  0  0  0  0  0  0  0  0  0
    9.2876   11.4485   23.9487 C   0  0  0  0  0  0  0  0  0  0  0  0
    8.9397   15.8625   22.1955 C   0  0  0  0  0  0  0  0  0  0  0  0
   10.0919   16.6952   21.8228 N   0  0  0  0  0  0  0  0  0  0  0  0
   11.3870   16.0854   22.1300 C   0  0  0  0  0  0  0  0  0  0  0  0
   11.7452   14.9107   21.2282 C   0  0  0  0  0  0  0  0  0  0  0  0
   11.7066   15.3249   19.7634 C   0  0  0  0  0  0  0  0  0  0  0  0
   10.3814   15.9932   19.4195 C   0  0  0  0  0  0  0  0  0  0  0  0
   10.0425   17.1098   20.4098 C   0  0  0  0  0  0  0  0  0  0  0  0
  7  8  1  0  0  0
  8  6  1  0  0  0
  6  4  1  0  0  0
  4  5  2  0  0  0
  4  1  1  0  0  0
  1  2  1  0  0  0
  1  9  1  0  0  0
  9 10  1  0  0  0
 10 11  1  0  0  0
 11 12  1  0  0  0
 12 13  1  0  0  0
 13 14  1  0  0  0
 14 15  1  0  0  0
 15 10  1  0  0  0
  2  3  1  0  0  0
M  END
> <minimizedAffinity>
-5.00925

> <minimizedRMSD>
1.83713

$$$$
C8161-P153


 18 18  0  0  0  0  0  0  0  0999 V2000
   10.1772   14.7231   24.0896 C   0  0  0  0  0  0  0  0  0  0  0  0
    8.7779   15.2205   24.5400 C   0  0  0  0  0  0  0  0  0  0  0  0
   10.3932   14.9050   22.6110 N   0  0  0  0  0  0  0  0  0  0  0  0
   11.6127   15.6471   22.2371 C   0  0  0  0  0  0  0  0  0  0  0  0
   11.9407   15.3279   20.7863 C   0  0  0  0  0  0  0  0  0  0  0  0
   10.8434   15.8538   19.8848 C   0  0  0  0  0  0  0  0  0  0  0  0
    9.4882   15.3341   20.3304 C   0  0  0  0  0  0  0  0  0  0  0  0
    9.2642   15.4758   21.8416 C   0  0  0  0  0  0  0  0  0  0  0  0
   10.3032   13.1786   24.3901 C   0  0  0  0  0  0  0  0  0  0  0  0
   11.6712   12.7562   24.5317 O   0  0  0  0  0  0  0  0  0  0  0  0
   12.1360   12.8774   23.6890 H   0  0  0  0  0  0  0  0  0  0  0  0
    9.6734   12.3039   23.3163 C   0  0  0  0  0  0  0  0  0  0  0  0
    8.4712   11.7431   23.8452 O   0  0  0  0  0  0  0  0  0  0  0  0
    8.7269   10.6588   24.7233 C   0  0  0  0  0  0  0  0  0  0  0  0
    9.1559    9.4654   23.8857 C   0  0  0  0  0  0  0  0  0  0  0  0
    7.4923   10.4029   25.5756 C   0  0  0  0  0  0  0  0  0  0  0  0
   10.9322   15.6184   26.4581 C   0  0  0  0  0  0  0  0  0  0  0  0
   11.2326   15.4774   24.9621 C   0  0  0  0  0  0  0  0  0  0  0  0
 17 18  1  0  0  0
 18  1  1  0  0  0
  1  2  1  0  0  0
  1  9  1  0  0  0
  9 10  1  0  0  0
  9 12  1  0  0  0
 12 13  1  0  0  0
 13 14  1  0  0  0
 14 15  1  0  0  0
 14 16  1  0  0  0
  1  3  1  0  0  0
  3  4  1  0  0  0
  4  5  1  0  0  0
  5  6  1  0  0  0
  6  7  1  0  0  0
  7  8  1  0  0  0
  8  3  1  0  0  0
 10 11  1  0  0  0
M  END
> <minimizedAffinity>
-5.65351

> <minimizedRMSD>
1.66152

$$$$
C8173-P153


 19 19  0  0  0  0  0  0  0  0999 V2000
    8.0344   13.3220   22.7286 O   0  0  0  0  0  0  0  0  0  0  0  0
    8.8532   13.8417   23.3815 C   0  0  0  0  0  0  0  0  0  0  0  0
    9.5434   15.2281   23.2184 N   0  0  0  0  0  0  0  0  0  0  0  0
   10.1534   15.4739   23.9510 H   0  0  0  0  0  0  0  0  0  0  0  0
    9.5556   13.1731   24.5805 C   0  0  0  0  0  0  0  0  0  0  0  0
    9.3197   13.8566   25.7384 F   0  0  0  0  0  0  0  0  0  0  0  0
    9.2337   11.6919   24.7985 C   0  0  0  0  0  0  0  0  0  0  0  0
    9.7083   10.8034   23.6427 C   0  0  0  0  0  0  0  0  0  0  0  0
    9.0956    9.4040   23.6304 C   0  0  0  0  0  0  0  0  0  0  0  0
    8.4634    9.0211   24.8808 N   0  0  0  0  0  0  0  0  0  0  0  0
    7.5093    9.9608   25.4393 C   0  0  0  0  0  0  0  0  0  0  0  0
    7.7763   11.4255   25.1123 C   0  0  0  0  0  0  0  0  0  0  0  0
    9.2014    8.8819   25.5710 H   0  0  0  0  0  0  0  0  0  0  0  0
    9.4339   16.2087   22.1700 C   0  0  0  0  0  0  0  0  0  0  0  0
   10.7702   16.2835   21.4548 C   0  0  0  0  0  0  0  0  0  0  0  0
   10.7104   15.6765   20.0844 C   0  0  0  0  0  0  0  0  0  0  0  0
   11.9118   15.1633   19.7477 F   0  0  0  0  0  0  0  0  0  0  0  0
   10.3729   16.5991   19.1727 F   0  0  0  0  0  0  0  0  0  0  0  0
    9.7951   14.6966   19.9995 F   0  0  0  0  0  0  0  0  0  0  0  0
  1  2  2  0  0  0
  2  3  1  0  0  0
  3 14  1  0  0  0
 14 15  1  0  0  0
 15 16  1  0  0  0
 16 17  1  0  0  0
 16 18  1  0  0  0
 16 19  1  0  0  0
  2  5  1  0  0  0
  5  6  1  0  0  0
  5  7  1  0  0  0
  7  8  1  0  0  0
  8  9  1  0  0  0
  9 10  1  0  0  0
 10 11  1  0  0  0
 11 12  1  0  0  0
 12  7  1  0  0  0
  3  4  1  0  0  0
 10 13  1  0  0  0
M  END
> <minimizedAffinity>
-5.82245

> <minimizedRMSD>
0.92415

$$$$
C8176-P153


 17 17  0  0  0  0  0  0  0  0999 V2000
    7.2397   14.4825   25.1152 C   0  0  0  0  0  0  0  0  0  0  0  0
    8.3753   13.7272   24.4141 C   0  0  0  0  0  0  0  0  0  0  0  0
    9.5616   13.9803   25.1633 O   0  0  0  0  0  0  0  0  0  0  0  0
    9.7218   14.9362   25.2019 H   0  0  0  0  0  0  0  0  0  0  0  0
    8.1329   12.1844   24.3623 C   0  0  0  0  0  0  0  0  0  0  0  0
    9.3766   11.4652   23.8263 C   0  0  0  0  0  0  0  0  0  0  0  0
    9.4093    9.9605   24.0315 C   0  0  0  0  0  0  0  0  0  0  0  0
    8.1801    9.3758   24.6655 C   0  0  0  0  0  0  0  0  0  0  0  0
    7.4646   10.1383   25.6815 N   0  0  0  0  0  0  0  0  0  0  0  0
    7.6946   11.5758   25.6830 C   0  0  0  0  0  0  0  0  0  0  0  0
    7.7414    9.7775   26.5945 H   0  0  0  0  0  0  0  0  0  0  0  0
    8.3827   14.2373   22.9493 C   0  0  0  0  0  0  0  0  0  0  0  0
    7.5725   13.7805   22.1310 O   0  0  0  0  0  0  0  0  0  0  0  0
    9.3624   15.3400   22.6092 C   0  0  0  0  0  0  0  0  0  0  0  0
    9.4471   16.2635   23.6123 F   0  0  0  0  0  0  0  0  0  0  0  0
    9.0140   16.0171   21.4845 F   0  0  0  0  0  0  0  0  0  0  0  0
   11.1172   14.5616   22.3612 Br  0  0  0  0  0  0  0  0  0  0  0  0
  2  1  1  0  0  0
  2  3  1  0  0  0
  2 12  1  0  0  0
 12 13  2  0  0  0
 12 14  1  0  0  0
 14 15  1  0  0  0
 14 16  1  0  0  0
 14 17  1  0  0  0
  2  5  1  0  0  0
  5  6  1  0  0  0
  6  7  1  0  0  0
  7  8  1  0  0  0
  8  9  1  0  0  0
  9 10  1  0  0  0
 10  5  1  0  0  0
  3  4  1  0  0  0
  9 11  1  0  0  0
M  END
> <minimizedAffinity>
-4.70489

> <minimizedRMSD>
0.48256

$$$$
C2758-P200


 23 24  0  0  0  0  0  0  0  0999 V2000
   -0.2745   12.7593   18.5871 C   0  0  0  0  0  0  0  0  0  0  0  0
   -0.8758   12.9426   17.2011 C   0  0  0  0  0  0  0  0  0  0  0  0
   -0.8093   14.1194   16.4554 C   0  0  0  0  0  0  0  0  0  0  0  0
   -1.4356   14.2123   15.2128 C   0  0  0  0  0  0  0  0  0  0  0  0
   -2.1243   13.1137   14.7377 C   0  0  0  0  0  0  0  0  0  0  0  0
   -2.2289   11.9562   15.4165 N   0  0  0  0  0  0  0  0  0  0  0  0
   -1.6131   11.9079   16.6230 C   0  0  0  0  0  0  0  0  0  0  0  0
    1.2577   12.4934   18.6973 C   0  0  0  0  0  0  0  0  0  0  0  0
    2.0739   12.5615   17.4232 C   0  0  0  0  0  0  0  0  0  0  0  0
    3.5561   12.6402   17.8024 C   0  0  0  0  0  0  0  0  0  0  0  0
    3.8940   11.8858   18.9751 O   0  0  0  0  0  0  0  0  0  0  0  0
    3.0408   10.7675   19.1632 C   0  0  0  0  0  0  0  0  0  0  0  0
    1.6357   11.2524   19.5180 C   0  0  0  0  0  0  0  0  0  0  0  0
   -0.8270   13.7600   19.5096 N   0  0  0  0  0  0  0  0  0  0  0  0
   -1.2926   14.4739   18.9492 H   0  0  0  0  0  0  0  0  0  0  0  0
    0.1209   14.4340   20.3841 C   0  0  0  0  0  0  0  0  0  0  0  0
    1.1640   15.3802   19.7491 C   0  0  0  0  0  0  0  0  0  0  0  0
    2.4396   15.1963   20.3759 O   0  0  0  0  0  0  0  0  0  0  0  0
    2.4604   14.3300   21.5187 C   0  0  0  0  0  0  0  0  0  0  0  0
    3.4666   14.7991   22.5824 C   0  0  0  0  0  0  0  0  0  0  0  0
    5.8683   14.9946   22.7060 C   0  0  0  0  0  0  0  0  0  0  0  0
    4.6675   15.3914   21.9945 N   0  0  0  0  0  0  0  0  0  0  0  0
    4.7437   15.0882   21.0236 H   0  0  0  0  0  0  0  0  0  0  0  0
 21 22  1  0  0  0
 22 20  1  0  0  0
 20 19  1  0  0  0
 19 18  1  0  0  0
 18 17  1  0  0  0
 17 16  1  0  0  0
 16 14  1  0  0  0
  1 14  1  0  0  0
  1  2  1  0  0  0
  2  3  2  0  0  0
  3  4  1  0  0  0
  4  5  2  0  0  0
  5  6  1  0  0  0
  6  7  2  0  0  0
  1  8  1  0  0  0
  8  9  1  0  0  0
  9 10  1  0  0  0
 10 11  1  0  0  0
 11 12  1  0  0  0
 12 13  1  0  0  0
  7  2  1  0  0  0
 13  8  1  0  0  0
 22 23  1  0  0  0
 14 15  1  0  0  0
M  END
> <minimizedAffinity>
-4.66538

> <minimizedRMSD>
1.04093

$$$$
C37375-P551


 23 25  0  0  0  0  0  0  0  0999 V2000
    6.5401   11.7317   26.3556 C   0  0  0  0  0  0  0  0  0  0  0  0
    6.1478   12.7776   26.6901 O   0  0  0  0  0  0  0  0  0  0  0  0
    6.2280   10.3252   26.9041 N   0  0  0  0  0  0  0  0  0  0  0  0
    6.6318    9.5855   26.3952 H   0  0  0  0  0  0  0  0  0  0  0  0
    9.4077   12.8173   24.1404 C   0  0  0  0  0  0  0  0  0  0  0  0
    8.3285   12.8515   24.9384 C   0  0  0  0  0  0  0  0  0  0  0  0
    7.6009   11.6443   25.2776 C   0  0  0  0  0  0  0  0  0  0  0  0
    8.0136   10.4661   24.7815 C   0  0  0  0  0  0  0  0  0  0  0  0
    9.1952   10.4133   23.8896 C   0  0  0  0  0  0  0  0  0  0  0  0
    9.5844    9.3454   23.4400 O   0  0  0  0  0  0  0  0  0  0  0  0
    9.8166   11.6069   23.6284 N   0  0  0  0  0  0  0  0  0  0  0  0
   10.6043   11.5979   23.0379 H   0  0  0  0  0  0  0  0  0  0  0  0
   10.1692   14.0707   23.7930 C   0  0  0  0  0  0  0  0  0  0  0  0
   12.3517   15.2163   23.2556 C   0  0  0  0  0  0  0  0  0  0  0  0
   11.6694   13.8871   23.5416 C   0  0  0  0  0  0  0  0  0  0  0  0
    5.4406    9.9164   28.0415 C   0  0  0  0  0  0  0  0  0  0  0  0
    3.9423   10.1081   27.8567 C   0  0  0  0  0  0  0  0  0  0  0  0
    3.2139    8.8224   28.1462 C   0  0  0  0  0  0  0  0  0  0  0  0
    2.8616    7.7876   27.0035 C   0  0  0  0  0  0  0  0  0  0  0  0
    1.9249    7.2914   28.1605 C   0  0  0  0  0  0  0  0  0  0  0  0
    2.8843    6.9323   29.3055 C   0  0  0  0  0  0  0  0  0  0  0  0
    3.7797    8.0564   29.2478 O   0  0  0  0  0  0  0  0  0  0  0  0
    1.6477    8.8236   28.3511 C   0  0  0  0  0  0  0  0  0  0  0  0
 14 15  1  0  0  0
 15 13  1  0  0  0
 13  5  1  0  0  0
  5  6  2  0  0  0
  6  7  1  0  0  0
  7  1  1  0  0  0
  1  2  2  0  0  0
  1  3  1  0  0  0
  3 16  1  0  0  0
 16 17  1  0  0  0
 18 17  1  0  0  0
 18 19  1  0  0  0
 20 19  1  0  0  0
 20 21  1  0  0  0
 21 22  1  0  0  0
 20 23  1  0  0  0
  7  8  2  0  0  0
  8  9  1  0  0  0
  9 10  2  0  0  0
  9 11  1  0  0  0
 11  5  1  0  0  0
 22 18  1  0  0  0
 23 18  1  0  0  0
  3  4  1  0  0  0
 11 12  1  0  0  0
M  END
> <minimizedAffinity>
-5.58166

> <minimizedRMSD>
1.60313

$$$$
C11061-P25


 26 29  0  0  0  0  0  0  0  0999 V2000
   20.0009   13.6416    2.8293 O   0  0  0  0  0  0  0  0  0  0  0  0
   20.6170   14.4452    2.2468 C   0  0  0  0  0  0  0  0  0  0  0  0
   22.1476   14.6712    2.1640 N   0  0  0  0  0  0  0  0  0  0  0  0
   22.4193   15.4729    1.6613 H   0  0  0  0  0  0  0  0  0  0  0  0
   19.9643   15.5097    1.3603 C   0  0  0  0  0  0  0  0  0  0  0  0
   19.3413   16.6305    2.1576 C   0  0  0  0  0  0  0  0  0  0  0  0
   17.9994   16.5573    2.5495 C   0  0  0  0  0  0  0  0  0  0  0  0
   17.4343   17.5557    3.3503 C   0  0  0  0  0  0  0  0  0  0  0  0
   18.2023   18.6570    3.7484 C   0  0  0  0  0  0  0  0  0  0  0  0
   19.5338   18.7533    3.3208 C   0  0  0  0  0  0  0  0  0  0  0  0
   20.0983   17.7464    2.5341 C   0  0  0  0  0  0  0  0  0  0  0  0
   17.6600   19.6780    4.5795 N   0  0  0  0  0  0  0  0  0  0  0  0
   16.3358   19.9094    4.8909 C   0  0  0  0  0  0  0  0  0  0  0  0
   16.2983   21.0002    5.7264 C   0  0  0  0  0  0  0  0  0  0  0  0
   17.6401   21.3736    5.8741 C   0  0  0  0  0  0  0  0  0  0  0  0
   18.4681   20.5884    5.1856 N   0  0  0  0  0  0  0  0  0  0  0  0
   23.2356   13.9004    2.7020 C   0  0  0  0  0  0  0  0  0  0  0  0
   23.8096   13.0965    1.5960 C   0  0  0  0  0  0  0  0  0  0  0  0
   23.3289   12.9850    0.3696 N   0  0  0  0  0  0  0  0  0  0  0  0
   24.1579   12.1625   -0.3497 N   0  0  0  0  0  0  0  0  0  0  0  0
   25.1406   11.7975    0.4409 C   0  0  0  0  0  0  0  0  0  0  0  0
   24.9615   12.3641    1.6745 N   0  0  0  0  0  0  0  0  0  0  0  0
   25.9181   12.2852    2.7569 C   0  0  0  0  0  0  0  0  0  0  0  0
   26.9774   11.2012    2.5304 C   0  0  0  0  0  0  0  0  0  0  0  0
   27.4603   11.1838    1.0783 C   0  0  0  0  0  0  0  0  0  0  0  0
   26.2946   10.9226    0.1233 C   0  0  0  0  0  0  0  0  0  0  0  0
  1  2  2  0  0  0
  2  5  1  0  0  0
  5  6  1  0  0  0
  6  7  2  0  0  0
  7  8  1  0  0  0
  8  9  2  0  0  0
  9 12  1  0  0  0
 12 13  1  0  0  0
 13 14  2  0  0  0
 14 15  1  0  0  0
 15 16  2  0  0  0
  9 10  1  0  0  0
 10 11  2  0  0  0
  2  3  1  0  0  0
  3 17  1  0  0  0
 17 18  1  0  0  0
 18 19  2  0  0  0
 19 20  1  0  0  0
 20 21  2  0  0  0
 21 22  1  0  0  0
 22 23  1  0  0  0
 23 24  1  0  0  0
 24 25  1  0  0  0
 25 26  1  0  0  0
 11  6  1  0  0  0
 22 18  1  0  0  0
 16 12  1  0  0  0
 26 21  1  0  0  0
  3  4  1  0  0  0
M  END
> <minimizedAffinity>
-4.89742

> <minimizedRMSD>
1.31341

$$$$
C11211-P161


 13 13  0  0  0  0  0  0  0  0999 V2000
    9.3776   13.4890   24.2739 C   0  0  0  0  0  0  0  0  0  0  0  0
    9.7930   14.0562   25.2827 O   0  0  0  0  0  0  0  0  0  0  0  0
    8.8182   12.1311   24.4312 C   0  0  0  0  0  0  0  0  0  0  0  0
    9.2997   11.0330   23.7250 C   0  0  0  0  0  0  0  0  0  0  0  0
    8.7342    9.7850   23.9657 C   0  0  0  0  0  0  0  0  0  0  0  0
    7.7046    9.6877   24.8921 C   0  0  0  0  0  0  0  0  0  0  0  0
    7.2281   10.7323   25.6023 N   0  0  0  0  0  0  0  0  0  0  0  0
    7.7941   11.9363   25.3504 C   0  0  0  0  0  0  0  0  0  0  0  0
    7.9470   14.1279   22.3324 C   0  0  0  0  0  0  0  0  0  0  0  0
    9.3719   14.1195   22.8796 C   0  0  0  0  0  0  0  0  0  0  0  0
    9.8938   15.5616   22.9074 C   0  0  0  0  0  0  0  0  0  0  0  0
   11.2938   15.6335   22.4801 C   0  0  0  0  0  0  0  0  0  0  0  0
   12.3943   15.6688   22.1161 N   0  0  0  0  0  0  0  0  0  0  0  0
 10  9  1  0  0  0
 10 11  1  0  0  0
 11 12  1  0  0  0
 12 13  3  0  0  0
 10  1  1  0  0  0
  1  2  2  0  0  0
  1  3  1  0  0  0
  3  4  2  0  0  0
  4  5  1  0  0  0
  5  6  2  0  0  0
  6  7  1  0  0  0
  7  8  2  0  0  0
  8  3  1  0  0  0
M  END
> <minimizedAffinity>
-4.56344

> <minimizedRMSD>
1.32396

$$$$
C11216-P161


 13 13  0  0  0  0  0  0  0  0999 V2000
    8.7729   13.6527   24.6515 C   0  0  0  0  0  0  0  0  0  0  0  0
    9.0880   14.3749   25.5937 O   0  0  0  0  0  0  0  0  0  0  0  0
    8.1143   12.3896   24.9885 C   0  0  0  0  0  0  0  0  0  0  0  0
    8.4785   11.1915   24.3879 C   0  0  0  0  0  0  0  0  0  0  0  0
    7.8475   10.0311   24.8075 C   0  0  0  0  0  0  0  0  0  0  0  0
    6.8757   10.1162   25.7963 C   0  0  0  0  0  0  0  0  0  0  0  0
    6.5195   11.2656   26.4066 N   0  0  0  0  0  0  0  0  0  0  0  0
    7.1497   12.3853   25.9865 C   0  0  0  0  0  0  0  0  0  0  0  0
    8.9897   13.9211   23.1740 C   0  0  0  0  0  0  0  0  0  0  0  0
    9.7282   15.5362   22.8441 S   0  0  0  0  0  0  0  0  0  0  0  0
   12.1411   16.1089   21.7390 C   0  0  0  0  0  0  0  0  0  0  0  0
   11.4395   15.0057   22.5148 C   0  0  0  0  0  0  0  0  0  0  0  0
   12.1705   14.6979   23.8142 C   0  0  0  0  0  0  0  0  0  0  0  0
 11 12  1  0  0  0
 12 13  1  0  0  0
 12 10  1  0  0  0
 10  9  1  0  0  0
  9  1  1  0  0  0
  1  2  2  0  0  0
  1  3  1  0  0  0
  3  4  2  0  0  0
  4  5  1  0  0  0
  5  6  2  0  0  0
  6  7  1  0  0  0
  7  8  2  0  0  0
  8  3  1  0  0  0
M  END
> <minimizedAffinity>
-4.61917

> <minimizedRMSD>
1.01422

$$$$
C11228-P161


 17 17  0  0  0  0  0  0  0  0999 V2000
    8.6182   14.2096   23.3243 C   0  0  0  0  0  0  0  0  0  0  0  0
    7.7251   13.7852   22.5853 O   0  0  0  0  0  0  0  0  0  0  0  0
    8.6363   14.2607   25.8637 C   0  0  0  0  0  0  0  0  0  0  0  0
    9.0592   13.4735   24.6095 C   0  0  0  0  0  0  0  0  0  0  0  0
    8.6160   12.0164   24.6242 C   0  0  0  0  0  0  0  0  0  0  0  0
    9.2702   11.0955   23.7958 C   0  0  0  0  0  0  0  0  0  0  0  0
    8.8890    9.7652   23.8318 C   0  0  0  0  0  0  0  0  0  0  0  0
    7.9064    9.2878   24.6231 N   0  0  0  0  0  0  0  0  0  0  0  0
    7.2630   10.1887   25.3926 C   0  0  0  0  0  0  0  0  0  0  0  0
    7.5718   11.5403   25.4243 C   0  0  0  0  0  0  0  0  0  0  0  0
    9.3552   15.5110   23.0091 C   0  0  0  0  0  0  0  0  0  0  0  0
    9.8435   15.6565   21.5526 C   0  0  0  0  0  0  0  0  0  0  0  0
    9.4910   17.0629   21.0661 C   0  0  0  0  0  0  0  0  0  0  0  0
   11.3691   15.3575   21.3624 C   0  0  0  0  0  0  0  0  0  0  0  0
   12.2678   16.5241   21.7960 C   0  0  0  0  0  0  0  0  0  0  0  0
   11.6767   15.0894   19.8717 C   0  0  0  0  0  0  0  0  0  0  0  0
   11.7697   14.1516   22.2236 C   0  0  0  0  0  0  0  0  0  0  0  0
  4  3  1  0  0  0
  4  1  1  0  0  0
  1  2  2  0  0  0
  1 11  1  0  0  0
 11 12  1  0  0  0
 12 13  1  0  0  0
 12 14  1  0  0  0
 14 15  1  0  0  0
 14 16  1  0  0  0
 14 17  1  0  0  0
  4  5  1  0  0  0
  5  6  2  0  0  0
  6  7  1  0  0  0
  7  8  2  0  0  0
  8  9  1  0  0  0
  9 10  2  0  0  0
 10  5  1  0  0  0
M  END
> <minimizedAffinity>
-5.99998

> <minimizedRMSD>
0.84667

$$$$
C11229-P161


 15 15  0  0  0  0  0  0  0  0999 V2000
    9.1622   13.8142   24.6874 C   0  0  0  0  0  0  0  0  0  0  0  0
   10.0152   14.1428   25.5087 O   0  0  0  0  0  0  0  0  0  0  0  0
    8.7860   12.3999   24.6089 C   0  0  0  0  0  0  0  0  0  0  0  0
    9.4664   11.4958   23.8009 C   0  0  0  0  0  0  0  0  0  0  0  0
    9.0712   10.1638   23.8263 C   0  0  0  0  0  0  0  0  0  0  0  0
    8.0061    9.8031   24.6429 C   0  0  0  0  0  0  0  0  0  0  0  0
    7.3429   10.6592   25.4495 N   0  0  0  0  0  0  0  0  0  0  0  0
    7.7496   11.9480   25.4131 C   0  0  0  0  0  0  0  0  0  0  0  0
    8.4198   14.7866   23.7976 C   0  0  0  0  0  0  0  0  0  0  0  0
    8.9942   14.8846   22.3955 C   0  0  0  0  0  0  0  0  0  0  0  0
    9.8354   16.1408   22.1792 C   0  0  0  0  0  0  0  0  0  0  0  0
   11.2957   15.9310   22.5766 C   0  0  0  0  0  0  0  0  0  0  0  0
   12.2891   16.1626   21.4425 C   0  0  0  0  0  0  0  0  0  0  0  0
   11.5472   15.2921   19.0398 C   0  0  0  0  0  0  0  0  0  0  0  0
   11.8623   15.6213   20.1499 C   0  0  0  0  0  0  0  0  0  0  0  0
 14 15  3  0  0  0
 15 13  1  0  0  0
 13 12  1  0  0  0
 12 11  1  0  0  0
 11 10  1  0  0  0
 10  9  1  0  0  0
  9  1  1  0  0  0
  1  2  2  0  0  0
  1  3  1  0  0  0
  3  4  2  0  0  0
  4  5  1  0  0  0
  5  6  2  0  0  0
  6  7  1  0  0  0
  7  8  2  0  0  0
  8  3  1  0  0  0
M  END
> <minimizedAffinity>
-5.26196

> <minimizedRMSD>
1.42196

$$$$
C8032-P310


 17 17  0  0  0  0  0  0  0  0999 V2000
    9.6775   14.2574   23.3677 N   0  0  0  0  0  0  0  0  0  0  0  0
   10.3452   13.0527   24.0500 C   0  0  0  0  0  0  0  0  0  0  0  0
   11.4655   12.8452   24.2860 O   0  0  0  0  0  0  0  0  0  0  0  0
    8.7098   14.1601   23.2148 H   0  0  0  0  0  0  0  0  0  0  0  0
    9.3444   12.0167   24.4455 C   0  0  0  0  0  0  0  0  0  0  0  0
    8.3762   12.2375   25.4290 C   0  0  0  0  0  0  0  0  0  0  0  0
    7.5250   11.1971   25.8051 C   0  0  0  0  0  0  0  0  0  0  0  0
    7.6739    9.9657   25.1906 C   0  0  0  0  0  0  0  0  0  0  0  0
    8.6049    9.7145   24.2474 N   0  0  0  0  0  0  0  0  0  0  0  0
    9.4241   10.7421   23.8958 C   0  0  0  0  0  0  0  0  0  0  0  0
   10.2411   15.5153   22.9121 C   0  0  0  0  0  0  0  0  0  0  0  0
   10.2818   17.0069   20.8729 C   0  0  0  0  0  0  0  0  0  0  0  0
   10.5184   15.5786   21.3957 C   0  0  0  0  0  0  0  0  0  0  0  0
    9.5650   14.6513   20.6455 C   0  0  0  0  0  0  0  0  0  0  0  0
   11.9786   15.2242   21.0918 C   0  0  0  0  0  0  0  0  0  0  0  0
   12.7852   16.2491   21.4787 F   0  0  0  0  0  0  0  0  0  0  0  0
   12.1454   15.0871   19.7504 F   0  0  0  0  0  0  0  0  0  0  0  0
 12 13  1  0  0  0
 13 14  1  0  0  0
 13 11  1  0  0  0
 11  1  1  0  0  0
  1  2  1  0  0  0
  2  3  2  0  0  0
  2  5  1  0  0  0
  5  6  2  0  0  0
  6  7  1  0  0  0
  7  8  2  0  0  0
  8  9  1  0  0  0
  9 10  2  0  0  0
 13 15  1  0  0  0
 15 16  1  0  0  0
 15 17  1  0  0  0
 10  5  1  0  0  0
  1  4  1  0  0  0
M  END
> <minimizedAffinity>
-6.40326

> <minimizedRMSD>
1.26765

$$$$
C8041-P310


 20 20  0  0  0  0  0  0  0  0999 V2000
    9.8175   14.8888   23.1531 N   0  0  0  0  0  0  0  0  0  0  0  0
    8.8186   13.7070   23.3884 C   0  0  0  0  0  0  0  0  0  0  0  0
    7.9048   13.3463   22.7482 O   0  0  0  0  0  0  0  0  0  0  0  0
   10.4615   15.0361   23.8831 H   0  0  0  0  0  0  0  0  0  0  0  0
    9.3498   12.9771   24.6589 C   0  0  0  0  0  0  0  0  0  0  0  0
    9.5675   13.8818   25.6699 F   0  0  0  0  0  0  0  0  0  0  0  0
   10.6141   12.4829   24.3954 F   0  0  0  0  0  0  0  0  0  0  0  0
    8.4407   11.8562   25.0886 C   0  0  0  0  0  0  0  0  0  0  0  0
    7.4073   12.0420   26.0104 C   0  0  0  0  0  0  0  0  0  0  0  0
    6.6546   10.9405   26.3806 C   0  0  0  0  0  0  0  0  0  0  0  0
    6.8765    9.6938   25.9120 N   0  0  0  0  0  0  0  0  0  0  0  0
    7.8685    9.5553   25.0066 C   0  0  0  0  0  0  0  0  0  0  0  0
    8.6468   10.5888   24.5497 C   0  0  0  0  0  0  0  0  0  0  0  0
    8.6835   16.6286   21.8978 C   0  0  0  0  0  0  0  0  0  0  0  0
    9.9478   15.8007   22.0354 C   0  0  0  0  0  0  0  0  0  0  0  0
   10.2748   14.9553   20.8084 C   0  0  0  0  0  0  0  0  0  0  0  0
   10.5423   15.7383   19.5584 C   0  0  0  0  0  0  0  0  0  0  0  0
    9.5543   15.6283   18.6602 F   0  0  0  0  0  0  0  0  0  0  0  0
   10.6584   17.0353   19.8531 F   0  0  0  0  0  0  0  0  0  0  0  0
   11.6839   15.3269   18.9678 F   0  0  0  0  0  0  0  0  0  0  0  0
 15 14  1  0  0  0
 15 16  1  0  0  0
 16 17  1  0  0  0
 17 18  1  0  0  0
 17 19  1  0  0  0
 17 20  1  0  0  0
 15  1  1  0  0  0
  1  2  1  0  0  0
  2  3  2  0  0  0
  2  5  1  0  0  0
  5  6  1  0  0  0
  5  7  1  0  0  0
  5  8  1  0  0  0
  8  9  2  0  0  0
  9 10  1  0  0  0
 10 11  2  0  0  0
 11 12  1  0  0  0
 12 13  2  0  0  0
 13  8  1  0  0  0
  1  4  1  0  0  0
M  END
> <minimizedAffinity>
-6.24482

> <minimizedRMSD>
0.46497

$$$$
C8057-P310


 14 14  0  0  0  0  0  0  0  0999 V2000
   10.8551   12.2288   24.1396 O   0  0  0  0  0  0  0  0  0  0  0  0
    9.7420   12.3451   23.8284 C   0  0  0  0  0  0  0  0  0  0  0  0
    9.0948   13.2455   22.7690 N   0  0  0  0  0  0  0  0  0  0  0  0
    8.1291   13.1031   22.6414 H   0  0  0  0  0  0  0  0  0  0  0  0
    8.7370   11.5581   24.5800 C   0  0  0  0  0  0  0  0  0  0  0  0
    7.8794   12.1211   25.5283 C   0  0  0  0  0  0  0  0  0  0  0  0
    6.9879   11.2988   26.2157 C   0  0  0  0  0  0  0  0  0  0  0  0
    6.9929    9.9436   25.9347 C   0  0  0  0  0  0  0  0  0  0  0  0
    7.8285    9.3715   25.0430 N   0  0  0  0  0  0  0  0  0  0  0  0
    8.6962   10.1855   24.3923 C   0  0  0  0  0  0  0  0  0  0  0  0
    9.6742   14.2737   21.9239 C   0  0  0  0  0  0  0  0  0  0  0  0
   10.4223   15.3994   22.6695 C   0  0  0  0  0  0  0  0  0  0  0  0
   12.1905   15.2455   22.5967 Cl  0  0  0  0  0  0  0  0  0  0  0  0
    9.9150   15.5183   24.3860 Cl  0  0  0  0  0  0  0  0  0  0  0  0
  1  2  2  0  0  0
  2  3  1  0  0  0
  3 11  1  0  0  0
 11 12  1  0  0  0
 12 13  1  0  0  0
 12 14  1  0  0  0
  2  5  1  0  0  0
  5  6  2  0  0  0
  6  7  1  0  0  0
  7  8  2  0  0  0
  8  9  1  0  0  0
  9 10  2  0  0  0
 10  5  1  0  0  0
  3  4  1  0  0  0
M  END
> <minimizedAffinity>
-5.05407

> <minimizedRMSD>
0.84009

$$$$
C4749-P445


 13 14  0  0  0  0  0  0  0  0999 V2000
    8.4372   13.0232   24.3673 C   0  0  0  0  0  0  0  0  0  0  0  0
    7.7271   13.6906   23.1645 C   0  0  0  0  0  0  0  0  0  0  0  0
    8.3855   14.8162   22.5054 N   0  0  0  0  0  0  0  0  0  0  0  0
    9.6512   14.3992   21.8997 C   0  0  0  0  0  0  0  0  0  0  0  0
   10.6574   13.6899   22.8213 C   0  0  0  0  0  0  0  0  0  0  0  0
   10.1835   13.5407   24.5808 S   0  0  0  0  0  0  0  0  0  0  0  0
    8.5693   15.5456   23.1944 H   0  0  0  0  0  0  0  0  0  0  0  0
    7.2981   10.7728   24.9914 C   0  0  0  0  0  0  0  0  0  0  0  0
    7.3975    9.4638   24.7633 N   0  0  0  0  0  0  0  0  0  0  0  0
    8.4738    9.3595   23.9588 N   0  0  0  0  0  0  0  0  0  0  0  0
    9.0421   10.5698   23.6762 C   0  0  0  0  0  0  0  0  0  0  0  0
    8.3020   11.5283   24.3425 C   0  0  0  0  0  0  0  0  0  0  0  0
    8.8141    8.5032   23.6119 H   0  0  0  0  0  0  0  0  0  0  0  0
  8  9  2  0  0  0
  9 10  1  0  0  0
 10 11  1  0  0  0
 11 12  2  0  0  0
  1 12  1  0  0  0
  1  2  1  0  0  0
  2  3  1  0  0  0
  3  4  1  0  0  0
  4  5  1  0  0  0
  5  6  1  0  0  0
 12  8  1  0  0  0
  6  1  1  0  0  0
 10 13  1  0  0  0
  3  7  1  0  0  0
M  END
> <minimizedAffinity>
-5.38522

> <minimizedRMSD>
0.99587

$$$$
C4755-P445


 12 13  0  0  0  0  0  0  0  0999 V2000
    7.1952   10.6487   24.9930 C   0  0  0  0  0  0  0  0  0  0  0  0
    7.3309    9.3351   24.8122 N   0  0  0  0  0  0  0  0  0  0  0  0
    8.4111    9.2332   24.0098 N   0  0  0  0  0  0  0  0  0  0  0  0
    8.9570   10.4406   23.6984 C   0  0  0  0  0  0  0  0  0  0  0  0
    8.1754   11.4021   24.3133 C   0  0  0  0  0  0  0  0  0  0  0  0
    8.7672    8.3752   23.6837 H   0  0  0  0  0  0  0  0  0  0  0  0
    8.2842   12.8816   24.2563 C   0  0  0  0  0  0  0  0  0  0  0  0
    7.4947   13.3389   23.1055 N   0  0  0  0  0  0  0  0  0  0  0  0
    8.2127   14.4387   22.4599 C   0  0  0  0  0  0  0  0  0  0  0  0
    9.6722   14.0207   22.3664 C   0  0  0  0  0  0  0  0  0  0  0  0
   10.0078   13.3997   24.0276 S   0  0  0  0  0  0  0  0  0  0  0  0
    6.5807   13.6629   23.4218 H   0  0  0  0  0  0  0  0  0  0  0  0
  1  2  2  0  0  0
  2  3  1  0  0  0
  3  4  1  0  0  0
  4  5  2  0  0  0
  7  5  1  0  0  0
  7  8  1  0  0  0
  8  9  1  0  0  0
  9 10  1  0  0  0
 10 11  1  0  0  0
  5  1  1  0  0  0
 11  7  1  0  0  0
  3  6  1  0  0  0
  8 12  1  0  0  0
M  END
> <minimizedAffinity>
-5.17876

> <minimizedRMSD>
0.63271

$$$$
C4761-P445


 13 14  0  0  0  0  0  0  0  0999 V2000
    8.2046   12.9808   24.6847 C   0  0  0  0  0  0  0  0  0  0  0  0
    9.6296   13.5443   24.5280 C   0  0  0  0  0  0  0  0  0  0  0  0
   10.1696   13.7524   22.8012 S   0  0  0  0  0  0  0  0  0  0  0  0
    8.7363   14.7107   22.2287 C   0  0  0  0  0  0  0  0  0  0  0  0
    7.4404   13.9877   22.5495 C   0  0  0  0  0  0  0  0  0  0  0  0
    7.1540   13.7116   23.9601 N   0  0  0  0  0  0  0  0  0  0  0  0
    6.2978   13.1591   24.0053 H   0  0  0  0  0  0  0  0  0  0  0  0
    7.1429   10.6348   25.0776 C   0  0  0  0  0  0  0  0  0  0  0  0
    7.3346    9.3505   24.7801 N   0  0  0  0  0  0  0  0  0  0  0  0
    8.4213    9.3648   23.9840 N   0  0  0  0  0  0  0  0  0  0  0  0
    8.9125   10.6246   23.7844 C   0  0  0  0  0  0  0  0  0  0  0  0
    8.0979   11.4947   24.4841 C   0  0  0  0  0  0  0  0  0  0  0  0
    8.8187    8.5554   23.5888 H   0  0  0  0  0  0  0  0  0  0  0  0
  8  9  2  0  0  0
  9 10  1  0  0  0
 10 11  1  0  0  0
 11 12  2  0  0  0
  1 12  1  0  0  0
  1  2  1  0  0  0
  2  3  1  0  0  0
  3  4  1  0  0  0
  4  5  1  0  0  0
  5  6  1  0  0  0
 12  8  1  0  0  0
  6  1  1  0  0  0
 10 13  1  0  0  0
  6  7  1  0  0  0
M  END
> <minimizedAffinity>
-5.32352

> <minimizedRMSD>
0.93840

$$$$
C4763-P445


 13 14  0  0  0  0  0  0  0  0999 V2000
    6.5055   13.2010   26.0880 C   0  0  0  0  0  0  0  0  0  0  0  0
    7.6197   12.8426   25.4201 C   0  0  0  0  0  0  0  0  0  0  0  0
    8.7468   13.8349   25.2227 C   0  0  0  0  0  0  0  0  0  0  0  0
    8.7242   14.9383   26.2120 N   0  0  0  0  0  0  0  0  0  0  0  0
    7.3929   15.5707   26.1821 C   0  0  0  0  0  0  0  0  0  0  0  0
    6.2940   14.5921   26.6167 C   0  0  0  0  0  0  0  0  0  0  0  0
    9.4373   15.6277   25.9741 H   0  0  0  0  0  0  0  0  0  0  0  0
    7.8368   11.5245   24.9132 C   0  0  0  0  0  0  0  0  0  0  0  0
    7.0810   10.3647   25.1831 C   0  0  0  0  0  0  0  0  0  0  0  0
    7.5464    9.2878   24.5544 N   0  0  0  0  0  0  0  0  0  0  0  0
    8.5980    9.7546   23.8527 N   0  0  0  0  0  0  0  0  0  0  0  0
    8.8173   11.0938   24.0476 C   0  0  0  0  0  0  0  0  0  0  0  0
    9.1505    9.1930   23.2623 H   0  0  0  0  0  0  0  0  0  0  0  0
  1  2  2  0  0  0
  2  8  1  0  0  0
  8  9  1  0  0  0
  9 10  2  0  0  0
 10 11  1  0  0  0
 11 12  1  0  0  0
  2  3  1  0  0  0
  3  4  1  0  0  0
  4  5  1  0  0  0
  5  6  1  0  0  0
  6  1  1  0  0  0
 12  8  2  0  0  0
 11 13  1  0  0  0
  4  7  1  0  0  0
M  END
> <minimizedAffinity>
-4.59214

> <minimizedRMSD>
0.53440

$$$$
C92804-P51


 22 24  0  0  0  0  0  0  0  0999 V2000
    9.7711   13.8561    0.6456 C   0  0  0  0  0  0  0  0  0  0  0  0
    8.7209   12.8819    0.9338 N   0  0  0  0  0  0  0  0  0  0  0  0
    8.7640   11.6197    0.1885 C   0  0  0  0  0  0  0  0  0  0  0  0
    9.1303   10.4174    1.0576 C   0  0  0  0  0  0  0  0  0  0  0  0
    8.1228   10.3280    2.2044 C   0  0  0  0  0  0  0  0  0  0  0  0
    7.8904   11.6553    2.8770 C   0  0  0  0  0  0  0  0  0  0  0  0
    7.3438   11.6582    4.1690 C   0  0  0  0  0  0  0  0  0  0  0  0
    7.0835   12.8535    4.8293 C   0  0  0  0  0  0  0  0  0  0  0  0
    7.3409   14.0583    4.1929 C   0  0  0  0  0  0  0  0  0  0  0  0
    7.8803   14.0595    2.9029 C   0  0  0  0  0  0  0  0  0  0  0  0
    8.1785   12.8665    2.2210 C   0  0  0  0  0  0  0  0  0  0  0  0
   10.5722   10.4501    1.5808 C   0  0  0  0  0  0  0  0  0  0  0  0
   11.5110    9.8510    0.6594 N   0  0  0  0  0  0  0  0  0  0  0  0
   12.5300   10.5013   -0.2945 C   0  0  0  0  0  0  0  0  0  0  0  0
   12.8279   11.6191   -0.4330 O   0  0  0  0  0  0  0  0  0  0  0  0
   11.4966    8.8668    0.6382 H   0  0  0  0  0  0  0  0  0  0  0  0
   13.2257    9.4905   -1.1312 C   0  0  0  0  0  0  0  0  0  0  0  0
   12.5884    8.3744   -1.6626 C   0  0  0  0  0  0  0  0  0  0  0  0
   13.3421    7.5213   -2.4441 C   0  0  0  0  0  0  0  0  0  0  0  0
   14.6473    7.7353   -2.7075 N   0  0  0  0  0  0  0  0  0  0  0  0
   15.2633    8.8413   -2.2068 N   0  0  0  0  0  0  0  0  0  0  0  0
   14.5574    9.7008   -1.4430 C   0  0  0  0  0  0  0  0  0  0  0  0
  1  2  1  0  0  0
  2  3  1  0  0  0
  3  4  1  0  0  0
  4 12  1  0  0  0
 12 13  1  0  0  0
 13 14  1  0  0  0
 14 15  2  0  0  0
 14 17  1  0  0  0
 17 18  2  0  0  0
 18 19  1  0  0  0
 19 20  2  0  0  0
 20 21  1  0  0  0
 21 22  2  0  0  0
  4  5  1  0  0  0
  5  6  1  0  0  0
  6  7  2  0  0  0
  7  8  1  0  0  0
  8  9  2  0  0  0
  9 10  1  0  0  0
 10 11  2  0  0  0
 11  2  1  0  0  0
 22 17  1  0  0  0
 11  6  1  0  0  0
 13 16  1  0  0  0
M  END
> <minimizedAffinity>
-3.35692

> <minimizedRMSD>
1.58438

$$$$
C7585-P199


 15 15  0  0  0  0  0  0  0  0999 V2000
    8.8031   13.5579   22.9315 N   0  0  0  0  0  0  0  0  0  0  0  0
    7.9600   13.4623   22.3654 H   0  0  0  0  0  0  0  0  0  0  0  0
    9.6456   14.5535   22.3328 N   0  0  0  0  0  0  0  0  0  0  0  0
   11.0938   14.2387   22.4103 C   0  0  0  0  0  0  0  0  0  0  0  0
   11.9973   14.9669   21.3980 C   0  0  0  0  0  0  0  0  0  0  0  0
   11.4899   14.9072   20.0304 N   0  0  0  0  0  0  0  0  0  0  0  0
   10.1570   15.5001   20.0292 C   0  0  0  0  0  0  0  0  0  0  0  0
    9.2119   14.6960   20.9208 C   0  0  0  0  0  0  0  0  0  0  0  0
   11.4394   13.9368   19.7201 H   0  0  0  0  0  0  0  0  0  0  0  0
    8.3429   13.9480   24.5359 S   0  0  0  0  0  0  0  0  0  0  0  0
    7.4627   15.0926   24.4750 O   0  0  0  0  0  0  0  0  0  0  0  0
    9.4907   13.9225   25.4125 O   0  0  0  0  0  0  0  0  0  0  0  0
    7.3266   12.5323   24.8736 C   0  0  0  0  0  0  0  0  0  0  0  0
    8.9210   10.6093   24.2017 C   0  0  0  0  0  0  0  0  0  0  0  0
    8.0648   11.2738   25.2721 C   0  0  0  0  0  0  0  0  0  0  0  0
 14 15  1  0  0  0
 15 13  1  0  0  0
 13 10  1  0  0  0
 10 11  2  0  0  0
 10 12  2  0  0  0
 10  1  1  0  0  0
  1  3  1  0  0  0
  3  4  1  0  0  0
  4  5  1  0  0  0
  5  6  1  0  0  0
  6  7  1  0  0  0
  7  8  1  0  0  0
  8  3  1  0  0  0
  1  2  1  0  0  0
  6  9  1  0  0  0
M  END
> <minimizedAffinity>
-4.52041

> <minimizedRMSD>
0.99881

$$$$
C7646-P199


 15 16  0  0  0  0  0  0  0  0999 V2000
    6.9199   15.1358   25.3861 C   0  0  0  0  0  0  0  0  0  0  0  0
    5.8508   15.0184   24.3109 C   0  0  0  0  0  0  0  0  0  0  0  0
    5.1079   15.6401   21.8680 N   0  0  0  0  0  0  0  0  0  0  0  0
    6.4652   15.0496   22.6242 S   0  0  0  0  0  0  0  0  0  0  0  0
    7.5060   16.0363   22.4979 O   0  0  0  0  0  0  0  0  0  0  0  0
    6.6598   13.7197   22.0999 O   0  0  0  0  0  0  0  0  0  0  0  0
    5.2858   15.7245   20.8672 H   0  0  0  0  0  0  0  0  0  0  0  0
    4.8771   16.5569   22.2508 H   0  0  0  0  0  0  0  0  0  0  0  0
    7.1229   13.8244   26.1550 C   0  0  0  0  0  0  0  0  0  0  0  0
    8.3298   13.1125   25.7554 N   0  0  0  0  0  0  0  0  0  0  0  0
    8.0397   12.0687   24.7666 C   0  0  0  0  0  0  0  0  0  0  0  0
    9.4069   11.8015   24.2203 C   0  0  0  0  0  0  0  0  0  0  0  0
    9.9325   12.3856   22.9849 C   0  0  0  0  0  0  0  0  0  0  0  0
   10.1631   13.0600   24.3396 C   0  0  0  0  0  0  0  0  0  0  0  0
    9.3289   13.9840   25.1285 C   0  0  0  0  0  0  0  0  0  0  0  0
  3  4  1  0  0  0
  4  5  2  0  0  0
  4  6  2  0  0  0
  4  2  1  0  0  0
  2  1  1  0  0  0
  1  9  1  0  0  0
  9 10  1  0  0  0
 10 11  1  0  0  0
 12 11  1  0  0  0
 12 13  1  0  0  0
 14 13  1  0  0  0
 14 15  1  0  0  0
 15 10  1  0  0  0
 14 12  1  0  0  0
  3  7  1  0  0  0
  3  8  1  0  0  0
M  END
> <minimizedAffinity>
-3.65518

> <minimizedRMSD>
1.53729

$$$$
C1805-P190


 16 18  0  0  0  0  0  0  0  0999 V2000
    9.3946   14.5414   23.3660 C   0  0  0  0  0  0  0  0  0  0  0  0
    9.8355   13.3250   23.1225 N   0  0  0  0  0  0  0  0  0  0  0  0
    9.0175   12.3881   23.7324 C   0  0  0  0  0  0  0  0  0  0  0  0
    7.9917   12.9191   24.4799 C   0  0  0  0  0  0  0  0  0  0  0  0
    8.0444   14.6221   24.4308 S   0  0  0  0  0  0  0  0  0  0  0  0
    6.9159   12.2421   25.2249 C   0  0  0  0  0  0  0  0  0  0  0  0
    7.1195   10.4587   25.4105 S   0  0  0  0  0  0  0  0  0  0  0  0
    8.1983   10.0003   24.0145 C   0  0  0  0  0  0  0  0  0  0  0  0
    9.2995   10.9418   23.5539 C   0  0  0  0  0  0  0  0  0  0  0  0
   12.4440   15.7938   23.2387 C   0  0  0  0  0  0  0  0  0  0  0  0
   11.1019   16.3536   23.6638 C   0  0  0  0  0  0  0  0  0  0  0  0
    9.9417   15.8331   22.8127 C   0  0  0  0  0  0  0  0  0  0  0  0
   10.2750   15.7449   21.3175 C   0  0  0  0  0  0  0  0  0  0  0  0
   11.6939   15.2679   21.0362 C   0  0  0  0  0  0  0  0  0  0  0  0
   12.6538   16.0458   21.8191 N   0  0  0  0  0  0  0  0  0  0  0  0
   12.5226   17.0390   21.6274 H   0  0  0  0  0  0  0  0  0  0  0  0
 10 11  1  0  0  0
 11 12  1  0  0  0
 12  1  1  0  0  0
  1  2  2  0  0  0
  2  3  1  0  0  0
  3  4  2  0  0  0
  4  5  1  0  0  0
  4  6  1  0  0  0
  6  7  1  0  0  0
  7  8  1  0  0  0
  8  9  1  0  0  0
 12 13  1  0  0  0
 13 14  1  0  0  0
 14 15  1  0  0  0
 15 10  1  0  0  0
  5  1  1  0  0  0
  9  3  1  0  0  0
 15 16  1  0  0  0
M  END
> <minimizedAffinity>
-5.07478

> <minimizedRMSD>
0.29902

$$$$
C7054-P192


 18 18  0  0  0  0  0  0  0  0999 V2000
   11.8970   14.6372   23.7490 C   0  0  0  0  0  0  0  0  0  0  0  0
    9.4801   14.4189   21.5559 O   0  0  0  0  0  0  0  0  0  0  0  0
   10.4257   15.1136   21.4975 C   0  0  0  0  0  0  0  0  0  0  0  0
   11.6051   15.3145   22.5171 N   0  0  0  0  0  0  0  0  0  0  0  0
   12.2476   16.0187   22.2711 H   0  0  0  0  0  0  0  0  0  0  0  0
   10.7420   16.0497   20.2833 C   0  0  0  0  0  0  0  0  0  0  0  0
    9.9887   15.7717   19.1848 F   0  0  0  0  0  0  0  0  0  0  0  0
   10.5656   17.3646   20.5723 F   0  0  0  0  0  0  0  0  0  0  0  0
   12.0420   15.9152   19.8892 F   0  0  0  0  0  0  0  0  0  0  0  0
   10.7803   14.6739   24.7851 C   0  0  0  0  0  0  0  0  0  0  0  0
   10.2850   16.0839   25.1093 C   0  0  0  0  0  0  0  0  0  0  0  0
    8.8109   16.3188   24.7172 C   0  0  0  0  0  0  0  0  0  0  0  0
    7.9812   15.0338   24.6213 C   0  0  0  0  0  0  0  0  0  0  0  0
    6.5288   15.3370   24.2283 C   0  0  0  0  0  0  0  0  0  0  0  0
    6.1225   16.7898   24.4833 C   0  0  0  0  0  0  0  0  0  0  0  0
    6.6813   17.2449   25.7459 N   0  0  0  0  0  0  0  0  0  0  0  0
    8.1472   17.3017   25.7087 C   0  0  0  0  0  0  0  0  0  0  0  0
    6.3951   16.6015   26.4838 H   0  0  0  0  0  0  0  0  0  0  0  0
  2  3  2  0  0  0
  3  4  1  0  0  0
  4  1  1  0  0  0
  1 10  1  0  0  0
 10 11  1  0  0  0
 12 11  1  0  0  0
 12 13  1  0  0  0
 13 14  1  0  0  0
 14 15  1  0  0  0
 15 16  1  0  0  0
 16 17  1  0  0  0
  3  6  1  0  0  0
  6  7  1  0  0  0
  6  8  1  0  0  0
  6  9  1  0  0  0
 17 12  1  0  0  0
  4  5  1  0  0  0
 16 18  1  0  0  0
M  END
> <minimizedAffinity>
-4.64726

> <minimizedRMSD>
1.15667

$$$$
C17572-P125


 20 21  0  0  0  0  0  0  0  0999 V2000
   18.9326   -2.6557   19.8611 C   0  0  0  0  0  0  0  0  0  0  0  0
   18.0111   -3.2326   19.1483 N   0  0  0  0  0  0  0  0  0  0  0  0
   17.1950   -3.8861   20.0279 N   0  0  0  0  0  0  0  0  0  0  0  0
   17.5594   -3.7352   21.3584 C   0  0  0  0  0  0  0  0  0  0  0  0
   17.0171   -4.1925   22.3512 O   0  0  0  0  0  0  0  0  0  0  0  0
   18.8203   -2.9260   21.3325 C   0  0  0  0  0  0  0  0  0  0  0  0
   16.4168   -4.4174   19.7428 H   0  0  0  0  0  0  0  0  0  0  0  0
   18.7893   -1.7039   22.2211 C   0  0  0  0  0  0  0  0  0  0  0  0
   18.7427   -0.6078   21.8097 O   0  0  0  0  0  0  0  0  0  0  0  0
   18.9354   -2.2308   23.6880 N   0  0  0  0  0  0  0  0  0  0  0  0
   19.0273   -3.2077   23.7683 H   0  0  0  0  0  0  0  0  0  0  0  0
   18.9565   -1.5417   24.8972 C   0  0  0  0  0  0  0  0  0  0  0  0
   18.9107   -2.2599   26.0893 C   0  0  0  0  0  0  0  0  0  0  0  0
   18.9442   -1.5781   27.3043 C   0  0  0  0  0  0  0  0  0  0  0  0
   19.0085   -0.1944   27.2827 C   0  0  0  0  0  0  0  0  0  0  0  0
   19.0297    0.5386   26.1472 N   0  0  0  0  0  0  0  0  0  0  0  0
   19.0315   -0.1564   24.9783 C   0  0  0  0  0  0  0  0  0  0  0  0
   20.0289   -1.8163   19.2759 C   0  0  0  0  0  0  0  0  0  0  0  0
   22.3330   -1.3934   19.4087 C   0  0  0  0  0  0  0  0  0  0  0  0
   21.2524   -2.1718   19.9107 O   0  0  0  0  0  0  0  0  0  0  0  0
 19 20  1  0  0  0
 20 18  1  0  0  0
 18  1  1  0  0  0
  1  2  2  0  0  0
  2  3  1  0  0  0
  3  4  1  0  0  0
  4  5  2  0  0  0
  4  6  1  0  0  0
  6  8  1  0  0  0
  8  9  2  0  0  0
  8 10  1  0  0  0
 10 12  1  0  0  0
 12 13  2  0  0  0
 13 14  1  0  0  0
 14 15  2  0  0  0
 15 16  1  0  0  0
 16 17  2  0  0  0
  6  1  1  0  0  0
 17 12  1  0  0  0
  3  7  1  0  0  0
 10 11  1  0  0  0
M  END
> <minimizedAffinity>
-3.28862

> <minimizedRMSD>
1.53099

$$$$
C995-P439


 25 28  0  0  0  0  0  0  0  0999 V2000
   19.9089   12.9548    3.7465 O   0  0  0  0  0  0  0  0  0  0  0  0
   20.1151   13.9151    3.1136 C   0  0  0  0  0  0  0  0  0  0  0  0
   21.4504   14.6109    2.7522 N   0  0  0  0  0  0  0  0  0  0  0  0
   21.3536   15.4604    2.2641 H   0  0  0  0  0  0  0  0  0  0  0  0
   19.0058   14.6635    2.3804 C   0  0  0  0  0  0  0  0  0  0  0  0
   18.5622   15.8725    3.1395 C   0  0  0  0  0  0  0  0  0  0  0  0
   19.3590   16.7137    3.7699 N   0  0  0  0  0  0  0  0  0  0  0  0
   18.6414   17.8001    4.2640 C   0  0  0  0  0  0  0  0  0  0  0  0
   17.2840   17.7343    4.0163 C   0  0  0  0  0  0  0  0  0  0  0  0
   16.8968   16.3037    3.1614 S   0  0  0  0  0  0  0  0  0  0  0  0
   19.4103   18.8747    4.9900 C   0  0  0  0  0  0  0  0  0  0  0  0
   19.0179   19.0231    6.4584 C   0  0  0  0  0  0  0  0  0  0  0  0
   17.8742   20.0280    6.4696 C   0  0  0  0  0  0  0  0  0  0  0  0
   18.0818   20.9144    5.2452 C   0  0  0  0  0  0  0  0  0  0  0  0
   19.2081   20.2820    4.4276 C   0  0  0  0  0  0  0  0  0  0  0  0
   22.8045   14.2194    3.0127 C   0  0  0  0  0  0  0  0  0  0  0  0
   23.3128   13.4961    1.8182 C   0  0  0  0  0  0  0  0  0  0  0  0
   22.7909   13.4816    0.6031 N   0  0  0  0  0  0  0  0  0  0  0  0
   23.5805   12.6938   -0.2003 N   0  0  0  0  0  0  0  0  0  0  0  0
   24.5765   12.2501    0.5321 C   0  0  0  0  0  0  0  0  0  0  0  0
   24.4460   12.7315    1.8063 N   0  0  0  0  0  0  0  0  0  0  0  0
   25.4220   12.5537    2.8579 C   0  0  0  0  0  0  0  0  0  0  0  0
   26.4820   11.5020    2.5214 C   0  0  0  0  0  0  0  0  0  0  0  0
   26.9042   11.5684    1.0516 C   0  0  0  0  0  0  0  0  0  0  0  0
   25.7017   11.3740    0.1257 C   0  0  0  0  0  0  0  0  0  0  0  0
  1  2  2  0  0  0
  2  5  1  0  0  0
  5  6  1  0  0  0
  6  7  2  0  0  0
  7  8  1  0  0  0
  8 11  1  0  0  0
 11 12  1  0  0  0
 12 13  1  0  0  0
 13 14  1  0  0  0
 14 15  1  0  0  0
  8  9  2  0  0  0
  9 10  1  0  0  0
  2  3  1  0  0  0
  3 16  1  0  0  0
 16 17  1  0  0  0
 17 18  2  0  0  0
 18 19  1  0  0  0
 19 20  2  0  0  0
 20 21  1  0  0  0
 21 22  1  0  0  0
 22 23  1  0  0  0
 23 24  1  0  0  0
 24 25  1  0  0  0
 10  6  1  0  0  0
 21 17  1  0  0  0
 15 11  1  0  0  0
 25 20  1  0  0  0
  3  4  1  0  0  0
M  END
> <minimizedAffinity>
-4.67888

> <minimizedRMSD>
0.55889

$$$$
C37374-P54


 23 26  0  0  0  0  0  0  0  0999 V2000
   20.7467   -3.0679   17.0927 O   0  0  0  0  0  0  0  0  0  0  0  0
   20.1872   -2.5072   17.9454 C   0  0  0  0  0  0  0  0  0  0  0  0
   20.6419   -1.3321   18.8362 N   0  0  0  0  0  0  0  0  0  0  0  0
   19.9489   -0.9812   19.4412 H   0  0  0  0  0  0  0  0  0  0  0  0
   18.8471   -2.9274   18.4392 C   0  0  0  0  0  0  0  0  0  0  0  0
   17.7031   -3.1590   17.5834 C   0  0  0  0  0  0  0  0  0  0  0  0
   16.5238   -3.5433   18.1172 C   0  0  0  0  0  0  0  0  0  0  0  0
   16.4733   -3.6925   19.4783 N   0  0  0  0  0  0  0  0  0  0  0  0
   17.5383   -3.6296   20.3312 C   0  0  0  0  0  0  0  0  0  0  0  0
   17.4728   -3.9481   21.5104 O   0  0  0  0  0  0  0  0  0  0  0  0
   18.8052   -3.1750   19.7557 C   0  0  0  0  0  0  0  0  0  0  0  0
   15.5893   -3.8603   19.8777 H   0  0  0  0  0  0  0  0  0  0  0  0
   15.3029   -3.8629   17.3529 C   0  0  0  0  0  0  0  0  0  0  0  0
   14.8417   -5.3033   17.2885 C   0  0  0  0  0  0  0  0  0  0  0  0
   13.9818   -4.2747   17.9610 C   0  0  0  0  0  0  0  0  0  0  0  0
   21.9150   -0.6652   18.9265 C   0  0  0  0  0  0  0  0  0  0  0  0
   22.2538   -0.5075   20.4033 C   0  0  0  0  0  0  0  0  0  0  0  0
   23.2485    0.5851   20.6537 C   0  0  0  0  0  0  0  0  0  0  0  0
   24.7997    0.4396   20.4084 C   0  0  0  0  0  0  0  0  0  0  0  0
   24.7588    1.6812   21.3734 C   0  0  0  0  0  0  0  0  0  0  0  0
   23.8946    2.7249   20.6527 C   0  0  0  0  0  0  0  0  0  0  0  0
   22.8540    1.8845   20.1300 O   0  0  0  0  0  0  0  0  0  0  0  0
   23.7128    0.8174   22.1496 C   0  0  0  0  0  0  0  0  0  0  0  0
  1  2  2  0  0  0
  2  3  1  0  0  0
  3 16  1  0  0  0
 16 17  1  0  0  0
 18 17  1  0  0  0
 18 19  1  0  0  0
 20 19  1  0  0  0
 20 21  1  0  0  0
 21 22  1  0  0  0
 20 23  1  0  0  0
  2  5  1  0  0  0
  5  6  1  0  0  0
  6  7  2  0  0  0
  7 13  1  0  0  0
 13 14  1  0  0  0
 14 15  1  0  0  0
  7  8  1  0  0  0
  8  9  1  0  0  0
  9 10  2  0  0  0
  9 11  1  0  0  0
 22 18  1  0  0  0
 11  5  2  0  0  0
 23 18  1  0  0  0
 15 13  1  0  0  0
  3  4  1  0  0  0
  8 12  1  0  0  0
M  END
> <minimizedAffinity>
-5.07328

> <minimizedRMSD>
0.82467

$$$$
C37377-P54


 21 23  0  0  0  0  0  0  0  0999 V2000
   20.9241   -0.9686   19.5429 O   0  0  0  0  0  0  0  0  0  0  0  0
   20.5070   -1.7510   18.7880 C   0  0  0  0  0  0  0  0  0  0  0  0
   21.1134   -2.3021   17.4841 N   0  0  0  0  0  0  0  0  0  0  0  0
   20.5235   -2.9068   16.9786 H   0  0  0  0  0  0  0  0  0  0  0  0
   19.2147   -2.4633   19.0403 C   0  0  0  0  0  0  0  0  0  0  0  0
   18.2527   -2.7843   17.9982 C   0  0  0  0  0  0  0  0  0  0  0  0
   17.1112   -3.3809   18.3541 C   0  0  0  0  0  0  0  0  0  0  0  0
   15.8921   -3.9569   17.3242 Cl  0  0  0  0  0  0  0  0  0  0  0  0
   16.8458   -3.6683   19.6488 N   0  0  0  0  0  0  0  0  0  0  0  0
   17.7444   -3.5125   20.6642 C   0  0  0  0  0  0  0  0  0  0  0  0
   17.5591   -3.9736   21.7814 O   0  0  0  0  0  0  0  0  0  0  0  0
   18.9871   -2.7931   20.3231 C   0  0  0  0  0  0  0  0  0  0  0  0
   15.9502   -4.0106   19.8724 H   0  0  0  0  0  0  0  0  0  0  0  0
   22.4039   -2.0766   16.8837 C   0  0  0  0  0  0  0  0  0  0  0  0
   23.1443   -3.3753   16.6126 C   0  0  0  0  0  0  0  0  0  0  0  0
   24.6024   -3.1081   16.3549 C   0  0  0  0  0  0  0  0  0  0  0  0
   25.2252   -3.3813   14.9280 C   0  0  0  0  0  0  0  0  0  0  0  0
   26.3674   -2.5406   15.5974 C   0  0  0  0  0  0  0  0  0  0  0  0
   26.7806   -3.3688   16.8225 C   0  0  0  0  0  0  0  0  0  0  0  0
   25.4875   -3.7494   17.3201 O   0  0  0  0  0  0  0  0  0  0  0  0
   25.1763   -1.6559   16.1058 C   0  0  0  0  0  0  0  0  0  0  0  0
  1  2  2  0  0  0
  2  3  1  0  0  0
  3 14  1  0  0  0
 14 15  1  0  0  0
 16 15  1  0  0  0
 16 17  1  0  0  0
 18 17  1  0  0  0
 18 19  1  0  0  0
 19 20  1  0  0  0
 18 21  1  0  0  0
  2  5  1  0  0  0
  5  6  1  0  0  0
  6  7  2  0  0  0
  7  8  1  0  0  0
  7  9  1  0  0  0
  9 10  1  0  0  0
 10 11  2  0  0  0
 10 12  1  0  0  0
 20 16  1  0  0  0
 12  5  2  0  0  0
 21 16  1  0  0  0
  3  4  1  0  0  0
  9 13  1  0  0  0
M  END
> <minimizedAffinity>
-4.31933

> <minimizedRMSD>
0.78670

$$$$
C1922-P198


 12 13  0  0  0  0  0  0  0  0999 V2000
    7.3429   11.9269   24.6722 C   0  0  0  0  0  0  0  0  0  0  0  0
    7.7119   13.0442   24.0852 N   0  0  0  0  0  0  0  0  0  0  0  0
    8.8593   12.7346   23.4302 C   0  0  0  0  0  0  0  0  0  0  0  0
    9.1940   11.4157   23.6042 C   0  0  0  0  0  0  0  0  0  0  0  0
    8.2257   10.9127   24.4240 N   0  0  0  0  0  0  0  0  0  0  0  0
    8.1728    9.9929   24.7712 H   0  0  0  0  0  0  0  0  0  0  0  0
    9.5776   13.6246   22.7175 N   0  0  0  0  0  0  0  0  0  0  0  0
   10.5896   14.3677   23.4885 C   0  0  0  0  0  0  0  0  0  0  0  0
   11.7289   14.8421   22.5974 C   0  0  0  0  0  0  0  0  0  0  0  0
   11.1732   15.9993   21.3248 S   0  0  0  0  0  0  0  0  0  0  0  0
    9.8143   14.9906   20.6612 C   0  0  0  0  0  0  0  0  0  0  0  0
    8.8593   14.4756   21.7470 C   0  0  0  0  0  0  0  0  0  0  0  0
  1  2  2  0  0  0
  2  3  1  0  0  0
  3  7  1  0  0  0
  7  8  1  0  0  0
  8  9  1  0  0  0
  9 10  1  0  0  0
 10 11  1  0  0  0
 11 12  1  0  0  0
  3  4  2  0  0  0
  4  5  1  0  0  0
  5  1  1  0  0  0
 12  7  1  0  0  0
  5  6  1  0  0  0
M  END
> <minimizedAffinity>
-4.35245

> <minimizedRMSD>
0.55421

$$$$
C7479-P497


 24 25  0  0  0  0  0  0  0  0999 V2000
    7.3163   14.7814   22.7363 S   0  0  0  0  0  0  0  0  0  0  0  0
    7.3087   13.4075   22.2571 O   0  0  0  0  0  0  0  0  0  0  0  0
    8.1978   15.6708   22.0099 O   0  0  0  0  0  0  0  0  0  0  0  0
    7.1754   14.9616   24.2531 N   0  0  0  0  0  0  0  0  0  0  0  0
    8.4999   14.6661   24.9838 S   0  0  0  0  0  0  0  0  0  0  0  0
    8.2473   15.1817   26.6691 C   0  0  0  0  0  0  0  0  0  0  0  0
    9.7794   15.2287   24.6026 O   0  0  0  0  0  0  0  0  0  0  0  0
    8.7782   12.8979   25.1924 C   0  0  0  0  0  0  0  0  0  0  0  0
    9.6218   12.3400   24.0524 C   0  0  0  0  0  0  0  0  0  0  0  0
    9.8198   10.8391   24.0946 C   0  0  0  0  0  0  0  0  0  0  0  0
    8.6690    9.9912   24.6024 C   0  0  0  0  0  0  0  0  0  0  0  0
    7.7881   10.6421   25.6533 C   0  0  0  0  0  0  0  0  0  0  0  0
    7.4935   12.1076   25.3848 C   0  0  0  0  0  0  0  0  0  0  0  0
    5.8038   15.3510   22.2899 N   0  0  0  0  0  0  0  0  0  0  0  0
    5.5718   16.1267   22.9103 H   0  0  0  0  0  0  0  0  0  0  0  0
    4.6971   14.4015   22.3396 C   0  0  0  0  0  0  0  0  0  0  0  0
    3.2885   13.9141   20.2025 C   0  0  0  0  0  0  0  0  0  0  0  0
    2.3144   14.5963   19.5328 O   0  0  0  0  0  0  0  0  0  0  0  0
    2.2666   15.7953   20.1536 C   0  0  0  0  0  0  0  0  0  0  0  0
    3.0897   15.9358   21.1706 N   0  0  0  0  0  0  0  0  0  0  0  0
    3.7307   14.7146   21.2426 C   0  0  0  0  0  0  0  0  0  0  0  0
    3.4420   12.4646   18.1837 C   0  0  0  0  0  0  0  0  0  0  0  0
    3.5967   12.5540   19.7007 C   0  0  0  0  0  0  0  0  0  0  0  0
    2.7245   11.5068   20.3921 C   0  0  0  0  0  0  0  0  0  0  0  0
 22 23  1  0  0  0
 23 24  1  0  0  0
 23 17  1  0  0  0
 17 18  1  0  0  0
 18 19  1  0  0  0
 19 20  2  0  0  0
 20 21  1  0  0  0
 21 16  1  0  0  0
 16 14  1  0  0  0
 14  1  1  0  0  0
  1  2  2  0  0  0
  1  3  2  0  0  0
  1  4  1  0  0  0
  4  5  2  0  0  0
  5  6  1  0  0  0
  5  7  2  0  0  0
  5  8  1  0  0  0
  8  9  1  0  0  0
  9 10  1  0  0  0
 10 11  1  0  0  0
 11 12  1  0  0  0
 12 13  1  0  0  0
 21 17  2  0  0  0
 13  8  1  0  0  0
 14 15  1  0  0  0
M  END
> <minimizedAffinity>
-5.32438

> <minimizedRMSD>
0.40992

$$$$
C6124-P374


 20 22  0  0  0  0  0  0  0  0999 V2000
    7.6796   14.9841   25.4332 C   0  0  0  0  0  0  0  0  0  0  0  0
    8.5697   15.4880   24.2623 C   0  0  0  0  0  0  0  0  0  0  0  0
    9.5948   14.4568   23.9819 N   0  0  0  0  0  0  0  0  0  0  0  0
    8.9743   13.2610   24.4317 C   0  0  0  0  0  0  0  0  0  0  0  0
    9.3422   11.9578   24.1442 C   0  0  0  0  0  0  0  0  0  0  0  0
    8.6355   10.9009   24.7266 C   0  0  0  0  0  0  0  0  0  0  0  0
    7.5488   11.1525   25.5714 C   0  0  0  0  0  0  0  0  0  0  0  0
    7.1635   12.4635   25.8498 C   0  0  0  0  0  0  0  0  0  0  0  0
    7.8947   13.5038   25.2902 C   0  0  0  0  0  0  0  0  0  0  0  0
   10.3754   14.6305   22.7857 C   0  0  0  0  0  0  0  0  0  0  0  0
   11.9097   14.5288   22.9429 C   0  0  0  0  0  0  0  0  0  0  0  0
   12.0249   15.7660   22.0326 C   0  0  0  0  0  0  0  0  0  0  0  0
   10.5989   16.1362   22.4715 C   0  0  0  0  0  0  0  0  0  0  0  0
    7.0451   15.1761   27.9237 C   0  0  0  0  0  0  0  0  0  0  0  0
    8.0272   15.6098   26.8162 C   0  0  0  0  0  0  0  0  0  0  0  0
    9.4454   15.2443   27.3018 C   0  0  0  0  0  0  0  0  0  0  0  0
    7.9475   17.1355   26.6635 C   0  0  0  0  0  0  0  0  0  0  0  0
    8.8913   17.8960   26.8217 O   0  0  0  0  0  0  0  0  0  0  0  0
    6.7390   17.6077   26.2825 O   0  0  0  0  0  0  0  0  0  0  0  0
    6.0214   17.0170   26.1637 H   0  0  0  0  0  0  0  0  0  0  0  0
 14 15  1  0  0  0
 15 16  1  0  0  0
 15 17  1  0  0  0
 17 18  2  0  0  0
 17 19  1  0  0  0
  1 15  1  0  0  0
  1  2  1  0  0  0
  2  3  1  0  0  0
  3 10  1  0  0  0
 10 11  1  0  0  0
 11 12  1  0  0  0
 12 13  1  0  0  0
  3  4  1  0  0  0
  4  5  2  0  0  0
  5  6  1  0  0  0
  6  7  2  0  0  0
  7  8  1  0  0  0
  8  9  2  0  0  0
  9  1  1  0  0  0
 13 10  1  0  0  0
  9  4  1  0  0  0
 19 20  1  0  0  0
M  END
> <minimizedAffinity>
-5.30724

> <minimizedRMSD>
3.25850

$$$$
C90727-P22


 12 12  0  0  0  0  0  0  0  0999 V2000
    7.1182   13.1147   26.1977 C   0  0  0  0  0  0  0  0  0  0  0  0
    6.7733   12.1365   27.3107 C   0  0  0  0  0  0  0  0  0  0  0  0
    6.3529   10.8566   26.6431 C   0  0  0  0  0  0  0  0  0  0  0  0
    7.3350   10.3869   25.6970 N   0  0  0  0  0  0  0  0  0  0  0  0
    8.1898   11.1487   24.9654 C   0  0  0  0  0  0  0  0  0  0  0  0
    8.8576   10.6268   24.0764 O   0  0  0  0  0  0  0  0  0  0  0  0
    8.3274   12.5934   25.3849 C   0  0  0  0  0  0  0  0  0  0  0  0
    7.3918    9.4126   25.5677 H   0  0  0  0  0  0  0  0  0  0  0  0
    5.9680   15.0246   27.4156 C   0  0  0  0  0  0  0  0  0  0  0  0
    7.2429   14.5821   26.6605 C   0  0  0  0  0  0  0  0  0  0  0  0
    8.4424   14.7974   27.5991 C   0  0  0  0  0  0  0  0  0  0  0  0
    7.3880   15.4503   25.3903 C   0  0  0  0  0  0  0  0  0  0  0  0
  9 10  1  0  0  0
 10 11  1  0  0  0
 10 12  1  0  0  0
  1 10  1  0  0  0
  1  2  1  0  0  0
  2  3  1  0  0  0
  3  4  1  0  0  0
  4  5  1  0  0  0
  5  6  2  0  0  0
  5  7  1  0  0  0
  7  1  1  0  0  0
  4  8  1  0  0  0
M  END
> <minimizedAffinity>
-4.00102

> <minimizedRMSD>
0.90748

$$$$
C90672-P296


 11 12  0  0  0  0  0  0  0  0999 V2000
    7.2138   12.5494   25.3874 C   0  0  0  0  0  0  0  0  0  0  0  0
    7.3243   11.0897   25.8430 C   0  0  0  0  0  0  0  0  0  0  0  0
    8.0861   10.2043   24.8719 C   0  0  0  0  0  0  0  0  0  0  0  0
    9.3049   10.8152   24.2742 C   0  0  0  0  0  0  0  0  0  0  0  0
    9.0655   11.7586   23.2262 O   0  0  0  0  0  0  0  0  0  0  0  0
    9.5755   12.2906   24.4323 C   0  0  0  0  0  0  0  0  0  0  0  0
    8.6297   13.1514   25.2026 C   0  0  0  0  0  0  0  0  0  0  0  0
    4.9761   12.6898   26.6779 C   0  0  0  0  0  0  0  0  0  0  0  0
    6.2928   13.4167   26.3263 C   0  0  0  0  0  0  0  0  0  0  0  0
    6.9733   13.8007   27.6544 C   0  0  0  0  0  0  0  0  0  0  0  0
    5.9137   14.7130   25.5829 C   0  0  0  0  0  0  0  0  0  0  0  0
  8  9  1  0  0  0
  9 10  1  0  0  0
  9 11  1  0  0  0
  1  9  1  0  0  0
  1  2  1  0  0  0
  2  3  1  0  0  0
  4  3  1  0  0  0
  4  5  1  0  0  0
  5  6  1  0  0  0
  6  7  1  0  0  0
  7  1  1  0  0  0
  6  4  1  0  0  0
M  END
> <minimizedAffinity>
-3.45444

> <minimizedRMSD>
0.86235

$$$$
C90689-P296


 10 10  0  0  0  0  0  0  0  0999 V2000
    8.2835   12.8496   25.6808 C   0  0  0  0  0  0  0  0  0  0  0  0
    7.7525   11.4645   25.3605 C   0  0  0  0  0  0  0  0  0  0  0  0
    8.9705   10.7099   24.2527 S   0  0  0  0  0  0  0  0  0  0  0  0
    9.5774   12.2799   23.5788 C   0  0  0  0  0  0  0  0  0  0  0  0
    8.9098   13.3533   24.3943 C   0  0  0  0  0  0  0  0  0  0  0  0
    8.9883   14.5393   24.0934 O   0  0  0  0  0  0  0  0  0  0  0  0
    7.3555   13.8418   26.4098 C   0  0  0  0  0  0  0  0  0  0  0  0
    5.5682   14.3081   24.6282 C   0  0  0  0  0  0  0  0  0  0  0  0
    5.8557   13.9336   26.0774 C   0  0  0  0  0  0  0  0  0  0  0  0
    5.0432   12.7222   26.5373 C   0  0  0  0  0  0  0  0  0  0  0  0
  8  9  1  0  0  0
  9 10  1  0  0  0
  9  7  1  0  0  0
  1  7  1  0  0  0
  1  2  1  0  0  0
  2  3  1  0  0  0
  3  4  1  0  0  0
  4  5  1  0  0  0
  5  6  2  0  0  0
  5  1  1  0  0  0
M  END
> <minimizedAffinity>
-2.71341

> <minimizedRMSD>
0.36538

$$$$
C90691-P22


 11 11  0  0  0  0  0  0  0  0999 V2000
   10.2888   14.4367   23.2986 C   0  0  0  0  0  0  0  0  0  0  0  0
   11.0983   13.1474   23.3584 C   0  0  0  0  0  0  0  0  0  0  0  0
   10.2480   11.8969   23.3246 C   0  0  0  0  0  0  0  0  0  0  0  0
    9.1644   11.8881   24.3644 C   0  0  0  0  0  0  0  0  0  0  0  0
    8.4191   13.1713   24.5578 C   0  0  0  0  0  0  0  0  0  0  0  0
    7.3080   13.1458   25.0956 O   0  0  0  0  0  0  0  0  0  0  0  0
    9.1609   14.4697   24.3487 C   0  0  0  0  0  0  0  0  0  0  0  0
   11.1903   15.6702   23.5370 C   0  0  0  0  0  0  0  0  0  0  0  0
   11.4652   15.9720   21.0205 C   0  0  0  0  0  0  0  0  0  0  0  0
   12.0639   16.2267   22.3950 C   0  0  0  0  0  0  0  0  0  0  0  0
   13.5404   15.8281   22.4384 C   0  0  0  0  0  0  0  0  0  0  0  0
  9 10  1  0  0  0
 10 11  1  0  0  0
 10  8  1  0  0  0
  1  8  1  0  0  0
  1  2  1  0  0  0
  2  3  1  0  0  0
  3  4  1  0  0  0
  4  5  1  0  0  0
  5  6  2  0  0  0
  5  7  1  0  0  0
  7  1  1  0  0  0
M  END
> <minimizedAffinity>
-4.65264

> <minimizedRMSD>
1.63569

$$$$
C9352-P201


 15 15  0  0  0  0  0  0  0  0999 V2000
    8.7216   13.2549   23.6173 C   0  0  0  0  0  0  0  0  0  0  0  0
    8.9699   14.4113   24.5875 C   0  0  0  0  0  0  0  0  0  0  0  0
    9.9808   12.6437   23.3223 O   0  0  0  0  0  0  0  0  0  0  0  0
   10.5793   13.3044   22.9400 H   0  0  0  0  0  0  0  0  0  0  0  0
    7.7349   12.2188   24.2340 C   0  0  0  0  0  0  0  0  0  0  0  0
    8.2646   10.7921   24.2135 C   0  0  0  0  0  0  0  0  0  0  0  0
    7.3456   10.0440   25.1525 C   0  0  0  0  0  0  0  0  0  0  0  0
    6.6036   11.1091   25.9330 C   0  0  0  0  0  0  0  0  0  0  0  0
    7.3264   12.3507   25.6569 N   0  0  0  0  0  0  0  0  0  0  0  0
    8.1428   12.4375   26.2621 H   0  0  0  0  0  0  0  0  0  0  0  0
    8.0420   13.8375   22.3504 C   0  0  0  0  0  0  0  0  0  0  0  0
    6.8499   13.7403   22.0789 O   0  0  0  0  0  0  0  0  0  0  0  0
   10.1380   15.8388   19.4587 C   0  0  0  0  0  0  0  0  0  0  0  0
    9.4491   15.1670   20.5559 C   0  0  0  0  0  0  0  0  0  0  0  0
    8.8575   14.5849   21.4219 C   0  0  0  0  0  0  0  0  0  0  0  0
 13 14  1  0  0  0
 14 15  3  0  0  0
 15 11  1  0  0  0
 11 12  2  0  0  0
 11  1  1  0  0  0
  1  2  1  0  0  0
  1  3  1  0  0  0
  1  5  1  0  0  0
  5  6  1  0  0  0
  6  7  1  0  0  0
  7  8  1  0  0  0
  8  9  1  0  0  0
  9  5  1  0  0  0
  3  4  1  0  0  0
  9 10  1  0  0  0
M  END
> <minimizedAffinity>
-5.17295

> <minimizedRMSD>
0.91990

$$$$
C9353-P201


 18 18  0  0  0  0  0  0  0  0999 V2000
    6.8658   13.6820   22.4418 O   0  0  0  0  0  0  0  0  0  0  0  0
    7.6167   14.4395   23.4187 S   0  0  0  0  0  0  0  0  0  0  0  0
    7.0749   15.6242   24.0409 O   0  0  0  0  0  0  0  0  0  0  0  0
    9.0787   14.8948   22.7111 N   0  0  0  0  0  0  0  0  0  0  0  0
    9.5817   14.0457   22.4535 H   0  0  0  0  0  0  0  0  0  0  0  0
    8.9611   15.7471   21.4938 C   0  0  0  0  0  0  0  0  0  0  0  0
    9.6128   15.0072   20.3471 C   0  0  0  0  0  0  0  0  0  0  0  0
    9.9727   15.9160   19.2020 C   0  0  0  0  0  0  0  0  0  0  0  0
    9.1462   15.8251   18.1579 F   0  0  0  0  0  0  0  0  0  0  0  0
   10.0305   17.2058   19.5923 F   0  0  0  0  0  0  0  0  0  0  0  0
   11.1703   15.5481   18.7225 F   0  0  0  0  0  0  0  0  0  0  0  0
    8.1854   13.3578   24.7284 C   0  0  0  0  0  0  0  0  0  0  0  0
    7.6301   11.9629   24.4892 C   0  0  0  0  0  0  0  0  0  0  0  0
    8.7148   11.0177   24.0003 C   0  0  0  0  0  0  0  0  0  0  0  0
    8.1760    9.6398   24.3073 C   0  0  0  0  0  0  0  0  0  0  0  0
    7.0000    9.8616   25.2359 C   0  0  0  0  0  0  0  0  0  0  0  0
    7.1391   11.2483   25.6849 N   0  0  0  0  0  0  0  0  0  0  0  0
    7.8109   11.3163   26.4494 H   0  0  0  0  0  0  0  0  0  0  0  0
  1  2  2  0  0  0
  2  3  2  0  0  0
  2 12  1  0  0  0
 13 12  1  0  0  0
 13 14  1  0  0  0
 14 15  1  0  0  0
 15 16  1  0  0  0
 16 17  1  0  0  0
  2  4  1  0  0  0
  4  6  1  0  0  0
  6  7  1  0  0  0
  7  8  1  0  0  0
  8  9  1  0  0  0
  8 10  1  0  0  0
  8 11  1  0  0  0
 17 13  1  0  0  0
 17 18  1  0  0  0
  4  5  1  0  0  0
M  END
> <minimizedAffinity>
-5.13104

> <minimizedRMSD>
1.18385

$$$$
C9359-P201


 17 17  0  0  0  0  0  0  0  0999 V2000
    8.3674   13.4172   24.7412 N   0  0  0  0  0  0  0  0  0  0  0  0
    7.1847   12.5349   25.0608 C   0  0  0  0  0  0  0  0  0  0  0  0
    7.5629   11.0647   25.0754 C   0  0  0  0  0  0  0  0  0  0  0  0
    6.5288   10.4060   25.9569 C   0  0  0  0  0  0  0  0  0  0  0  0
    5.8057   11.4571   26.6670 N   0  0  0  0  0  0  0  0  0  0  0  0
    6.5214   12.7132   26.4209 C   0  0  0  0  0  0  0  0  0  0  0  0
    5.7868   11.2551   27.6666 H   0  0  0  0  0  0  0  0  0  0  0  0
    8.6903   13.3207   23.0775 S   0  0  0  0  0  0  0  0  0  0  0  0
    7.4290   13.3091   22.3693 O   0  0  0  0  0  0  0  0  0  0  0  0
    9.6551   12.2658   22.8881 O   0  0  0  0  0  0  0  0  0  0  0  0
    9.4917   14.7450   22.7446 N   0  0  0  0  0  0  0  0  0  0  0  0
    9.3234   15.3968   23.5109 H   0  0  0  0  0  0  0  0  0  0  0  0
    9.0568   15.3884   21.4749 C   0  0  0  0  0  0  0  0  0  0  0  0
   10.0728   15.7521   19.2180 C   0  0  0  0  0  0  0  0  0  0  0  0
   10.2515   15.9401   20.7155 C   0  0  0  0  0  0  0  0  0  0  0  0
    8.2440   14.7892   25.2997 C   0  0  0  0  0  0  0  0  0  0  0  0
    7.0219   15.5591   24.8351 C   0  0  0  0  0  0  0  0  0  0  0  0
 14 15  1  0  0  0
 15 13  1  0  0  0
 13 11  1  0  0  0
 11  8  1  0  0  0
  8  9  2  0  0  0
  8 10  2  0  0  0
  8  1  1  0  0  0
  1 16  1  0  0  0
 16 17  1  0  0  0
  2  1  1  0  0  0
  2  3  1  0  0  0
  3  4  1  0  0  0
  4  5  1  0  0  0
  5  6  1  0  0  0
  6  2  1  0  0  0
 11 12  1  0  0  0
  5  7  1  0  0  0
M  END
> <minimizedAffinity>
-4.84377

> <minimizedRMSD>
0.48044

$$$$
C9365-P201


 16 16  0  0  0  0  0  0  0  0999 V2000
    8.7182   13.8617   22.8534 N   0  0  0  0  0  0  0  0  0  0  0  0
    8.1447   13.3355   22.1942 H   0  0  0  0  0  0  0  0  0  0  0  0
    9.1641   12.8276   24.0830 S   0  0  0  0  0  0  0  0  0  0  0  0
   10.1105   11.9003   23.5195 O   0  0  0  0  0  0  0  0  0  0  0  0
    9.4389   13.6088   25.2622 O   0  0  0  0  0  0  0  0  0  0  0  0
    7.7259   12.0097   24.3116 N   0  0  0  0  0  0  0  0  0  0  0  0
    6.7385   12.6071   25.2441 C   0  0  0  0  0  0  0  0  0  0  0  0
    6.4868   11.5430   26.3025 C   0  0  0  0  0  0  0  0  0  0  0  0
    6.7465   10.2411   25.5813 C   0  0  0  0  0  0  0  0  0  0  0  0
    7.8754   10.5661   24.6282 C   0  0  0  0  0  0  0  0  0  0  0  0
    9.8609   14.4948   22.0759 C   0  0  0  0  0  0  0  0  0  0  0  0
   11.0184   14.9467   22.9812 C   0  0  0  0  0  0  0  0  0  0  0  0
   12.2164   15.5246   22.2486 C   0  0  0  0  0  0  0  0  0  0  0  0
    9.2567   15.6199   21.2206 C   0  0  0  0  0  0  0  0  0  0  0  0
   10.2642   15.7185   18.7511 C   0  0  0  0  0  0  0  0  0  0  0  0
    9.8196   15.6833   19.8659 C   0  0  0  0  0  0  0  0  0  0  0  0
 15 16  3  0  0  0
 16 14  1  0  0  0
 11 14  1  0  0  0
 11 12  1  0  0  0
 12 13  1  0  0  0
 11  1  1  0  0  0
  1  3  1  0  0  0
  3  4  2  0  0  0
  3  5  2  0  0  0
  3  6  1  0  0  0
  6  7  1  0  0  0
  7  8  1  0  0  0
  8  9  1  0  0  0
  9 10  1  0  0  0
 10  6  1  0  0  0
  1  2  1  0  0  0
M  END
> <minimizedAffinity>
-5.22721

> <minimizedRMSD>
0.64739

$$$$
C9371-P201


 16 16  0  0  0  0  0  0  0  0999 V2000
    8.7430   13.0204   24.0079 C   0  0  0  0  0  0  0  0  0  0  0  0
    8.9160   14.0999   25.0770 C   0  0  0  0  0  0  0  0  0  0  0  0
   10.0015   12.3597   23.8618 O   0  0  0  0  0  0  0  0  0  0  0  0
   10.6837   13.0103   23.6331 H   0  0  0  0  0  0  0  0  0  0  0  0
    7.6316   12.0093   24.3733 C   0  0  0  0  0  0  0  0  0  0  0  0
    8.0659   10.5577   24.4859 C   0  0  0  0  0  0  0  0  0  0  0  0
    6.9910    9.8974   25.3194 C   0  0  0  0  0  0  0  0  0  0  0  0
    6.1952   10.9502   25.9350 N   0  0  0  0  0  0  0  0  0  0  0  0
    6.8453   12.2296   25.6602 C   0  0  0  0  0  0  0  0  0  0  0  0
    6.1414   10.7989   26.9423 H   0  0  0  0  0  0  0  0  0  0  0  0
    8.3904   13.7556   22.6851 C   0  0  0  0  0  0  0  0  0  0  0  0
    7.2800   13.6568   22.1539 O   0  0  0  0  0  0  0  0  0  0  0  0
    9.4976   14.5668   22.0364 C   0  0  0  0  0  0  0  0  0  0  0  0
    8.9555   15.8108   21.3476 C   0  0  0  0  0  0  0  0  0  0  0  0
   10.1009   15.7556   19.1213 C   0  0  0  0  0  0  0  0  0  0  0  0
    9.9319   16.3118   20.3267 C   0  0  0  0  0  0  0  0  0  0  0  0
 15 16  2  0  0  0
 16 14  1  0  0  0
 14 13  1  0  0  0
 13 11  1  0  0  0
 11 12  2  0  0  0
 11  1  1  0  0  0
  1  2  1  0  0  0
  1  3  1  0  0  0
  1  5  1  0  0  0
  5  6  1  0  0  0
  6  7  1  0  0  0
  7  8  1  0  0  0
  8  9  1  0  0  0
  9  5  1  0  0  0
  3  4  1  0  0  0
  8 10  1  0  0  0
M  END
> <minimizedAffinity>
-5.26912

> <minimizedRMSD>
0.68747

$$$$
C9372-P201


 18 18  0  0  0  0  0  0  0  0999 V2000
   10.1745   12.9737   24.2619 O   0  0  0  0  0  0  0  0  0  0  0  0
    8.8760   13.4704   24.6681 S   0  0  0  0  0  0  0  0  0  0  0  0
    8.7700   14.5416   25.6324 O   0  0  0  0  0  0  0  0  0  0  0  0
    8.0114   12.0818   25.2683 C   0  0  0  0  0  0  0  0  0  0  0  0
    7.9543   10.8360   24.4558 C   0  0  0  0  0  0  0  0  0  0  0  0
    7.0344   10.0080   25.3326 C   0  0  0  0  0  0  0  0  0  0  0  0
    6.0869   10.9405   25.9614 N   0  0  0  0  0  0  0  0  0  0  0  0
    6.5988   12.3032   25.7324 C   0  0  0  0  0  0  0  0  0  0  0  0
    6.0254   10.7540   26.9624 H   0  0  0  0  0  0  0  0  0  0  0  0
    8.0933   14.0216   23.2790 N   0  0  0  0  0  0  0  0  0  0  0  0
    7.7430   14.9660   23.4393 H   0  0  0  0  0  0  0  0  0  0  0  0
    9.0535   14.0353   22.1316 C   0  0  0  0  0  0  0  0  0  0  0  0
    9.4556   15.4372   21.7274 C   0  0  0  0  0  0  0  0  0  0  0  0
   10.6794   15.3563   20.8084 C   0  0  0  0  0  0  0  0  0  0  0  0
   10.3798   15.6366   19.3535 C   0  0  0  0  0  0  0  0  0  0  0  0
    9.3680   14.8779   18.9068 F   0  0  0  0  0  0  0  0  0  0  0  0
   10.1012   16.9383   19.1523 F   0  0  0  0  0  0  0  0  0  0  0  0
   11.4175   15.3188   18.5722 F   0  0  0  0  0  0  0  0  0  0  0  0
  1  2  2  0  0  0
  2  3  2  0  0  0
  2 10  1  0  0  0
 10 12  1  0  0  0
 12 13  1  0  0  0
 13 14  1  0  0  0
 14 15  1  0  0  0
 15 16  1  0  0  0
 15 17  1  0  0  0
 15 18  1  0  0  0
  4  2  1  0  0  0
  4  5  1  0  0  0
  5  6  1  0  0  0
  6  7  1  0  0  0
  7  8  1  0  0  0
  8  4  1  0  0  0
 10 11  1  0  0  0
  7  9  1  0  0  0
M  END
> <minimizedAffinity>
-5.05080

> <minimizedRMSD>
0.68347

$$$$
C9375-P201


 15 15  0  0  0  0  0  0  0  0999 V2000
    8.7054   13.9572   23.3637 S   0  0  0  0  0  0  0  0  0  0  0  0
    9.7305   14.2828   24.3230 O   0  0  0  0  0  0  0  0  0  0  0  0
    7.4191   14.6043   23.3383 O   0  0  0  0  0  0  0  0  0  0  0  0
    8.4165   12.3210   23.4663 N   0  0  0  0  0  0  0  0  0  0  0  0
    9.5497   11.3887   23.4224 C   0  0  0  0  0  0  0  0  0  0  0  0
    8.9316   10.0678   23.8405 C   0  0  0  0  0  0  0  0  0  0  0  0
    7.7539   10.4341   24.7314 C   0  0  0  0  0  0  0  0  0  0  0  0
    7.6393   11.9445   24.6694 C   0  0  0  0  0  0  0  0  0  0  0  0
    9.3557   14.0653   21.8428 N   0  0  0  0  0  0  0  0  0  0  0  0
   10.3132   13.7165   21.8874 H   0  0  0  0  0  0  0  0  0  0  0  0
    9.3944   15.4164   21.2501 C   0  0  0  0  0  0  0  0  0  0  0  0
   11.8999   15.5271   21.7584 C   0  0  0  0  0  0  0  0  0  0  0  0
   10.7801   15.8466   20.7681 C   0  0  0  0  0  0  0  0  0  0  0  0
   11.1009   15.2663   19.4570 C   0  0  0  0  0  0  0  0  0  0  0  0
   11.4074   14.7949   18.4434 N   0  0  0  0  0  0  0  0  0  0  0  0
 13 12  1  0  0  0
 13 14  1  0  0  0
 14 15  3  0  0  0
 13 11  1  0  0  0
 11  9  1  0  0  0
  9  1  1  0  0  0
  1  2  2  0  0  0
  1  3  2  0  0  0
  1  4  1  0  0  0
  4  5  1  0  0  0
  5  6  1  0  0  0
  6  7  1  0  0  0
  7  8  1  0  0  0
  8  4  1  0  0  0
  9 10  1  0  0  0
M  END
> <minimizedAffinity>
-5.30668

> <minimizedRMSD>
0.39529

$$$$
C9379-P201


 16 16  0  0  0  0  0  0  0  0999 V2000
    7.8156   14.2012   23.2329 C   0  0  0  0  0  0  0  0  0  0  0  0
    6.8867   13.5953   22.3298 O   0  0  0  0  0  0  0  0  0  0  0  0
    7.2502   12.7559   22.0070 H   0  0  0  0  0  0  0  0  0  0  0  0
    8.0741   13.4008   24.5288 C   0  0  0  0  0  0  0  0  0  0  0  0
    8.8898   13.7711   25.3770 O   0  0  0  0  0  0  0  0  0  0  0  0
    7.2518   12.1416   24.7002 C   0  0  0  0  0  0  0  0  0  0  0  0
    8.0715   10.9105   24.4118 C   0  0  0  0  0  0  0  0  0  0  0  0
    7.2933    9.8143   25.0917 C   0  0  0  0  0  0  0  0  0  0  0  0
    6.4426   10.5072   26.1433 C   0  0  0  0  0  0  0  0  0  0  0  0
    6.7155   11.9411   26.0627 N   0  0  0  0  0  0  0  0  0  0  0  0
    7.4024   12.2170   26.7645 H   0  0  0  0  0  0  0  0  0  0  0  0
    9.1253   14.4472   22.4933 C   0  0  0  0  0  0  0  0  0  0  0  0
    8.8675   14.7661   21.0219 C   0  0  0  0  0  0  0  0  0  0  0  0
    9.5887   16.0413   20.6222 C   0  0  0  0  0  0  0  0  0  0  0  0
   11.1892   15.0579   18.9856 C   0  0  0  0  0  0  0  0  0  0  0  0
   10.0234   16.0016   19.1648 C   0  0  0  0  0  0  0  0  0  0  0  0
 15 16  1  0  0  0
 16 14  1  0  0  0
 14 13  1  0  0  0
 13 12  1  0  0  0
 12  1  1  0  0  0
  1  2  1  0  0  0
  1  4  1  0  0  0
  4  5  2  0  0  0
  6  4  1  0  0  0
  6  7  1  0  0  0
  7  8  1  0  0  0
  8  9  1  0  0  0
  9 10  1  0  0  0
 10  6  1  0  0  0
  2  3  1  0  0  0
 10 11  1  0  0  0
M  END
> <minimizedAffinity>
-4.98753

> <minimizedRMSD>
0.63622

$$$$
C9386-P201


 16 16  0  0  0  0  0  0  0  0999 V2000
    9.5140   13.2048   24.1224 S   0  0  0  0  0  0  0  0  0  0  0  0
   10.8881   12.7575   24.1226 O   0  0  0  0  0  0  0  0  0  0  0  0
    9.1213   14.3832   24.8677 O   0  0  0  0  0  0  0  0  0  0  0  0
    8.5729   11.8972   24.7632 C   0  0  0  0  0  0  0  0  0  0  0  0
    8.5383   10.5887   24.0566 C   0  0  0  0  0  0  0  0  0  0  0  0
    7.4662    9.8896   24.8663 C   0  0  0  0  0  0  0  0  0  0  0  0
    6.5678   10.9165   25.4185 N   0  0  0  0  0  0  0  0  0  0  0  0
    7.1398   12.2240   25.0619 C   0  0  0  0  0  0  0  0  0  0  0  0
    6.5109   10.8237   26.4326 H   0  0  0  0  0  0  0  0  0  0  0  0
    9.0610   13.4336   22.5173 N   0  0  0  0  0  0  0  0  0  0  0  0
    9.4915   12.6996   21.9549 H   0  0  0  0  0  0  0  0  0  0  0  0
    9.4723   14.7740   21.9460 C   0  0  0  0  0  0  0  0  0  0  0  0
   10.8780   15.2077   22.3970 C   0  0  0  0  0  0  0  0  0  0  0  0
    8.3299   15.7395   22.3060 C   0  0  0  0  0  0  0  0  0  0  0  0
   10.0638   15.5659   19.5884 C   0  0  0  0  0  0  0  0  0  0  0  0
    9.4383   14.7315   20.4399 C   0  0  0  0  0  0  0  0  0  0  0  0
 15 16  2  0  0  0
 16 12  1  0  0  0
 12 13  1  0  0  0
 12 14  1  0  0  0
 12 10  1  0  0  0
 10  1  1  0  0  0
  1  2  2  0  0  0
  1  3  2  0  0  0
  4  1  1  0  0  0
  4  5  1  0  0  0
  5  6  1  0  0  0
  6  7  1  0  0  0
  7  8  1  0  0  0
  8  4  1  0  0  0
 10 11  1  0  0  0
  7  9  1  0  0  0
M  END
> <minimizedAffinity>
-4.60207

> <minimizedRMSD>
0.68744

$$$$
C1329-P252


 13 13  0  0  0  0  0  0  0  0999 V2000
    7.4932   14.0184   25.8582 C   0  0  0  0  0  0  0  0  0  0  0  0
    8.2685   13.5664   24.6183 C   0  0  0  0  0  0  0  0  0  0  0  0
    7.5843   14.1154   23.3229 C   0  0  0  0  0  0  0  0  0  0  0  0
    7.0767   13.4302   22.5247 O   0  0  0  0  0  0  0  0  0  0  0  0
    7.7166   15.6544   23.3835 N   0  0  0  0  0  0  0  0  0  0  0  0
    7.3516   16.6230   22.4686 O   0  0  0  0  0  0  0  0  0  0  0  0
    8.1279   16.0006   24.2083 H   0  0  0  0  0  0  0  0  0  0  0  0
    6.9569   16.1999   21.6900 H   0  0  0  0  0  0  0  0  0  0  0  0
    8.4437   12.0639   24.5388 C   0  0  0  0  0  0  0  0  0  0  0  0
    7.6544   11.0915   25.0186 C   0  0  0  0  0  0  0  0  0  0  0  0
    8.1020    9.7354   24.6025 C   0  0  0  0  0  0  0  0  0  0  0  0
    9.4167    9.9813   23.8900 C   0  0  0  0  0  0  0  0  0  0  0  0
    9.6213   11.4921   23.8094 C   0  0  0  0  0  0  0  0  0  0  0  0
  2  1  1  0  0  0
  2  3  1  0  0  0
  3  4  2  0  0  0
  3  5  1  0  0  0
  5  6  1  0  0  0
  2  9  1  0  0  0
  9 10  2  0  0  0
 10 11  1  0  0  0
 11 12  1  0  0  0
 12 13  1  0  0  0
 13  9  1  0  0  0
  5  7  1  0  0  0
  6  8  1  0  0  0
M  END
> <minimizedAffinity>
-4.34785

> <minimizedRMSD>
0.74087

$$$$
C18177-P122


 12 12  0  0  0  0  0  0  0  0999 V2000
   10.1487   11.6190   23.7130 C   0  0  0  0  0  0  0  0  0  0  0  0
    8.8958   11.7717   24.0527 N   0  0  0  0  0  0  0  0  0  0  0  0
   10.8789   12.8167   23.4194 C   0  0  0  0  0  0  0  0  0  0  0  0
   12.1544   13.0847   23.9142 C   0  0  0  0  0  0  0  0  0  0  0  0
   12.7094   14.1267   23.3132 N   0  0  0  0  0  0  0  0  0  0  0  0
   11.7430   14.6495   22.5724 N   0  0  0  0  0  0  0  0  0  0  0  0
   10.6270   13.8704   22.5691 C   0  0  0  0  0  0  0  0  0  0  0  0
   11.8228   15.4999   22.0828 H   0  0  0  0  0  0  0  0  0  0  0  0
   11.0147    9.2737   22.7807 C   0  0  0  0  0  0  0  0  0  0  0  0
   10.9194   10.3211   23.8936 C   0  0  0  0  0  0  0  0  0  0  0  0
    8.4236   10.6359   24.7340 O   0  0  0  0  0  0  0  0  0  0  0  0
    7.5620   11.0160   25.7877 C   0  0  0  0  0  0  0  0  0  0  0  0
  9 10  1  0  0  0
 10  1  1  0  0  0
  1  2  2  0  0  0
  2 11  1  0  0  0
 11 12  1  0  0  0
  1  3  1  0  0  0
  3  4  1  0  0  0
  4  5  2  0  0  0
  5  6  1  0  0  0
  6  7  1  0  0  0
  7  3  2  0  0  0
  6  8  1  0  0  0
M  END
> <minimizedAffinity>
-4.85547

> <minimizedRMSD>
3.04406

$$$$
C3689-P235


 12 13  0  0  0  0  0  0  0  0999 V2000
    8.4334   12.0705   24.8918 C   0  0  0  0  0  0  0  0  0  0  0  0
    8.2106   10.7040   24.8231 C   0  0  0  0  0  0  0  0  0  0  0  0
    7.1709   10.1446   25.5660 C   0  0  0  0  0  0  0  0  0  0  0  0
    6.4137   10.9586   26.3962 C   0  0  0  0  0  0  0  0  0  0  0  0
    6.6512   12.2849   26.5057 N   0  0  0  0  0  0  0  0  0  0  0  0
    7.6215   12.8146   25.7280 C   0  0  0  0  0  0  0  0  0  0  0  0
    5.2813   10.5105   27.2039 C   0  0  0  0  0  0  0  0  0  0  0  0
    4.4773   11.2368   28.0657 C   0  0  0  0  0  0  0  0  0  0  0  0
    3.4627   10.3636   28.4793 C   0  0  0  0  0  0  0  0  0  0  0  0
    3.6008    9.1509   27.9528 N   0  0  0  0  0  0  0  0  0  0  0  0
    4.7395    9.2478   27.2356 N   0  0  0  0  0  0  0  0  0  0  0  0
    5.1474    8.4795   26.7745 H   0  0  0  0  0  0  0  0  0  0  0  0
  1  2  2  0  0  0
  2  3  1  0  0  0
  3  4  2  0  0  0
  4  7  1  0  0  0
  7  8  2  0  0  0
  8  9  1  0  0  0
  9 10  2  0  0  0
 10 11  1  0  0  0
  4  5  1  0  0  0
  5  6  2  0  0  0
  6  1  1  0  0  0
 11  7  1  0  0  0
 11 12  1  0  0  0
M  END
> <minimizedAffinity>
-3.78184

> <minimizedRMSD>
0.46579

$$$$
C3732-P235


 12 13  0  0  0  0  0  0  0  0999 V2000
    9.7330   11.6136   23.7565 C   0  0  0  0  0  0  0  0  0  0  0  0
    9.1966   10.3468   23.9279 C   0  0  0  0  0  0  0  0  0  0  0  0
    8.1122   10.1785   24.7883 C   0  0  0  0  0  0  0  0  0  0  0  0
    7.6290   11.2698   25.4981 C   0  0  0  0  0  0  0  0  0  0  0  0
    8.1786   12.5018   25.3785 N   0  0  0  0  0  0  0  0  0  0  0  0
    9.1810   12.6529   24.4842 C   0  0  0  0  0  0  0  0  0  0  0  0
    6.4979   11.1735   26.4086 C   0  0  0  0  0  0  0  0  0  0  0  0
    5.8102   10.0749   26.9769 C   0  0  0  0  0  0  0  0  0  0  0  0
    4.7103   10.4261   27.6518 N   0  0  0  0  0  0  0  0  0  0  0  0
    4.7165   11.7610   27.5645 N   0  0  0  0  0  0  0  0  0  0  0  0
    5.7522   12.2542   26.8314 C   0  0  0  0  0  0  0  0  0  0  0  0
    4.0368   12.3322   27.9899 H   0  0  0  0  0  0  0  0  0  0  0  0
  1  2  2  0  0  0
  2  3  1  0  0  0
  3  4  2  0  0  0
  4  7  1  0  0  0
  7  8  1  0  0  0
  8  9  2  0  0  0
  9 10  1  0  0  0
 10 11  1  0  0  0
  4  5  1  0  0  0
  5  6  2  0  0  0
  6  1  1  0  0  0
 11  7  2  0  0  0
 10 12  1  0  0  0
M  END
> <minimizedAffinity>
-3.69692

> <minimizedRMSD>
2.13334

$$$$
C12360-P176


 23 25  0  0  0  0  0  0  0  0999 V2000
   30.7721   21.9614   21.0086 N   0  0  0  0  0  0  0  0  0  0  0  0
   31.0393   22.9446   21.0567 H   0  0  0  0  0  0  0  0  0  0  0  0
   30.1911   21.6681   22.3440 C   0  0  0  0  0  0  0  0  0  0  0  0
   29.6928   20.2422   22.6732 C   0  0  0  0  0  0  0  0  0  0  0  0
   30.1709   20.4935   24.1349 C   0  0  0  0  0  0  0  0  0  0  0  0
   31.1987   21.4764   23.5052 C   0  0  0  0  0  0  0  0  0  0  0  0
   30.6512   19.2572   24.9910 C   0  0  0  0  0  0  0  0  0  0  0  0
   31.9986   18.9261   25.2037 C   0  0  0  0  0  0  0  0  0  0  0  0
   32.3617   17.8177   25.9677 C   0  0  0  0  0  0  0  0  0  0  0  0
   31.3576   17.0414   26.5130 C   0  0  0  0  0  0  0  0  0  0  0  0
   30.0461   17.2959   26.3428 N   0  0  0  0  0  0  0  0  0  0  0  0
   29.7363   18.3956   25.6108 C   0  0  0  0  0  0  0  0  0  0  0  0
   30.6888   22.8155   18.6873 O   0  0  0  0  0  0  0  0  0  0  0  0
   30.0613   21.7925   19.4980 S   0  0  0  0  0  0  0  0  0  0  0  0
   30.1167   20.4008   19.1232 O   0  0  0  0  0  0  0  0  0  0  0  0
   28.3512   22.2757   19.7690 C   0  0  0  0  0  0  0  0  0  0  0  0
   27.3765   21.1320   19.4907 C   0  0  0  0  0  0  0  0  0  0  0  0
   26.6627   20.6185   20.7461 C   0  0  0  0  0  0  0  0  0  0  0  0
   25.2174   20.5162   20.6376 N   0  0  0  0  0  0  0  0  0  0  0  0
   24.3792   19.8893   21.5181 C   0  0  0  0  0  0  0  0  0  0  0  0
   23.1139   20.0086   20.9953 C   0  0  0  0  0  0  0  0  0  0  0  0
   23.2866   20.7489   19.8132 C   0  0  0  0  0  0  0  0  0  0  0  0
   24.5614   21.0832   19.6030 N   0  0  0  0  0  0  0  0  0  0  0  0
 13 14  2  0  0  0
 14 15  2  0  0  0
 14 16  1  0  0  0
 16 17  1  0  0  0
 17 18  1  0  0  0
 18 19  1  0  0  0
 19 20  1  0  0  0
 20 21  2  0  0  0
 21 22  1  0  0  0
 22 23  2  0  0  0
 14  1  1  0  0  0
  3  1  1  0  0  0
  3  4  1  0  0  0
  4  5  1  0  0  0
  5  7  1  0  0  0
  7  8  2  0  0  0
  8  9  1  0  0  0
  9 10  2  0  0  0
 10 11  1  0  0  0
 11 12  2  0  0  0
  5  6  1  0  0  0
 23 19  1  0  0  0
  6  3  1  0  0  0
 12  7  1  0  0  0
  1  2  1  0  0  0
M  END
> <minimizedAffinity>
-2.77652

> <minimizedRMSD>
1.47431

$$$$
C8903-P214


 20 22  0  0  0  0  0  0  0  0999 V2000
    8.9819   12.3248   24.1646 C   0  0  0  0  0  0  0  0  0  0  0  0
    9.0791   10.9704   23.8735 C   0  0  0  0  0  0  0  0  0  0  0  0
    8.0729   10.1138   24.3167 C   0  0  0  0  0  0  0  0  0  0  0  0
    6.9861   10.5853   25.0652 C   0  0  0  0  0  0  0  0  0  0  0  0
    6.8879   11.9637   25.3220 C   0  0  0  0  0  0  0  0  0  0  0  0
    7.8979   12.8311   24.8819 C   0  0  0  0  0  0  0  0  0  0  0  0
    5.7587   12.5115   26.1583 C   0  0  0  0  0  0  0  0  0  0  0  0
    4.5895   11.5407   26.2758 C   0  0  0  0  0  0  0  0  0  0  0  0
    5.0956   10.1296   26.5242 C   0  0  0  0  0  0  0  0  0  0  0  0
    5.9707    9.7077   25.4424 N   0  0  0  0  0  0  0  0  0  0  0  0
    5.8511    8.8388   24.9952 H   0  0  0  0  0  0  0  0  0  0  0  0
   11.2222   12.8439   24.1962 O   0  0  0  0  0  0  0  0  0  0  0  0
   10.1061   13.2103   23.8368 C   0  0  0  0  0  0  0  0  0  0  0  0
    9.7672   14.5227   23.1374 C   0  0  0  0  0  0  0  0  0  0  0  0
   10.5233   14.6755   21.8833 N   0  0  0  0  0  0  0  0  0  0  0  0
    9.7847   15.4629   20.8919 C   0  0  0  0  0  0  0  0  0  0  0  0
   10.5031   15.4886   19.5336 C   0  0  0  0  0  0  0  0  0  0  0  0
   12.0159   15.6429   19.6622 C   0  0  0  0  0  0  0  0  0  0  0  0
   12.3579   16.1742   21.0377 C   0  0  0  0  0  0  0  0  0  0  0  0
   11.8686   15.2238   22.1225 C   0  0  0  0  0  0  0  0  0  0  0  0
 12 13  2  0  0  0
 13 14  1  0  0  0
 14 15  1  0  0  0
 15 16  1  0  0  0
 16 17  1  0  0  0
 17 18  1  0  0  0
 18 19  1  0  0  0
 19 20  1  0  0  0
 13  1  1  0  0  0
  1  2  2  0  0  0
  2  3  1  0  0  0
  3  4  2  0  0  0
  4  5  1  0  0  0
  5  6  2  0  0  0
  5  7  1  0  0  0
  7  8  1  0  0  0
  8  9  1  0  0  0
  9 10  1  0  0  0
 20 15  1  0  0  0
  6  1  1  0  0  0
 10  4  1  0  0  0
 10 11  1  0  0  0
M  END
> <minimizedAffinity>
-7.27585

> <minimizedRMSD>
1.64014

$$$$
C1390-P214


 19 19  0  0  0  0  0  0  0  0999 V2000
    9.9995   14.1653   21.9948 N   0  0  0  0  0  0  0  0  0  0  0  0
    9.1049   14.2368   23.2625 C   0  0  0  0  0  0  0  0  0  0  0  0
    8.9352   15.1083   24.0196 O   0  0  0  0  0  0  0  0  0  0  0  0
    9.9114   13.3343   21.4743 H   0  0  0  0  0  0  0  0  0  0  0  0
    8.4399   12.8552   23.4085 C   0  0  0  0  0  0  0  0  0  0  0  0
    9.4432   11.7561   23.0302 C   0  0  0  0  0  0  0  0  0  0  0  0
    9.3004   10.4717   23.8335 C   0  0  0  0  0  0  0  0  0  0  0  0
    7.9370   10.2022   24.2266 N   0  0  0  0  0  0  0  0  0  0  0  0
    7.3373   11.2490   25.0448 C   0  0  0  0  0  0  0  0  0  0  0  0
    7.9302   12.6404   24.8364 C   0  0  0  0  0  0  0  0  0  0  0  0
    7.9226    9.3319   24.7583 H   0  0  0  0  0  0  0  0  0  0  0  0
   10.9586   15.1394   21.4448 C   0  0  0  0  0  0  0  0  0  0  0  0
   11.9789   15.6846   22.4639 C   0  0  0  0  0  0  0  0  0  0  0  0
   13.0795   16.1875   21.8666 F   0  0  0  0  0  0  0  0  0  0  0  0
   12.4131   14.6780   23.2645 F   0  0  0  0  0  0  0  0  0  0  0  0
   11.4783   16.6689   23.2388 F   0  0  0  0  0  0  0  0  0  0  0  0
   10.1990   16.2540   20.7084 C   0  0  0  0  0  0  0  0  0  0  0  0
   11.6324   15.3011   18.8591 C   0  0  0  0  0  0  0  0  0  0  0  0
   10.5752   16.3238   19.2230 C   0  0  0  0  0  0  0  0  0  0  0  0
 18 19  1  0  0  0
 19 17  1  0  0  0
 12 17  1  0  0  0
 12  1  1  0  0  0
  1  2  1  0  0  0
  2  3  2  0  0  0
  2  5  1  0  0  0
  5  6  1  0  0  0
  6  7  1  0  0  0
  7  8  1  0  0  0
  8  9  1  0  0  0
  9 10  1  0  0  0
 12 13  1  0  0  0
 13 14  1  0  0  0
 13 15  1  0  0  0
 13 16  1  0  0  0
 10  5  1  0  0  0
  1  4  1  0  0  0
  8 11  1  0  0  0
M  END
> <minimizedAffinity>
-6.31732

> <minimizedRMSD>
1.89896

$$$$
C7479-P171


 24 25  0  0  0  0  0  0  0  0999 V2000
    6.7267   14.8670   22.2826 S   0  0  0  0  0  0  0  0  0  0  0  0
    6.6010   13.4922   21.8150 O   0  0  0  0  0  0  0  0  0  0  0  0
    7.6445   15.6839   21.5174 O   0  0  0  0  0  0  0  0  0  0  0  0
    6.6595   15.0532   23.8040 N   0  0  0  0  0  0  0  0  0  0  0  0
    8.0054   14.7873   24.5061 S   0  0  0  0  0  0  0  0  0  0  0  0
    7.7893   15.4143   26.1610 C   0  0  0  0  0  0  0  0  0  0  0  0
    9.2918   15.3060   24.0916 O   0  0  0  0  0  0  0  0  0  0  0  0
    8.2779   13.0289   24.8095 C   0  0  0  0  0  0  0  0  0  0  0  0
    9.0709   12.3732   23.6762 C   0  0  0  0  0  0  0  0  0  0  0  0
    9.1999   10.8538   23.7496 C   0  0  0  0  0  0  0  0  0  0  0  0
    8.0463   10.1002   24.3814 C   0  0  0  0  0  0  0  0  0  0  0  0
    7.2562   10.8348   25.4483 C   0  0  0  0  0  0  0  0  0  0  0  0
    6.9908   12.2868   25.1080 C   0  0  0  0  0  0  0  0  0  0  0  0
    5.2343   15.5106   21.8532 N   0  0  0  0  0  0  0  0  0  0  0  0
    5.1015   16.3627   22.3978 H   0  0  0  0  0  0  0  0  0  0  0  0
    4.0571   14.6773   22.0542 C   0  0  0  0  0  0  0  0  0  0  0  0
    3.0188   13.9711   19.7517 C   0  0  0  0  0  0  0  0  0  0  0  0
    1.9062   14.3404   19.0540 O   0  0  0  0  0  0  0  0  0  0  0  0
    1.4086   15.3677   19.7618 C   0  0  0  0  0  0  0  0  0  0  0  0
    2.0877   15.6633   20.8502 N   0  0  0  0  0  0  0  0  0  0  0  0
    3.1169   14.7536   20.8861 C   0  0  0  0  0  0  0  0  0  0  0  0
    3.7936   12.9639   17.6439 C   0  0  0  0  0  0  0  0  0  0  0  0
    3.7745   12.8602   19.1630 C   0  0  0  0  0  0  0  0  0  0  0  0
    3.1814   11.5239   19.5952 C   0  0  0  0  0  0  0  0  0  0  0  0
 22 23  1  0  0  0
 23 24  1  0  0  0
 23 17  1  0  0  0
 17 18  1  0  0  0
 18 19  1  0  0  0
 19 20  2  0  0  0
 20 21  1  0  0  0
 21 16  1  0  0  0
 16 14  1  0  0  0
 14  1  1  0  0  0
  1  2  2  0  0  0
  1  3  2  0  0  0
  1  4  1  0  0  0
  4  5  2  0  0  0
  5  6  1  0  0  0
  5  7  2  0  0  0
  5  8  1  0  0  0
  8  9  1  0  0  0
  9 10  1  0  0  0
 10 11  1  0  0  0
 11 12  1  0  0  0
 12 13  1  0  0  0
 21 17  2  0  0  0
 13  8  1  0  0  0
 14 15  1  0  0  0
M  END
> <minimizedAffinity>
-5.73156

> <minimizedRMSD>
0.50171

$$$$
C11236-P171


 23 24  0  0  0  0  0  0  0  0999 V2000
    7.6673   15.0265   22.4202 S   0  0  0  0  0  0  0  0  0  0  0  0
    7.3774   13.6870   21.9247 O   0  0  0  0  0  0  0  0  0  0  0  0
    8.6248   15.7704   21.6287 O   0  0  0  0  0  0  0  0  0  0  0  0
    7.6836   15.1978   23.9447 N   0  0  0  0  0  0  0  0  0  0  0  0
    8.9312   14.6164   24.6244 S   0  0  0  0  0  0  0  0  0  0  0  0
    8.8366   15.2102   26.3032 C   0  0  0  0  0  0  0  0  0  0  0  0
   10.3012   14.8765   24.2354 O   0  0  0  0  0  0  0  0  0  0  0  0
    8.8120   12.8326   24.8517 C   0  0  0  0  0  0  0  0  0  0  0  0
    9.4755   12.0686   23.7055 C   0  0  0  0  0  0  0  0  0  0  0  0
    9.3210   10.5516   23.7602 C   0  0  0  0  0  0  0  0  0  0  0  0
    8.0153   10.0276   24.3244 C   0  0  0  0  0  0  0  0  0  0  0  0
    7.3332   10.8809   25.3785 C   0  0  0  0  0  0  0  0  0  0  0  0
    7.3876   12.3677   25.0895 C   0  0  0  0  0  0  0  0  0  0  0  0
    6.2377   15.8538   22.1258 N   0  0  0  0  0  0  0  0  0  0  0  0
    6.3039   16.7555   22.5980 H   0  0  0  0  0  0  0  0  0  0  0  0
    4.9934   15.2253   22.5572 C   0  0  0  0  0  0  0  0  0  0  0  0
    2.5839   14.5470   20.0065 C   0  0  0  0  0  0  0  0  0  0  0  0
    2.8462   15.0985   21.1852 N   0  0  0  0  0  0  0  0  0  0  0  0
    4.1930   14.8232   21.3665 C   0  0  0  0  0  0  0  0  0  0  0  0
    4.6273   14.1099   20.2837 C   0  0  0  0  0  0  0  0  0  0  0  0
    3.6396   13.9495   19.4052 O   0  0  0  0  0  0  0  0  0  0  0  0
    1.3333   13.2797   18.2606 C   0  0  0  0  0  0  0  0  0  0  0  0
    1.3617   14.4798   19.1966 C   0  0  0  0  0  0  0  0  0  0  0  0
 22 23  1  0  0  0
 23 17  1  0  0  0
 17 18  2  0  0  0
 18 19  1  0  0  0
 19 16  1  0  0  0
 16 14  1  0  0  0
 14  1  1  0  0  0
  1  2  2  0  0  0
  1  3  2  0  0  0
  1  4  1  0  0  0
  4  5  2  0  0  0
  5  6  1  0  0  0
  5  7  2  0  0  0
  5  8  1  0  0  0
  8  9  1  0  0  0
  9 10  1  0  0  0
 10 11  1  0  0  0
 11 12  1  0  0  0
 12 13  1  0  0  0
 19 20  2  0  0  0
 20 21  1  0  0  0
 21 17  1  0  0  0
 13  8  1  0  0  0
 14 15  1  0  0  0
M  END
> <minimizedAffinity>
-6.36663

> <minimizedRMSD>
0.80827

$$$$
C86475-P364


 14 14  0  0  0  0  0  0  0  0999 V2000
   10.5842   13.9481   23.9997 C   0  0  0  0  0  0  0  0  0  0  0  0
   10.6856   14.7951   22.7637 C   0  0  0  0  0  0  0  0  0  0  0  0
    9.6800   15.5789   22.2283 C   0  0  0  0  0  0  0  0  0  0  0  0
   10.2315   16.3481   20.8032 S   0  0  0  0  0  0  0  0  0  0  0  0
   11.7664   15.6629   21.0316 C   0  0  0  0  0  0  0  0  0  0  0  0
   11.8991   14.9066   22.0955 N   0  0  0  0  0  0  0  0  0  0  0  0
    9.5213   12.8338   23.9291 C   0  0  0  0  0  0  0  0  0  0  0  0
    9.5292   11.9630   23.0462 O   0  0  0  0  0  0  0  0  0  0  0  0
    8.0521   11.3530   25.3209 C   0  0  0  0  0  0  0  0  0  0  0  0
    8.3426   12.8127   24.9502 C   0  0  0  0  0  0  0  0  0  0  0  0
    8.5714   13.6762   26.1958 C   0  0  0  0  0  0  0  0  0  0  0  0
    7.0853   13.3914   24.2637 C   0  0  0  0  0  0  0  0  0  0  0  0
   11.9016   13.4104   24.3583 C   0  0  0  0  0  0  0  0  0  0  0  0
   12.9238   13.0806   24.8034 N   0  0  0  0  0  0  0  0  0  0  0  0
  9 10  1  0  0  0
 10 11  1  0  0  0
 10 12  1  0  0  0
 10  7  1  0  0  0
  7  8  2  0  0  0
  7  1  1  0  0  0
  1 13  1  0  0  0
 13 14  3  0  0  0
  1  2  1  0  0  0
  2  3  2  0  0  0
  3  4  1  0  0  0
  4  5  1  0  0  0
  5  6  2  0  0  0
  6  2  1  0  0  0
M  END
> <minimizedAffinity>
-4.69887

> <minimizedRMSD>
1.37796

$$$$
C86508-P364


 13 13  0  0  0  0  0  0  0  0999 V2000
   11.1730   13.5622   23.9784 C   0  0  0  0  0  0  0  0  0  0  0  0
   10.4317   13.4296   25.3037 C   0  0  0  0  0  0  0  0  0  0  0  0
    9.3830   12.4787   25.1759 O   0  0  0  0  0  0  0  0  0  0  0  0
    9.4056   11.7798   23.9329 C   0  0  0  0  0  0  0  0  0  0  0  0
    9.7407    9.6454   23.0280 F   0  0  0  0  0  0  0  0  0  0  0  0
    9.5672   10.2991   24.1966 C   0  0  0  0  0  0  0  0  0  0  0  0
    8.4229    9.8283   24.7612 F   0  0  0  0  0  0  0  0  0  0  0  0
   12.0293   15.1388   23.8529 S   0  0  0  0  0  0  0  0  0  0  0  0
   11.1683   15.7663   22.4799 C   0  0  0  0  0  0  0  0  0  0  0  0
   10.0083   16.3595   22.6330 N   0  0  0  0  0  0  0  0  0  0  0  0
    9.5146   16.6900   21.3899 C   0  0  0  0  0  0  0  0  0  0  0  0
   10.2925   16.3157   20.3148 C   0  0  0  0  0  0  0  0  0  0  0  0
   11.7035   15.5334   20.8810 S   0  0  0  0  0  0  0  0  0  0  0  0
  5  6  1  0  0  0
  6  7  1  0  0  0
  6  4  1  0  0  0
  4  3  1  0  0  0
  3  2  1  0  0  0
  2  1  1  0  0  0
  1  8  1  0  0  0
  8  9  1  0  0  0
  9 10  2  0  0  0
 10 11  1  0  0  0
 11 12  2  0  0  0
 12 13  1  0  0  0
 13  9  1  0  0  0
M  END
> <minimizedAffinity>
-4.17898

> <minimizedRMSD>
0.61403

$$$$
C2382-P264


 15 15  0  0  0  0  0  0  0  0999 V2000
    8.8829   14.1877   23.1106 C   0  0  0  0  0  0  0  0  0  0  0  0
    7.7983   14.1022   22.0224 C   0  0  0  0  0  0  0  0  0  0  0  0
    9.9443   13.1155   22.8831 C   0  0  0  0  0  0  0  0  0  0  0  0
    9.4442   15.5726   23.1168 N   0  0  0  0  0  0  0  0  0  0  0  0
   10.8022   15.7180   23.6594 C   0  0  0  0  0  0  0  0  0  0  0  0
   11.9378   15.5145   22.6521 C   0  0  0  0  0  0  0  0  0  0  0  0
   11.7341   16.2765   21.3505 C   0  0  0  0  0  0  0  0  0  0  0  0
   10.3352   16.0655   20.7950 C   0  0  0  0  0  0  0  0  0  0  0  0
    9.3091   16.3678   21.8796 C   0  0  0  0  0  0  0  0  0  0  0  0
    8.2550   13.8492   24.5214 C   0  0  0  0  0  0  0  0  0  0  0  0
    8.6760   14.3243   25.5863 O   0  0  0  0  0  0  0  0  0  0  0  0
    7.1243   12.8154   24.5999 C   0  0  0  0  0  0  0  0  0  0  0  0
    8.0525   10.4033   24.3085 C   0  0  0  0  0  0  0  0  0  0  0  0
    7.4869   11.4716   25.2362 C   0  0  0  0  0  0  0  0  0  0  0  0
    6.2887   10.9001   25.9836 C   0  0  0  0  0  0  0  0  0  0  0  0
 13 14  1  0  0  0
 14 15  1  0  0  0
 14 12  1  0  0  0
 12 10  1  0  0  0
 10 11  2  0  0  0
 10  1  1  0  0  0
  1  2  1  0  0  0
  1  3  1  0  0  0
  1  4  1  0  0  0
  4  5  1  0  0  0
  5  6  1  0  0  0
  6  7  1  0  0  0
  7  8  1  0  0  0
  8  9  1  0  0  0
  9  4  1  0  0  0
M  END
> <minimizedAffinity>
-5.33810

> <minimizedRMSD>
0.37511

$$$$
C2414-P264


 16 16  0  0  0  0  0  0  0  0999 V2000
    8.2265   14.8384   23.1235 C   0  0  0  0  0  0  0  0  0  0  0  0
    7.2948   14.2956   22.0128 C   0  0  0  0  0  0  0  0  0  0  0  0
    9.6124   14.9484   22.5505 N   0  0  0  0  0  0  0  0  0  0  0  0
   10.5643   15.7307   23.3639 C   0  0  0  0  0  0  0  0  0  0  0  0
   11.9900   15.6384   22.8215 C   0  0  0  0  0  0  0  0  0  0  0  0
   12.0682   16.1094   21.3812 C   0  0  0  0  0  0  0  0  0  0  0  0
   11.0703   15.3317   20.5461 C   0  0  0  0  0  0  0  0  0  0  0  0
    9.6679   15.4212   21.1489 C   0  0  0  0  0  0  0  0  0  0  0  0
    8.2529   13.8334   24.3520 C   0  0  0  0  0  0  0  0  0  0  0  0
    9.0801   13.9478   25.2676 O   0  0  0  0  0  0  0  0  0  0  0  0
    7.1130   12.8419   24.5167 C   0  0  0  0  0  0  0  0  0  0  0  0
    7.4802   11.4890   25.0774 C   0  0  0  0  0  0  0  0  0  0  0  0
    9.1624   10.0707   23.5714 C   0  0  0  0  0  0  0  0  0  0  0  0
    8.3820   10.7266   24.2053 C   0  0  0  0  0  0  0  0  0  0  0  0
    7.6064   16.1499   23.7191 C   0  0  0  0  0  0  0  0  0  0  0  0
    6.3495   16.7097   23.0604 C   0  0  0  0  0  0  0  0  0  0  0  0
 13 14  3  0  0  0
 14 12  1  0  0  0
 12 11  1  0  0  0
 11  9  1  0  0  0
  9 10  2  0  0  0
  9  1  1  0  0  0
  1  2  1  0  0  0
  1 15  1  0  0  0
 15 16  1  0  0  0
  1  3  1  0  0  0
  3  4  1  0  0  0
  4  5  1  0  0  0
  5  6  1  0  0  0
  6  7  1  0  0  0
  7  8  1  0  0  0
  8  3  1  0  0  0
M  END
> <minimizedAffinity>
-5.18333

> <minimizedRMSD>
0.53481

$$$$
C40869-P176


 15 15  0  0  0  0  0  0  0  0999 V2000
    8.5533   12.0873   23.3600 C   0  0  0  0  0  0  0  0  0  0  0  0
    9.5107   11.0635   23.0764 O   0  0  0  0  0  0  0  0  0  0  0  0
   10.3146   11.2197   23.5963 H   0  0  0  0  0  0  0  0  0  0  0  0
    8.0112   11.9942   24.8070 C   0  0  0  0  0  0  0  0  0  0  0  0
    8.0558   10.9158   25.4121 O   0  0  0  0  0  0  0  0  0  0  0  0
    7.4420   13.1901   25.4036 C   0  0  0  0  0  0  0  0  0  0  0  0
    6.2165   13.6627   25.2613 N   0  0  0  0  0  0  0  0  0  0  0  0
    6.2128   14.8138   26.0096 C   0  0  0  0  0  0  0  0  0  0  0  0
    7.4485   15.0040   26.5721 C   0  0  0  0  0  0  0  0  0  0  0  0
    8.2562   13.9829   26.1763 O   0  0  0  0  0  0  0  0  0  0  0  0
    9.1239   13.4213   22.8735 C   0  0  0  0  0  0  0  0  0  0  0  0
   10.6540   13.6398   22.8537 C   0  0  0  0  0  0  0  0  0  0  0  0
   11.2666   13.9941   24.1937 C   0  0  0  0  0  0  0  0  0  0  0  0
   12.3627   15.1649   21.6279 C   0  0  0  0  0  0  0  0  0  0  0  0
   10.9252   14.7461   21.8189 C   0  0  0  0  0  0  0  0  0  0  0  0
 14 15  1  0  0  0
 15 12  1  0  0  0
 12 13  1  0  0  0
 12 11  1  0  0  0
 11  1  1  0  0  0
  1  2  1  0  0  0
  1  4  1  0  0  0
  4  5  2  0  0  0
  4  6  1  0  0  0
  6  7  2  0  0  0
  7  8  1  0  0  0
  8  9  2  0  0  0
  9 10  1  0  0  0
 10  6  1  0  0  0
  2  3  1  0  0  0
M  END
> <minimizedAffinity>
-4.48723

> <minimizedRMSD>
1.86322

$$$$
C1383-P278


 15 15  0  0  0  0  0  0  0  0999 V2000
    8.3865   13.7593   24.6443 N   0  0  0  0  0  0  0  0  0  0  0  0
    8.3695   13.7935   23.1877 C   0  0  0  0  0  0  0  0  0  0  0  0
    7.9850   12.4720   25.2590 C   0  0  0  0  0  0  0  0  0  0  0  0
    7.9529   11.2387   24.3474 C   0  0  0  0  0  0  0  0  0  0  0  0
    7.4480   10.0038   25.0813 C   0  0  0  0  0  0  0  0  0  0  0  0
    6.1465   10.2404   25.8351 C   0  0  0  0  0  0  0  0  0  0  0  0
    6.1954   11.4199   26.6901 N   0  0  0  0  0  0  0  0  0  0  0  0
    6.5888   12.6168   25.9230 C   0  0  0  0  0  0  0  0  0  0  0  0
    6.8746   11.2635   27.4348 H   0  0  0  0  0  0  0  0  0  0  0  0
    9.6813   14.2679   25.1498 C   0  0  0  0  0  0  0  0  0  0  0  0
   11.1325   17.3770   26.9842 C   0  0  0  0  0  0  0  0  0  0  0  0
   10.7677   16.2252   26.2137 N   0  0  0  0  0  0  0  0  0  0  0  0
    9.5263   15.2941   26.3166 C   0  0  0  0  0  0  0  0  0  0  0  0
    8.6545   15.2797   27.0926 O   0  0  0  0  0  0  0  0  0  0  0  0
   11.4063   15.9843   25.5043 H   0  0  0  0  0  0  0  0  0  0  0  0
 11 12  1  0  0  0
 12 13  1  0  0  0
 13 14  2  0  0  0
 13 10  1  0  0  0
 10  1  1  0  0  0
  1  2  1  0  0  0
  3  1  1  0  0  0
  3  4  1  0  0  0
  4  5  1  0  0  0
  5  6  1  0  0  0
  6  7  1  0  0  0
  7  8  1  0  0  0
  8  3  1  0  0  0
 12 15  1  0  0  0
  7  9  1  0  0  0
M  END
> <minimizedAffinity>
-3.35381

> <minimizedRMSD>
0.40958

$$$$
C8052-P310


 20 20  0  0  0  0  0  0  0  0999 V2000
   10.2113   14.1579   22.9266 C   0  0  0  0  0  0  0  0  0  0  0  0
   10.2000   15.0675   24.0779 N   0  0  0  0  0  0  0  0  0  0  0  0
   11.0675   15.0830   25.3467 C   0  0  0  0  0  0  0  0  0  0  0  0
   11.9802   14.4239   25.6456 O   0  0  0  0  0  0  0  0  0  0  0  0
    9.5272   15.7846   24.0299 H   0  0  0  0  0  0  0  0  0  0  0  0
   10.5025   16.0795   26.3288 C   0  0  0  0  0  0  0  0  0  0  0  0
   11.3468   16.8845   27.0827 C   0  0  0  0  0  0  0  0  0  0  0  0
   10.7681   17.7941   27.9638 C   0  0  0  0  0  0  0  0  0  0  0  0
    9.3801   17.8632   28.0639 C   0  0  0  0  0  0  0  0  0  0  0  0
    8.6144   17.0197   27.2741 C   0  0  0  0  0  0  0  0  0  0  0  0
    9.1432   16.1336   26.4018 N   0  0  0  0  0  0  0  0  0  0  0  0
    9.4040   12.8899   23.2663 C   0  0  0  0  0  0  0  0  0  0  0  0
    9.3982   12.6398   24.5985 F   0  0  0  0  0  0  0  0  0  0  0  0
    8.1123   13.0015   22.8665 F   0  0  0  0  0  0  0  0  0  0  0  0
    9.9095   11.7927   22.6669 F   0  0  0  0  0  0  0  0  0  0  0  0
    9.6509   14.8355   21.6568 C   0  0  0  0  0  0  0  0  0  0  0  0
   12.0003   15.8083   21.4684 C   0  0  0  0  0  0  0  0  0  0  0  0
   10.6175   15.7297   20.8326 C   0  0  0  0  0  0  0  0  0  0  0  0
    9.9829   17.1247   20.7219 C   0  0  0  0  0  0  0  0  0  0  0  0
   10.8133   15.2292   19.4041 C   0  0  0  0  0  0  0  0  0  0  0  0
 17 18  1  0  0  0
 18 19  1  0  0  0
 18 20  1  0  0  0
 18 16  1  0  0  0
  1 16  1  0  0  0
  1  2  1  0  0  0
  2  3  1  0  0  0
  3  4  2  0  0  0
  3  6  1  0  0  0
  6  7  2  0  0  0
  7  8  1  0  0  0
  8  9  2  0  0  0
  9 10  1  0  0  0
 10 11  2  0  0  0
  1 12  1  0  0  0
 12 13  1  0  0  0
 12 14  1  0  0  0
 12 15  1  0  0  0
 11  6  1  0  0  0
  2  5  1  0  0  0
M  END
> <minimizedAffinity>
-5.83661

> <minimizedRMSD>
0.85216

$$$$
C10646-P363


 14 14  0  0  0  0  0  0  0  0999 V2000
    7.5613   14.9898   25.3637 C   0  0  0  0  0  0  0  0  0  0  0  0
    8.1878   13.6286   25.6234 C   0  0  0  0  0  0  0  0  0  0  0  0
    9.3739   13.4086   25.3781 O   0  0  0  0  0  0  0  0  0  0  0  0
    7.3164   12.5997   26.1657 C   0  0  0  0  0  0  0  0  0  0  0  0
    7.2414   11.2868   25.7674 C   0  0  0  0  0  0  0  0  0  0  0  0
    6.2328   10.6882   26.4661 O   0  0  0  0  0  0  0  0  0  0  0  0
    5.7631   11.6767   27.2745 C   0  0  0  0  0  0  0  0  0  0  0  0
    6.3867   12.8249   27.1643 N   0  0  0  0  0  0  0  0  0  0  0  0
    6.3243   14.9415   24.4462 C   0  0  0  0  0  0  0  0  0  0  0  0
    6.5553   15.2501   22.9443 C   0  0  0  0  0  0  0  0  0  0  0  0
    6.6503   13.9784   22.1222 C   0  0  0  0  0  0  0  0  0  0  0  0
    7.8735   16.0300   22.7784 C   0  0  0  0  0  0  0  0  0  0  0  0
    4.3028   15.3670   21.6019 C   0  0  0  0  0  0  0  0  0  0  0  0
    5.3862   16.1126   22.3791 C   0  0  0  0  0  0  0  0  0  0  0  0
 13 14  1  0  0  0
 14 10  1  0  0  0
 10 11  1  0  0  0
 10 12  1  0  0  0
 10  9  1  0  0  0
  9  1  1  0  0  0
  1  2  1  0  0  0
  2  3  2  0  0  0
  2  4  1  0  0  0
  4  5  2  0  0  0
  5  6  1  0  0  0
  6  7  1  0  0  0
  7  8  2  0  0  0
  8  4  1  0  0  0
M  END
> <minimizedAffinity>
-3.56282

> <minimizedRMSD>
0.98146

$$$$
C22804-P550


 24 25  0  0  0  0  0  0  0  0999 V2000
    9.2673   14.0528   24.1328 C   0  0  0  0  0  0  0  0  0  0  0  0
    9.6358   14.1443   25.2403 O   0  0  0  0  0  0  0  0  0  0  0  0
    8.8206   12.8013   23.3172 N   0  0  0  0  0  0  0  0  0  0  0  0
    8.6253   12.9757   22.3681 H   0  0  0  0  0  0  0  0  0  0  0  0
    8.6570   11.5075   23.7044 C   0  0  0  0  0  0  0  0  0  0  0  0
    9.3805   10.4100   23.3325 C   0  0  0  0  0  0  0  0  0  0  0  0
    8.8132    9.3272   23.9484 N   0  0  0  0  0  0  0  0  0  0  0  0
    7.7044    9.6470   24.6350 N   0  0  0  0  0  0  0  0  0  0  0  0
    7.6853   10.9715   24.5423 C   0  0  0  0  0  0  0  0  0  0  0  0
    9.1779    8.4144   23.8940 H   0  0  0  0  0  0  0  0  0  0  0  0
    6.8303   11.6506   25.3058 O   0  0  0  0  0  0  0  0  0  0  0  0
    6.2639   10.8084   26.2816 C   0  0  0  0  0  0  0  0  0  0  0  0
    5.4905   11.5929   27.3080 C   0  0  0  0  0  0  0  0  0  0  0  0
    5.2867   10.8432   28.4216 F   0  0  0  0  0  0  0  0  0  0  0  0
    6.1488   12.7065   27.6884 F   0  0  0  0  0  0  0  0  0  0  0  0
    9.0480   15.2991   23.2528 C   0  0  0  0  0  0  0  0  0  0  0  0
    9.9081   15.2709   22.0682 N   0  0  0  0  0  0  0  0  0  0  0  0
    9.4709   15.0469   20.7054 C   0  0  0  0  0  0  0  0  0  0  0  0
   10.6193   15.5799   19.8691 C   0  0  0  0  0  0  0  0  0  0  0  0
   11.8338   15.4527   20.7693 C   0  0  0  0  0  0  0  0  0  0  0  0
   11.2481   15.6395   22.1369 C   0  0  0  0  0  0  0  0  0  0  0  0
   11.8611   15.9759   23.1366 O   0  0  0  0  0  0  0  0  0  0  0  0
    6.9090   16.6132   23.5610 C   0  0  0  0  0  0  0  0  0  0  0  0
    7.5329   15.3547   22.9943 C   0  0  0  0  0  0  0  0  0  0  0  0
 23 24  1  0  0  0
 16 24  1  0  0  0
 16  1  1  0  0  0
  1  2  2  0  0  0
  1  3  1  0  0  0
  3  5  1  0  0  0
  5  6  2  0  0  0
  6  7  1  0  0  0
  7  8  1  0  0  0
  8  9  2  0  0  0
  9 11  1  0  0  0
 11 12  1  0  0  0
 12 13  1  0  0  0
 13 14  1  0  0  0
 13 15  1  0  0  0
 16 17  1  0  0  0
 17 18  1  0  0  0
 18 19  1  0  0  0
 19 20  1  0  0  0
 20 21  1  0  0  0
 21 22  2  0  0  0
  9  5  1  0  0  0
 21 17  1  0  0  0
  3  4  1  0  0  0
  7 10  1  0  0  0
M  END
> <minimizedAffinity>
-6.20473

> <minimizedRMSD>
1.14756

$$$$
C9811-P205


 16 16  0  0  0  0  0  0  0  0999 V2000
    9.3068   13.0779   23.3166 N   0  0  0  0  0  0  0  0  0  0  0  0
    8.6500   13.1230   24.7248 C   0  0  0  0  0  0  0  0  0  0  0  0
    8.8895   13.7938   25.6496 O   0  0  0  0  0  0  0  0  0  0  0  0
    8.8705   12.4695   22.6773 H   0  0  0  0  0  0  0  0  0  0  0  0
    7.4763   12.1362   24.6672 C   0  0  0  0  0  0  0  0  0  0  0  0
    7.9089   10.6781   24.6800 C   0  0  0  0  0  0  0  0  0  0  0  0
    6.8086    9.9605   25.4179 C   0  0  0  0  0  0  0  0  0  0  0  0
    6.4051   10.9085   26.4432 N   0  0  0  0  0  0  0  0  0  0  0  0
    6.5043   12.2489   25.8438 C   0  0  0  0  0  0  0  0  0  0  0  0
    7.0245   10.8379   27.2504 H   0  0  0  0  0  0  0  0  0  0  0  0
   10.4485   13.7808   22.7962 C   0  0  0  0  0  0  0  0  0  0  0  0
   10.0017   14.9858   21.9732 C   0  0  0  0  0  0  0  0  0  0  0  0
   11.0522   16.0974   21.9287 C   0  0  0  0  0  0  0  0  0  0  0  0
   12.2047   15.8471   20.9639 C   0  0  0  0  0  0  0  0  0  0  0  0
   11.4437   14.9405   18.6231 N   0  0  0  0  0  0  0  0  0  0  0  0
   11.7500   15.3514   19.6625 C   0  0  0  0  0  0  0  0  0  0  0  0
 15 16  3  0  0  0
 16 14  1  0  0  0
 14 13  1  0  0  0
 13 12  1  0  0  0
 12 11  1  0  0  0
 11  1  1  0  0  0
  1  2  1  0  0  0
  2  3  2  0  0  0
  5  2  1  0  0  0
  5  6  1  0  0  0
  6  7  1  0  0  0
  7  8  1  0  0  0
  8  9  1  0  0  0
  9  5  1  0  0  0
  1  4  1  0  0  0
  8 10  1  0  0  0
M  END
> <minimizedAffinity>
-4.52371

> <minimizedRMSD>
0.37436

$$$$
C14769-P58


 14 15  0  0  0  0  0  0  0  0999 V2000
    4.4805   14.0945    2.4194 O   0  0  0  0  0  0  0  0  0  0  0  0
    4.9012   14.3676    3.5405 C   0  0  0  0  0  0  0  0  0  0  0  0
    4.9907   15.7824    4.0445 C   0  0  0  0  0  0  0  0  0  0  0  0
    6.1727   16.0367    4.9432 C   0  0  0  0  0  0  0  0  0  0  0  0
    6.5879   17.1791    5.1476 O   0  0  0  0  0  0  0  0  0  0  0  0
    6.7865   14.8750    5.7006 C   0  0  0  0  0  0  0  0  0  0  0  0
    6.7861   13.5883    4.8725 C   0  0  0  0  0  0  0  0  0  0  0  0
    5.3309   13.2882    4.4978 C   0  0  0  0  0  0  0  0  0  0  0  0
    7.6746   13.6116    3.6341 C   0  0  0  0  0  0  0  0  0  0  0  0
    7.7439   12.4775    2.8135 C   0  0  0  0  0  0  0  0  0  0  0  0
    8.5004   12.4988    1.6459 C   0  0  0  0  0  0  0  0  0  0  0  0
    9.2036   13.6487    1.3414 C   0  0  0  0  0  0  0  0  0  0  0  0
    9.2056   14.7495    2.1205 N   0  0  0  0  0  0  0  0  0  0  0  0
    8.4289   14.7135    3.2260 C   0  0  0  0  0  0  0  0  0  0  0  0
  1  2  2  0  0  0
  2  3  1  0  0  0
  3  4  1  0  0  0
  4  5  2  0  0  0
  4  6  1  0  0  0
  6  7  1  0  0  0
  7  9  1  0  0  0
  9 10  2  0  0  0
 10 11  1  0  0  0
 11 12  2  0  0  0
 12 13  1  0  0  0
 13 14  2  0  0  0
  7  8  1  0  0  0
  8  2  1  0  0  0
 14  9  1  0  0  0
M  END
> <minimizedAffinity>
-3.06375

> <minimizedRMSD>
0.96021

$$$$
C4666-P229


 11 11  0  0  0  0  0  0  0  0999 V2000
   10.1523   14.3138   22.8781 N   0  0  0  0  0  0  0  0  0  0  0  0
   11.6111   14.2337   22.8070 C   0  0  0  0  0  0  0  0  0  0  0  0
   12.1887   15.4892   22.1213 C   0  0  0  0  0  0  0  0  0  0  0  0
   11.6553   15.7267   20.7784 N   0  0  0  0  0  0  0  0  0  0  0  0
   10.1834   15.7551   20.8267 C   0  0  0  0  0  0  0  0  0  0  0  0
    9.5639   14.5312   21.5480 C   0  0  0  0  0  0  0  0  0  0  0  0
   11.9598   14.9786   20.1555 H   0  0  0  0  0  0  0  0  0  0  0  0
    9.8780   13.5980   25.1824 C   0  0  0  0  0  0  0  0  0  0  0  0
    9.4544   13.3502   23.7391 C   0  0  0  0  0  0  0  0  0  0  0  0
    9.6920   11.8871   23.3911 C   0  0  0  0  0  0  0  0  0  0  0  0
    8.9973   10.9613   23.8136 O   0  0  0  0  0  0  0  0  0  0  0  0
  9  8  1  0  0  0
  9 10  1  0  0  0
 10 11  2  0  0  0
  9  1  1  0  0  0
  1  2  1  0  0  0
  2  3  1  0  0  0
  3  4  1  0  0  0
  4  5  1  0  0  0
  5  6  1  0  0  0
  6  1  1  0  0  0
  4  7  1  0  0  0
M  END
> <minimizedAffinity>
-3.98609

> <minimizedRMSD>
0.99084

$$$$
C7479-P564


 24 25  0  0  0  0  0  0  0  0999 V2000
    7.2354   14.1827   22.2119 S   0  0  0  0  0  0  0  0  0  0  0  0
    7.1561   12.7373   22.3132 O   0  0  0  0  0  0  0  0  0  0  0  0
    8.3092   14.6898   21.3825 O   0  0  0  0  0  0  0  0  0  0  0  0
    6.9397   14.8792   23.5456 N   0  0  0  0  0  0  0  0  0  0  0  0
    8.0798   14.5672   24.5483 S   0  0  0  0  0  0  0  0  0  0  0  0
    7.6506   15.4395   26.0404 C   0  0  0  0  0  0  0  0  0  0  0  0
    9.4801   14.8833   24.3453 O   0  0  0  0  0  0  0  0  0  0  0  0
    8.0646   12.8470   25.1015 C   0  0  0  0  0  0  0  0  0  0  0  0
    8.9489   11.9302   24.2385 C   0  0  0  0  0  0  0  0  0  0  0  0
    8.7243   10.4273   24.3968 C   0  0  0  0  0  0  0  0  0  0  0  0
    7.3300    9.9993   24.8076 C   0  0  0  0  0  0  0  0  0  0  0  0
    6.6667   10.8903   25.8357 C   0  0  0  0  0  0  0  0  0  0  0  0
    6.6590   12.3406   25.4003 C   0  0  0  0  0  0  0  0  0  0  0  0
    5.9129   14.4822   21.2648 N   0  0  0  0  0  0  0  0  0  0  0  0
    5.4056   15.2515   21.7022 H   0  0  0  0  0  0  0  0  0  0  0  0
    4.9328   13.4164   21.0132 C   0  0  0  0  0  0  0  0  0  0  0  0
    3.2567   12.4848   19.3535 C   0  0  0  0  0  0  0  0  0  0  0  0
    2.6239   12.8178   18.2039 O   0  0  0  0  0  0  0  0  0  0  0  0
    3.2037   13.9872   17.8841 C   0  0  0  0  0  0  0  0  0  0  0  0
    4.1402   14.3910   18.7186 N   0  0  0  0  0  0  0  0  0  0  0  0
    4.1940   13.4174   19.6855 C   0  0  0  0  0  0  0  0  0  0  0  0
    2.7078   10.1740   19.1184 C   0  0  0  0  0  0  0  0  0  0  0  0
    2.7598   11.3340   20.0777 C   0  0  0  0  0  0  0  0  0  0  0  0
    1.4771   11.7739   20.7721 C   0  0  0  0  0  0  0  0  0  0  0  0
 22 23  1  0  0  0
 23 24  1  0  0  0
 23 17  1  0  0  0
 17 18  1  0  0  0
 18 19  1  0  0  0
 19 20  2  0  0  0
 20 21  1  0  0  0
 21 16  1  0  0  0
 16 14  1  0  0  0
 14  1  1  0  0  0
  1  2  2  0  0  0
  1  3  2  0  0  0
  1  4  1  0  0  0
  4  5  2  0  0  0
  5  6  1  0  0  0
  5  7  2  0  0  0
  5  8  1  0  0  0
  8  9  1  0  0  0
  9 10  1  0  0  0
 10 11  1  0  0  0
 11 12  1  0  0  0
 12 13  1  0  0  0
 21 17  2  0  0  0
 13  8  1  0  0  0
 14 15  1  0  0  0
M  END
> <minimizedAffinity>
-3.24710

> <minimizedRMSD>
0.83669

$$$$
C15027-P348


 14 14  0  0  0  0  0  0  0  0999 V2000
   10.1104   13.2345   24.2379 C   0  0  0  0  0  0  0  0  0  0  0  0
   10.0152   14.0345   25.4154 O   0  0  0  0  0  0  0  0  0  0  0  0
    9.0917   14.2970   25.5541 H   0  0  0  0  0  0  0  0  0  0  0  0
    9.3473   11.9348   24.3888 C   0  0  0  0  0  0  0  0  0  0  0  0
    8.2245   11.8062   25.2152 C   0  0  0  0  0  0  0  0  0  0  0  0
    7.5954   10.5760   25.3033 C   0  0  0  0  0  0  0  0  0  0  0  0
    8.0170    9.4738   24.6530 N   0  0  0  0  0  0  0  0  0  0  0  0
    9.1047    9.6131   23.8637 C   0  0  0  0  0  0  0  0  0  0  0  0
    9.7882   10.8013   23.6984 C   0  0  0  0  0  0  0  0  0  0  0  0
    9.6494   14.0927   23.0527 C   0  0  0  0  0  0  0  0  0  0  0  0
    8.6809   13.7685   22.3535 O   0  0  0  0  0  0  0  0  0  0  0  0
   10.3163   15.4493   22.8488 C   0  0  0  0  0  0  0  0  0  0  0  0
   12.3257   16.0682   21.4892 C   0  0  0  0  0  0  0  0  0  0  0  0
   11.7750   15.3878   22.5011 C   0  0  0  0  0  0  0  0  0  0  0  0
 13 14  2  0  0  0
 14 12  1  0  0  0
 12 10  1  0  0  0
 10 11  2  0  0  0
 10  1  1  0  0  0
  1  2  1  0  0  0
  1  4  1  0  0  0
  4  5  2  0  0  0
  5  6  1  0  0  0
  6  7  2  0  0  0
  7  8  1  0  0  0
  8  9  2  0  0  0
  9  4  1  0  0  0
  2  3  1  0  0  0
M  END
> <minimizedAffinity>
-5.25297

> <minimizedRMSD>
1.47454

$$$$
C15044-P348


 16 16  0  0  0  0  0  0  0  0999 V2000
    8.2619   13.9484   23.3027 S   0  0  0  0  0  0  0  0  0  0  0  0
    8.0641   14.8645   24.4053 O   0  0  0  0  0  0  0  0  0  0  0  0
    7.3131   13.7714   22.2246 O   0  0  0  0  0  0  0  0  0  0  0  0
    8.4474   12.3437   24.0276 C   0  0  0  0  0  0  0  0  0  0  0  0
    7.5722   11.9707   25.0369 C   0  0  0  0  0  0  0  0  0  0  0  0
    7.5922   10.6431   25.4196 C   0  0  0  0  0  0  0  0  0  0  0  0
    8.4682    9.7732   24.7753 C   0  0  0  0  0  0  0  0  0  0  0  0
    9.3100   10.2510   23.7894 C   0  0  0  0  0  0  0  0  0  0  0  0
    9.3405   11.5353   23.4093 N   0  0  0  0  0  0  0  0  0  0  0  0
    9.7209   14.3221   22.5838 N   0  0  0  0  0  0  0  0  0  0  0  0
   10.2963   13.4809   22.6246 H   0  0  0  0  0  0  0  0  0  0  0  0
   10.5221   15.4091   23.1193 C   0  0  0  0  0  0  0  0  0  0  0  0
   11.9772   15.2551   22.6904 C   0  0  0  0  0  0  0  0  0  0  0  0
   12.3345   16.0300   21.4219 C   0  0  0  0  0  0  0  0  0  0  0  0
   10.8111   15.3201   19.4174 N   0  0  0  0  0  0  0  0  0  0  0  0
   11.5185   15.6378   20.2765 C   0  0  0  0  0  0  0  0  0  0  0  0
 15 16  3  0  0  0
 16 14  1  0  0  0
 14 13  1  0  0  0
 13 12  1  0  0  0
 12 10  1  0  0  0
 10  1  1  0  0  0
  1  2  2  0  0  0
  1  3  2  0  0  0
  1  4  1  0  0  0
  4  5  2  0  0  0
  5  6  1  0  0  0
  6  7  2  0  0  0
  7  8  1  0  0  0
  8  9  2  0  0  0
  9  4  1  0  0  0
 10 11  1  0  0  0
M  END
> <minimizedAffinity>
-5.04083

> <minimizedRMSD>
0.49130

$$$$
C15051-P348


 15 15  0  0  0  0  0  0  0  0999 V2000
    9.1935   14.7649   24.8861 C   0  0  0  0  0  0  0  0  0  0  0  0
    9.4404   13.5480   23.9822 C   0  0  0  0  0  0  0  0  0  0  0  0
   10.8548   13.3102   23.9890 O   0  0  0  0  0  0  0  0  0  0  0  0
   11.3180   14.1065   23.6851 H   0  0  0  0  0  0  0  0  0  0  0  0
    8.7858   12.2583   24.4692 C   0  0  0  0  0  0  0  0  0  0  0  0
    7.8106   12.2391   25.4689 C   0  0  0  0  0  0  0  0  0  0  0  0
    7.2589   11.0269   25.8632 C   0  0  0  0  0  0  0  0  0  0  0  0
    7.6823    9.8621   25.2477 C   0  0  0  0  0  0  0  0  0  0  0  0
    8.6572    9.9487   24.2697 C   0  0  0  0  0  0  0  0  0  0  0  0
    9.2230   11.1103   23.8861 N   0  0  0  0  0  0  0  0  0  0  0  0
    8.8570   13.9233   22.6024 C   0  0  0  0  0  0  0  0  0  0  0  0
    7.6865   13.6741   22.2847 O   0  0  0  0  0  0  0  0  0  0  0  0
    9.7813   14.7004   21.6917 C   0  0  0  0  0  0  0  0  0  0  0  0
   10.0354   15.9586   22.1765 F   0  0  0  0  0  0  0  0  0  0  0  0
    9.2320   14.8983   20.4615 F   0  0  0  0  0  0  0  0  0  0  0  0
  2  1  1  0  0  0
  2  3  1  0  0  0
  2 11  1  0  0  0
 11 12  2  0  0  0
 11 13  1  0  0  0
 13 14  1  0  0  0
 13 15  1  0  0  0
  2  5  1  0  0  0
  5  6  2  0  0  0
  6  7  1  0  0  0
  7  8  2  0  0  0
  8  9  1  0  0  0
  9 10  2  0  0  0
 10  5  1  0  0  0
  3  4  1  0  0  0
M  END
> <minimizedAffinity>
-4.88920

> <minimizedRMSD>
1.13299

$$$$
C15065-P348


 14 14  0  0  0  0  0  0  0  0999 V2000
    9.0235   12.9387   24.5087 C   0  0  0  0  0  0  0  0  0  0  0  0
    9.7287   13.6210   25.2506 O   0  0  0  0  0  0  0  0  0  0  0  0
    8.1787   11.8873   25.1259 C   0  0  0  0  0  0  0  0  0  0  0  0
    7.2438   12.2783   26.0895 C   0  0  0  0  0  0  0  0  0  0  0  0
    6.3914   11.3357   26.6498 C   0  0  0  0  0  0  0  0  0  0  0  0
    6.5135   10.0236   26.2366 C   0  0  0  0  0  0  0  0  0  0  0  0
    7.4261    9.6004   25.3350 N   0  0  0  0  0  0  0  0  0  0  0  0
    8.2367   10.5432   24.7875 C   0  0  0  0  0  0  0  0  0  0  0  0
    8.8624   13.2211   23.0206 C   0  0  0  0  0  0  0  0  0  0  0  0
    7.4547   13.2997   22.7524 O   0  0  0  0  0  0  0  0  0  0  0  0
    7.0662   14.0205   23.2724 H   0  0  0  0  0  0  0  0  0  0  0  0
    9.5588   14.5118   22.5865 C   0  0  0  0  0  0  0  0  0  0  0  0
   11.8406   15.0471   22.7632 C   0  0  0  0  0  0  0  0  0  0  0  0
   10.8790   14.2101   22.1342 O   0  0  0  0  0  0  0  0  0  0  0  0
 13 14  1  0  0  0
 14 12  1  0  0  0
 12  9  1  0  0  0
  9 10  1  0  0  0
  9  1  1  0  0  0
  1  2  2  0  0  0
  1  3  1  0  0  0
  3  4  2  0  0  0
  4  5  1  0  0  0
  5  6  2  0  0  0
  6  7  1  0  0  0
  7  8  2  0  0  0
  8  3  1  0  0  0
 10 11  1  0  0  0
M  END
> <minimizedAffinity>
-4.87795

> <minimizedRMSD>
0.67495

$$$$
C15067-P348


 16 16  0  0  0  0  0  0  0  0999 V2000
    9.2493   12.6628   24.3566 C   0  0  0  0  0  0  0  0  0  0  0  0
    9.7757   13.6491   25.2469 O   0  0  0  0  0  0  0  0  0  0  0  0
    9.0634   14.2451   25.5268 H   0  0  0  0  0  0  0  0  0  0  0  0
    8.2369   11.7950   25.0640 C   0  0  0  0  0  0  0  0  0  0  0  0
    7.3408   12.3049   26.0076 C   0  0  0  0  0  0  0  0  0  0  0  0
    6.4460   11.4563   26.6489 C   0  0  0  0  0  0  0  0  0  0  0  0
    6.4691   10.1141   26.3226 C   0  0  0  0  0  0  0  0  0  0  0  0
    7.3109    9.5778   25.4162 N   0  0  0  0  0  0  0  0  0  0  0  0
    8.1614   10.4290   24.7966 C   0  0  0  0  0  0  0  0  0  0  0  0
    8.7152   13.3431   23.1045 C   0  0  0  0  0  0  0  0  0  0  0  0
    7.5315   13.3148   22.7573 O   0  0  0  0  0  0  0  0  0  0  0  0
    9.7305   14.0503   22.2248 C   0  0  0  0  0  0  0  0  0  0  0  0
   10.4589   15.0857   22.8705 O   0  0  0  0  0  0  0  0  0  0  0  0
   11.8525   15.0520   22.5257 C   0  0  0  0  0  0  0  0  0  0  0  0
   11.9854   15.3072   19.9782 C   0  0  0  0  0  0  0  0  0  0  0  0
   12.2310   15.9427   21.3411 C   0  0  0  0  0  0  0  0  0  0  0  0
 15 16  1  0  0  0
 16 14  1  0  0  0
 14 13  1  0  0  0
 13 12  1  0  0  0
 12 10  1  0  0  0
 10 11  2  0  0  0
 10  1  1  0  0  0
  1  2  1  0  0  0
  1  4  1  0  0  0
  4  5  2  0  0  0
  5  6  1  0  0  0
  6  7  2  0  0  0
  7  8  1  0  0  0
  8  9  2  0  0  0
  9  4  1  0  0  0
  2  3  1  0  0  0
M  END
> <minimizedAffinity>
-5.53771

> <minimizedRMSD>
0.57682

$$$$
C8141-P348


 16 16  0  0  0  0  0  0  0  0999 V2000
    9.5147   13.6477   24.5501 C   0  0  0  0  0  0  0  0  0  0  0  0
    8.6578   14.5625   25.4325 C   0  0  0  0  0  0  0  0  0  0  0  0
   10.8707   13.7603   25.0237 O   0  0  0  0  0  0  0  0  0  0  0  0
   11.1710   14.6778   24.9290 H   0  0  0  0  0  0  0  0  0  0  0  0
    9.1550   12.1574   24.7509 C   0  0  0  0  0  0  0  0  0  0  0  0
    7.7476   11.8527   25.2593 C   0  0  0  0  0  0  0  0  0  0  0  0
    7.5468   10.3580   25.5177 C   0  0  0  0  0  0  0  0  0  0  0  0
    7.9873    9.4920   24.4304 N   0  0  0  0  0  0  0  0  0  0  0  0
    9.3329    9.8013   23.9729 C   0  0  0  0  0  0  0  0  0  0  0  0
    9.5533   11.2519   23.5955 C   0  0  0  0  0  0  0  0  0  0  0  0
    7.3437    9.6002   23.6465 H   0  0  0  0  0  0  0  0  0  0  0  0
    9.3674   14.1444   23.0848 C   0  0  0  0  0  0  0  0  0  0  0  0
    8.2816   14.1959   22.5023 O   0  0  0  0  0  0  0  0  0  0  0  0
   12.3334   16.0948   21.4694 C   0  0  0  0  0  0  0  0  0  0  0  0
   11.0541   15.7939   22.1715 C   0  0  0  0  0  0  0  0  0  0  0  0
   10.5818   14.5467   22.3139 C   0  0  0  0  0  0  0  0  0  0  0  0
 14 15  1  0  0  0
 15 16  2  0  0  0
 16 12  1  0  0  0
 12 13  2  0  0  0
 12  1  1  0  0  0
  1  2  1  0  0  0
  1  3  1  0  0  0
  1  5  1  0  0  0
  5  6  1  0  0  0
  6  7  1  0  0  0
  7  8  1  0  0  0
  8  9  1  0  0  0
  9 10  1  0  0  0
 10  5  1  0  0  0
  3  4  1  0  0  0
  8 11  1  0  0  0
M  END
> <minimizedAffinity>
-5.58432

> <minimizedRMSD>
1.24191

$$$$
C8176-P348


 17 17  0  0  0  0  0  0  0  0999 V2000
    9.4257   13.8264   25.2919 C   0  0  0  0  0  0  0  0  0  0  0  0
    8.9830   12.7723   24.2683 C   0  0  0  0  0  0  0  0  0  0  0  0
   10.1040   11.9236   24.0272 O   0  0  0  0  0  0  0  0  0  0  0  0
   10.8416   12.4519   23.6840 H   0  0  0  0  0  0  0  0  0  0  0  0
    7.7889   11.9186   24.8237 C   0  0  0  0  0  0  0  0  0  0  0  0
    7.2822   12.3194   26.2159 C   0  0  0  0  0  0  0  0  0  0  0  0
    6.1570   11.4302   26.7319 C   0  0  0  0  0  0  0  0  0  0  0  0
    6.1816   10.0059   26.2034 C   0  0  0  0  0  0  0  0  0  0  0  0
    7.4966    9.5803   25.7735 N   0  0  0  0  0  0  0  0  0  0  0  0
    8.0476   10.4032   24.7003 C   0  0  0  0  0  0  0  0  0  0  0  0
    7.4333    8.6173   25.4432 H   0  0  0  0  0  0  0  0  0  0  0  0
    8.5180   13.5126   22.9797 C   0  0  0  0  0  0  0  0  0  0  0  0
    7.3509   13.4276   22.5742 O   0  0  0  0  0  0  0  0  0  0  0  0
    9.5382   14.4135   22.3054 C   0  0  0  0  0  0  0  0  0  0  0  0
   10.7596   14.3803   22.9179 F   0  0  0  0  0  0  0  0  0  0  0  0
    9.7486   14.1030   21.0057 F   0  0  0  0  0  0  0  0  0  0  0  0
    8.8109   16.2100   22.3908 Br  0  0  0  0  0  0  0  0  0  0  0  0
  2  1  1  0  0  0
  2  3  1  0  0  0
  2 12  1  0  0  0
 12 13  2  0  0  0
 12 14  1  0  0  0
 14 15  1  0  0  0
 14 16  1  0  0  0
 14 17  1  0  0  0
  2  5  1  0  0  0
  5  6  1  0  0  0
  6  7  1  0  0  0
  7  8  1  0  0  0
  8  9  1  0  0  0
  9 10  1  0  0  0
 10  5  1  0  0  0
  3  4  1  0  0  0
  9 11  1  0  0  0
M  END
> <minimizedAffinity>
-4.81313

> <minimizedRMSD>
0.91418

$$$$
C7529-P423


 14 14  0  0  0  0  0  0  0  0999 V2000
   10.4999   12.4559   24.5760 O   0  0  0  0  0  0  0  0  0  0  0  0
    9.5454   12.6940   23.9330 C   0  0  0  0  0  0  0  0  0  0  0  0
    9.3565   13.6708   22.7102 N   0  0  0  0  0  0  0  0  0  0  0  0
    8.4676   13.6369   22.2884 H   0  0  0  0  0  0  0  0  0  0  0  0
   10.2374   14.5672   22.1346 N   0  0  0  0  0  0  0  0  0  0  0  0
   10.7541   15.5452   23.0939 C   0  0  0  0  0  0  0  0  0  0  0  0
   11.8650   16.3652   22.4493 C   0  0  0  0  0  0  0  0  0  0  0  0
   11.4231   17.0381   21.1549 C   0  0  0  0  0  0  0  0  0  0  0  0
   10.7406   16.0440   20.2255 C   0  0  0  0  0  0  0  0  0  0  0  0
    9.6624   15.2573   20.9663 C   0  0  0  0  0  0  0  0  0  0  0  0
    8.1867   11.9765   24.0857 C   0  0  0  0  0  0  0  0  0  0  0  0
    7.2497   12.5210   23.2607 F   0  0  0  0  0  0  0  0  0  0  0  0
    8.2696   10.6607   23.7431 F   0  0  0  0  0  0  0  0  0  0  0  0
    7.5725   12.1310   25.7272 Cl  0  0  0  0  0  0  0  0  0  0  0  0
  1  2  2  0  0  0
  2  3  1  0  0  0
  3  5  1  0  0  0
  5  6  1  0  0  0
  6  7  1  0  0  0
  7  8  1  0  0  0
  8  9  1  0  0  0
  9 10  1  0  0  0
  2 11  1  0  0  0
 11 12  1  0  0  0
 11 13  1  0  0  0
 11 14  1  0  0  0
 10  5  1  0  0  0
  3  4  1  0  0  0
M  END
> <minimizedAffinity>
-4.75842

> <minimizedRMSD>
0.85703

$$$$
C38598-P551


 13 13  0  0  0  0  0  0  0  0999 V2000
   10.3652   14.8838   23.0836 N   0  0  0  0  0  0  0  0  0  0  0  0
   10.0700   15.1885   21.6810 C   0  0  0  0  0  0  0  0  0  0  0  0
   11.3092   15.2436   20.8026 C   0  0  0  0  0  0  0  0  0  0  0  0
   12.3163   16.2012   21.4105 C   0  0  0  0  0  0  0  0  0  0  0  0
   12.6641   15.7551   22.8167 C   0  0  0  0  0  0  0  0  0  0  0  0
   11.4632   15.5016   23.7105 C   0  0  0  0  0  0  0  0  0  0  0  0
   11.5428   15.7294   24.9218 O   0  0  0  0  0  0  0  0  0  0  0  0
    9.1828   13.2987   24.2329 C   0  0  0  0  0  0  0  0  0  0  0  0
    9.2437   14.5340   23.8342 N   0  0  0  0  0  0  0  0  0  0  0  0
    8.0665   12.7601   25.1310 C   0  0  0  0  0  0  0  0  0  0  0  0
    6.8552   13.6702   25.2071 C   0  0  0  0  0  0  0  0  0  0  0  0
    7.1622   10.6037   25.6107 C   0  0  0  0  0  0  0  0  0  0  0  0
    7.7912   11.4403   24.6540 O   0  0  0  0  0  0  0  0  0  0  0  0
 12 13  1  0  0  0
 13 10  1  0  0  0
 10 11  1  0  0  0
 10  8  1  0  0  0
  8  9  2  0  0  0
  9  1  1  0  0  0
  1  2  1  0  0  0
  2  3  1  0  0  0
  3  4  1  0  0  0
  4  5  1  0  0  0
  5  6  1  0  0  0
  6  7  2  0  0  0
  6  1  1  0  0  0
M  END
> <minimizedAffinity>
-4.59555

> <minimizedRMSD>
0.84961

$$$$
C9146-P364


 15 15  0  0  0  0  0  0  0  0999 V2000
   10.2810   14.5593   23.6692 N   0  0  0  0  0  0  0  0  0  0  0  0
   10.3219   14.8314   22.2129 C   0  0  0  0  0  0  0  0  0  0  0  0
   11.6933   14.8391   21.5378 C   0  0  0  0  0  0  0  0  0  0  0  0
   12.1394   16.2908   21.5847 C   0  0  0  0  0  0  0  0  0  0  0  0
   10.9283   17.0364   21.6130 N   0  0  0  0  0  0  0  0  0  0  0  0
    9.8522   16.2608   21.9729 C   0  0  0  0  0  0  0  0  0  0  0  0
    8.7221   16.6943   22.1125 O   0  0  0  0  0  0  0  0  0  0  0  0
   10.8679   17.9957   21.3998 H   0  0  0  0  0  0  0  0  0  0  0  0
   11.1589   15.9757   25.3051 C   0  0  0  0  0  0  0  0  0  0  0  0
   11.5075   15.0472   24.2812 O   0  0  0  0  0  0  0  0  0  0  0  0
   10.1880   13.1335   23.9734 C   0  0  0  0  0  0  0  0  0  0  0  0
    8.8497   12.7963   24.6876 C   0  0  0  0  0  0  0  0  0  0  0  0
    8.7753   11.2694   24.8227 C   0  0  0  0  0  0  0  0  0  0  0  0
    8.7695   13.3996   26.1013 C   0  0  0  0  0  0  0  0  0  0  0  0
    7.6477   13.3312   23.8893 C   0  0  0  0  0  0  0  0  0  0  0  0
  9 10  1  0  0  0
 10  1  1  0  0  0
  1 11  1  0  0  0
 11 12  1  0  0  0
 12 13  1  0  0  0
 12 14  1  0  0  0
 12 15  1  0  0  0
  2  1  1  0  0  0
  2  3  1  0  0  0
  3  4  1  0  0  0
  4  5  1  0  0  0
  5  6  1  0  0  0
  6  7  2  0  0  0
  6  2  1  0  0  0
  5  8  1  0  0  0
M  END
> <minimizedAffinity>
-4.50797

> <minimizedRMSD>
0.77561

$$$$
C9356-P204


 16 16  0  0  0  0  0  0  0  0999 V2000
    9.3432   13.5375   23.7480 N   0  0  0  0  0  0  0  0  0  0  0  0
   10.0837   13.0006   24.1996 H   0  0  0  0  0  0  0  0  0  0  0  0
    8.1731   13.8652   24.8929 S   0  0  0  0  0  0  0  0  0  0  0  0
    7.0156   14.4321   24.2628 O   0  0  0  0  0  0  0  0  0  0  0  0
    8.8798   14.5093   25.9752 O   0  0  0  0  0  0  0  0  0  0  0  0
    7.8944   12.2809   25.3388 N   0  0  0  0  0  0  0  0  0  0  0  0
    6.5506   12.0027   25.8832 C   0  0  0  0  0  0  0  0  0  0  0  0
    6.5376   10.4903   25.9706 C   0  0  0  0  0  0  0  0  0  0  0  0
    7.4307   10.0121   24.8415 C   0  0  0  0  0  0  0  0  0  0  0  0
    8.1424   11.2456   24.3131 C   0  0  0  0  0  0  0  0  0  0  0  0
    9.9608   14.7234   23.1142 C   0  0  0  0  0  0  0  0  0  0  0  0
   12.3435   15.3355   22.4139 C   0  0  0  0  0  0  0  0  0  0  0  0
   11.4376   14.8603   23.5547 C   0  0  0  0  0  0  0  0  0  0  0  0
   12.0496   13.5949   24.1384 C   0  0  0  0  0  0  0  0  0  0  0  0
    9.7870   14.8344   21.6605 C   0  0  0  0  0  0  0  0  0  0  0  0
    9.4836   14.9791   20.5527 N   0  0  0  0  0  0  0  0  0  0  0  0
 12 13  1  0  0  0
 13 14  1  0  0  0
 13 11  1  0  0  0
 11 15  1  0  0  0
 15 16  3  0  0  0
 11  1  1  0  0  0
  1  3  1  0  0  0
  3  4  2  0  0  0
  3  5  2  0  0  0
  3  6  1  0  0  0
  6  7  1  0  0  0
  7  8  1  0  0  0
  8  9  1  0  0  0
  9 10  1  0  0  0
 10  6  1  0  0  0
  1  2  1  0  0  0
M  END
> <minimizedAffinity>
-5.25149

> <minimizedRMSD>
0.65473

$$$$
C9372-P204


 18 18  0  0  0  0  0  0  0  0999 V2000
    8.6506   14.6048   23.1775 O   0  0  0  0  0  0  0  0  0  0  0  0
    9.2225   14.1279   24.4100 S   0  0  0  0  0  0  0  0  0  0  0  0
    8.8267   14.6430   25.7054 O   0  0  0  0  0  0  0  0  0  0  0  0
    9.1291   12.3729   24.5165 C   0  0  0  0  0  0  0  0  0  0  0  0
    9.4409   11.5443   23.3125 C   0  0  0  0  0  0  0  0  0  0  0  0
    8.9062   10.1952   23.7543 C   0  0  0  0  0  0  0  0  0  0  0  0
    7.6900   10.4865   24.5110 N   0  0  0  0  0  0  0  0  0  0  0  0
    7.7609   11.8861   24.9517 C   0  0  0  0  0  0  0  0  0  0  0  0
    7.6294    9.8700   25.3214 H   0  0  0  0  0  0  0  0  0  0  0  0
   10.8914   14.3808   24.3701 N   0  0  0  0  0  0  0  0  0  0  0  0
   11.2999   13.8482   25.1381 H   0  0  0  0  0  0  0  0  0  0  0  0
   11.5988   14.0039   23.1514 C   0  0  0  0  0  0  0  0  0  0  0  0
   11.9757   15.2528   22.3632 C   0  0  0  0  0  0  0  0  0  0  0  0
   11.8998   15.0364   20.8520 C   0  0  0  0  0  0  0  0  0  0  0  0
   10.6126   15.5178   20.2148 C   0  0  0  0  0  0  0  0  0  0  0  0
   10.7680   15.6926   18.8913 F   0  0  0  0  0  0  0  0  0  0  0  0
    9.6171   14.6260   20.4090 F   0  0  0  0  0  0  0  0  0  0  0  0
   10.2237   16.6891   20.7539 F   0  0  0  0  0  0  0  0  0  0  0  0
  1  2  2  0  0  0
  2  3  2  0  0  0
  2 10  1  0  0  0
 10 12  1  0  0  0
 12 13  1  0  0  0
 13 14  1  0  0  0
 14 15  1  0  0  0
 15 16  1  0  0  0
 15 17  1  0  0  0
 15 18  1  0  0  0
  4  2  1  0  0  0
  4  5  1  0  0  0
  5  6  1  0  0  0
  6  7  1  0  0  0
  7  8  1  0  0  0
  8  4  1  0  0  0
 10 11  1  0  0  0
  7  9  1  0  0  0
M  END
> <minimizedAffinity>
-5.91414

> <minimizedRMSD>
1.61706

$$$$
C9376-P204


 12 12  0  0  0  0  0  0  0  0999 V2000
    8.1929   13.1527   23.3842 C   0  0  0  0  0  0  0  0  0  0  0  0
    7.3214   13.3893   22.5454 O   0  0  0  0  0  0  0  0  0  0  0  0
    7.9426   12.2829   24.6099 C   0  0  0  0  0  0  0  0  0  0  0  0
    7.9708   10.8049   24.3208 C   0  0  0  0  0  0  0  0  0  0  0  0
    7.0742   10.1959   25.3752 C   0  0  0  0  0  0  0  0  0  0  0  0
    6.3754   11.3524   26.0602 C   0  0  0  0  0  0  0  0  0  0  0  0
    6.6320   12.5380   25.2466 N   0  0  0  0  0  0  0  0  0  0  0  0
    6.6729   13.3729   25.8311 H   0  0  0  0  0  0  0  0  0  0  0  0
   10.4182   13.5846   24.5145 C   0  0  0  0  0  0  0  0  0  0  0  0
    9.5985   13.7565   23.2465 C   0  0  0  0  0  0  0  0  0  0  0  0
   10.3316   13.2923   22.1337 O   0  0  0  0  0  0  0  0  0  0  0  0
   10.5193   12.3467   22.2418 H   0  0  0  0  0  0  0  0  0  0  0  0
 10  9  1  0  0  0
 10 11  1  0  0  0
 10  1  1  0  0  0
  1  2  2  0  0  0
  3  1  1  0  0  0
  3  4  1  0  0  0
  4  5  1  0  0  0
  5  6  1  0  0  0
  6  7  1  0  0  0
  7  3  1  0  0  0
 11 12  1  0  0  0
  7  8  1  0  0  0
M  END
> <minimizedAffinity>
-4.32259

> <minimizedRMSD>
1.04656

$$$$
C9380-P204


 14 14  0  0  0  0  0  0  0  0999 V2000
    7.6113   14.1261   23.5376 C   0  0  0  0  0  0  0  0  0  0  0  0
    6.7303   13.5265   22.5875 O   0  0  0  0  0  0  0  0  0  0  0  0
    6.8536   12.5644   22.5945 H   0  0  0  0  0  0  0  0  0  0  0  0
    7.2744   13.5452   24.9319 C   0  0  0  0  0  0  0  0  0  0  0  0
    7.9591   12.3255   25.2774 O   0  0  0  0  0  0  0  0  0  0  0  0
    6.6236   10.4508   25.9451 C   0  0  0  0  0  0  0  0  0  0  0  0
    7.3261   11.1387   24.7947 C   0  0  0  0  0  0  0  0  0  0  0  0
    8.3164   10.1494   24.2154 C   0  0  0  0  0  0  0  0  0  0  0  0
    9.1247   13.9657   23.2175 C   0  0  0  0  0  0  0  0  0  0  0  0
    9.8451   14.8733   22.3152 N   0  0  0  0  0  0  0  0  0  0  0  0
   11.2868   14.5851   22.3014 C   0  0  0  0  0  0  0  0  0  0  0  0
   11.8110   15.0864   20.9649 C   0  0  0  0  0  0  0  0  0  0  0  0
   10.6039   15.6436   20.2459 C   0  0  0  0  0  0  0  0  0  0  0  0
    9.4381   14.9430   20.9125 C   0  0  0  0  0  0  0  0  0  0  0  0
  6  7  1  0  0  0
  7  8  1  0  0  0
  7  5  1  0  0  0
  5  4  1  0  0  0
  4  1  1  0  0  0
  1  2  1  0  0  0
  1  9  1  0  0  0
  9 10  1  0  0  0
 10 11  1  0  0  0
 11 12  1  0  0  0
 12 13  1  0  0  0
 13 14  1  0  0  0
 14 10  1  0  0  0
  2  3  1  0  0  0
M  END
> <minimizedAffinity>
-4.97384

> <minimizedRMSD>
1.38165

$$$$
C9382-P204


 16 16  0  0  0  0  0  0  0  0999 V2000
    9.3454   13.8709   23.7343 N   0  0  0  0  0  0  0  0  0  0  0  0
    9.6212   14.6592   24.3200 H   0  0  0  0  0  0  0  0  0  0  0  0
    7.6954   13.8380   23.7832 S   0  0  0  0  0  0  0  0  0  0  0  0
    7.1720   13.4243   22.5123 O   0  0  0  0  0  0  0  0  0  0  0  0
    7.3331   15.0614   24.4578 O   0  0  0  0  0  0  0  0  0  0  0  0
    7.5654   12.6131   24.9237 N   0  0  0  0  0  0  0  0  0  0  0  0
    6.3292   12.6612   25.7354 C   0  0  0  0  0  0  0  0  0  0  0  0
    6.2913   11.3096   26.4122 C   0  0  0  0  0  0  0  0  0  0  0  0
    7.0225   10.3653   25.4847 C   0  0  0  0  0  0  0  0  0  0  0  0
    7.7549   11.2243   24.4734 C   0  0  0  0  0  0  0  0  0  0  0  0
   10.1474   13.9969   22.4934 C   0  0  0  0  0  0  0  0  0  0  0  0
   12.3442   15.2849   22.9258 C   0  0  0  0  0  0  0  0  0  0  0  0
   11.6188   13.9614   23.0081 C   0  0  0  0  0  0  0  0  0  0  0  0
   11.8032   13.4182   24.4375 C   0  0  0  0  0  0  0  0  0  0  0  0
    9.7601   15.2891   21.7681 C   0  0  0  0  0  0  0  0  0  0  0  0
   10.2613   15.5451   19.7571 I   0  0  0  0  0  0  0  0  0  0  0  0
 12 13  1  0  0  0
 13 14  1  0  0  0
 13 11  1  0  0  0
 11 15  1  0  0  0
 15 16  1  0  0  0
 11  1  1  0  0  0
  1  3  1  0  0  0
  3  4  2  0  0  0
  3  5  2  0  0  0
  3  6  1  0  0  0
  6  7  1  0  0  0
  7  8  1  0  0  0
  8  9  1  0  0  0
  9 10  1  0  0  0
 10  6  1  0  0  0
  1  2  1  0  0  0
M  END
> <minimizedAffinity>
-5.27410

> <minimizedRMSD>
1.16653

$$$$
C9385-P204


 14 14  0  0  0  0  0  0  0  0999 V2000
    8.9715   14.0204   24.0060 C   0  0  0  0  0  0  0  0  0  0  0  0
    8.1245   14.9315   23.3076 O   0  0  0  0  0  0  0  0  0  0  0  0
    8.1673   14.7481   22.3561 H   0  0  0  0  0  0  0  0  0  0  0  0
    8.4549   12.5777   23.8341 C   0  0  0  0  0  0  0  0  0  0  0  0
    9.4664   11.5127   23.4453 C   0  0  0  0  0  0  0  0  0  0  0  0
    8.8178   10.1993   23.8516 C   0  0  0  0  0  0  0  0  0  0  0  0
    7.6536   10.5772   24.7466 C   0  0  0  0  0  0  0  0  0  0  0  0
    7.8399   11.9950   25.0505 N   0  0  0  0  0  0  0  0  0  0  0  0
    8.4580   12.1101   25.8537 H   0  0  0  0  0  0  0  0  0  0  0  0
   10.4548   14.2252   23.7194 C   0  0  0  0  0  0  0  0  0  0  0  0
   11.3465   13.9851   24.5269 O   0  0  0  0  0  0  0  0  0  0  0  0
   12.1655   15.3938   22.2036 C   0  0  0  0  0  0  0  0  0  0  0  0
   10.8247   14.7358   22.3365 C   0  0  0  0  0  0  0  0  0  0  0  0
   10.0299   14.5802   21.4166 O   0  0  0  0  0  0  0  0  0  0  0  0
 12 13  1  0  0  0
 13 14  2  0  0  0
 13 10  1  0  0  0
 10 11  2  0  0  0
 10  1  1  0  0  0
  1  2  1  0  0  0
  1  4  1  0  0  0
  4  5  1  0  0  0
  5  6  1  0  0  0
  6  7  1  0  0  0
  7  8  1  0  0  0
  8  4  1  0  0  0
  2  3  1  0  0  0
  8  9  1  0  0  0
M  END
> <minimizedAffinity>
-4.69449

> <minimizedRMSD>
1.67782

$$$$
C9386-P204


 16 16  0  0  0  0  0  0  0  0999 V2000
    7.4337   14.0625   24.5622 S   0  0  0  0  0  0  0  0  0  0  0  0
    6.8512   13.8665   23.2606 O   0  0  0  0  0  0  0  0  0  0  0  0
    6.9817   15.1239   25.4430 O   0  0  0  0  0  0  0  0  0  0  0  0
    7.3572   12.5752   25.5152 C   0  0  0  0  0  0  0  0  0  0  0  0
    7.5122   11.2343   24.8507 C   0  0  0  0  0  0  0  0  0  0  0  0
    6.6993   10.2768   25.7046 C   0  0  0  0  0  0  0  0  0  0  0  0
    6.0437   11.0811   26.7333 N   0  0  0  0  0  0  0  0  0  0  0  0
    6.0092   12.4466   26.1985 C   0  0  0  0  0  0  0  0  0  0  0  0
    6.5767   11.0518   27.6025 H   0  0  0  0  0  0  0  0  0  0  0  0
    9.0704   14.3798   24.4262 N   0  0  0  0  0  0  0  0  0  0  0  0
    9.1809   15.3554   24.7025 H   0  0  0  0  0  0  0  0  0  0  0  0
    9.8653   14.2294   23.1970 C   0  0  0  0  0  0  0  0  0  0  0  0
    9.2927   15.0407   22.0292 C   0  0  0  0  0  0  0  0  0  0  0  0
    9.9761   12.7680   22.8193 C   0  0  0  0  0  0  0  0  0  0  0  0
   12.1854   15.1843   22.7629 C   0  0  0  0  0  0  0  0  0  0  0  0
   11.2709   14.6566   23.5873 C   0  0  0  0  0  0  0  0  0  0  0  0
 15 16  2  0  0  0
 16 12  1  0  0  0
 12 13  1  0  0  0
 12 14  1  0  0  0
 12 10  1  0  0  0
 10  1  1  0  0  0
  1  2  2  0  0  0
  1  3  2  0  0  0
  4  1  1  0  0  0
  4  5  1  0  0  0
  5  6  1  0  0  0
  6  7  1  0  0  0
  7  8  1  0  0  0
  8  4  1  0  0  0
 10 11  1  0  0  0
  7  9  1  0  0  0
M  END
> <minimizedAffinity>
-4.59965

> <minimizedRMSD>
0.31525

$$$$
C9393-P204


 16 16  0  0  0  0  0  0  0  0999 V2000
    9.3809   14.4580   24.0780 N   0  0  0  0  0  0  0  0  0  0  0  0
    9.3890   15.3274   24.6113 H   0  0  0  0  0  0  0  0  0  0  0  0
    8.0090   13.6715   24.5000 S   0  0  0  0  0  0  0  0  0  0  0  0
    7.0768   13.7539   23.4069 O   0  0  0  0  0  0  0  0  0  0  0  0
    7.7030   14.1091   25.8403 O   0  0  0  0  0  0  0  0  0  0  0  0
    8.5213   12.0704   24.6285 N   0  0  0  0  0  0  0  0  0  0  0  0
    7.3931   11.1492   24.9548 C   0  0  0  0  0  0  0  0  0  0  0  0
    7.8139    9.7768   24.4584 C   0  0  0  0  0  0  0  0  0  0  0  0
    9.1139    9.9657   23.7080 C   0  0  0  0  0  0  0  0  0  0  0  0
    9.2088   11.4593   23.4757 C   0  0  0  0  0  0  0  0  0  0  0  0
    9.6603   14.8254   22.6841 C   0  0  0  0  0  0  0  0  0  0  0  0
   11.1395   15.1810   22.5495 C   0  0  0  0  0  0  0  0  0  0  0  0
   12.1258   13.9721   23.7583 Br  0  0  0  0  0  0  0  0  0  0  0  0
   11.7204   15.0236   21.1546 C   0  0  0  0  0  0  0  0  0  0  0  0
   11.3098   15.0384   18.6941 C   0  0  0  0  0  0  0  0  0  0  0  0
   10.7413   15.3932   20.0492 C   0  0  0  0  0  0  0  0  0  0  0  0
 15 16  1  0  0  0
 16 14  1  0  0  0
 14 12  1  0  0  0
 12 13  1  0  0  0
 12 11  1  0  0  0
 11  1  1  0  0  0
  1  3  1  0  0  0
  3  4  2  0  0  0
  3  5  2  0  0  0
  3  6  1  0  0  0
  6  7  1  0  0  0
  7  8  1  0  0  0
  8  9  1  0  0  0
  9 10  1  0  0  0
 10  6  1  0  0  0
  1  2  1  0  0  0
M  END
> <minimizedAffinity>
-4.99107

> <minimizedRMSD>
0.42350

$$$$
C9394-P204


 14 14  0  0  0  0  0  0  0  0999 V2000
    7.9239   14.0031   23.5637 C   0  0  0  0  0  0  0  0  0  0  0  0
    7.3481   15.3106   23.5547 O   0  0  0  0  0  0  0  0  0  0  0  0
    7.4899   15.7323   24.4166 H   0  0  0  0  0  0  0  0  0  0  0  0
    7.2511   13.1813   24.6525 C   0  0  0  0  0  0  0  0  0  0  0  0
    8.1110   12.1425   25.1217 O   0  0  0  0  0  0  0  0  0  0  0  0
    7.8231   10.8676   24.5740 C   0  0  0  0  0  0  0  0  0  0  0  0
    6.1320   10.5110   26.4621 C   0  0  0  0  0  0  0  0  0  0  0  0
    6.8537   10.0896   25.4140 C   0  0  0  0  0  0  0  0  0  0  0  0
    9.4420   14.0879   23.8078 C   0  0  0  0  0  0  0  0  0  0  0  0
   10.1132   15.0260   22.9012 N   0  0  0  0  0  0  0  0  0  0  0  0
   11.5717   14.9846   23.0699 C   0  0  0  0  0  0  0  0  0  0  0  0
   12.1526   15.2620   21.6911 C   0  0  0  0  0  0  0  0  0  0  0  0
   10.9582   15.5729   20.8173 C   0  0  0  0  0  0  0  0  0  0  0  0
    9.8695   14.7589   21.4792 C   0  0  0  0  0  0  0  0  0  0  0  0
  7  8  2  0  0  0
  8  6  1  0  0  0
  6  5  1  0  0  0
  5  4  1  0  0  0
  4  1  1  0  0  0
  1  2  1  0  0  0
  1  9  1  0  0  0
  9 10  1  0  0  0
 10 11  1  0  0  0
 11 12  1  0  0  0
 12 13  1  0  0  0
 13 14  1  0  0  0
 14 10  1  0  0  0
  2  3  1  0  0  0
M  END
> <minimizedAffinity>
-4.47869

> <minimizedRMSD>
0.75752

$$$$
C1585-P198


 17 17  0  0  0  0  0  0  0  0999 V2000
   11.0555   15.7986   23.8877 O   0  0  0  0  0  0  0  0  0  0  0  0
   10.7583   14.9651   23.1302 C   0  0  0  0  0  0  0  0  0  0  0  0
    9.8616   13.7221   23.3122 N   0  0  0  0  0  0  0  0  0  0  0  0
    9.8263   13.1217   22.5328 H   0  0  0  0  0  0  0  0  0  0  0  0
   11.1655   15.0134   21.6633 C   0  0  0  0  0  0  0  0  0  0  0  0
    9.9424   15.3728   20.8492 C   0  0  0  0  0  0  0  0  0  0  0  0
    9.2352   16.3383   21.4998 F   0  0  0  0  0  0  0  0  0  0  0  0
    9.1035   14.2928   20.7931 F   0  0  0  0  0  0  0  0  0  0  0  0
   10.2189   15.8413   19.4294 C   0  0  0  0  0  0  0  0  0  0  0  0
   10.1254   17.1766   19.3379 F   0  0  0  0  0  0  0  0  0  0  0  0
   11.4656   15.5138   19.0151 F   0  0  0  0  0  0  0  0  0  0  0  0
    9.0750   13.3013   24.4272 C   0  0  0  0  0  0  0  0  0  0  0  0
    8.6588   11.8916   24.2663 C   0  0  0  0  0  0  0  0  0  0  0  0
    7.5573   11.2665   24.8035 C   0  0  0  0  0  0  0  0  0  0  0  0
    7.6234    9.9431   24.4935 O   0  0  0  0  0  0  0  0  0  0  0  0
    8.7635    9.8319   23.7528 C   0  0  0  0  0  0  0  0  0  0  0  0
    9.4026   10.9657   23.5614 N   0  0  0  0  0  0  0  0  0  0  0  0
  1  2  2  0  0  0
  2  5  1  0  0  0
  5  6  1  0  0  0
  6  7  1  0  0  0
  6  8  1  0  0  0
  6  9  1  0  0  0
  9 10  1  0  0  0
  9 11  1  0  0  0
  2  3  1  0  0  0
  3 12  1  0  0  0
 12 13  1  0  0  0
 13 14  2  0  0  0
 14 15  1  0  0  0
 15 16  1  0  0  0
 16 17  2  0  0  0
 17 13  1  0  0  0
  3  4  1  0  0  0
M  END
> <minimizedAffinity>
-5.49940

> <minimizedRMSD>
0.62883

$$$$
C1625-P136


 15 15  0  0  0  0  0  0  0  0999 V2000
   10.8938   12.9733   23.4546 N   0  0  0  0  0  0  0  0  0  0  0  0
    9.7112   12.7512   24.4078 C   0  0  0  0  0  0  0  0  0  0  0  0
    9.2311   13.4638   25.1935 O   0  0  0  0  0  0  0  0  0  0  0  0
   11.0604   12.2344   22.8257 H   0  0  0  0  0  0  0  0  0  0  0  0
    9.1787   11.4193   24.2060 C   0  0  0  0  0  0  0  0  0  0  0  0
    8.0664   10.7917   24.7180 C   0  0  0  0  0  0  0  0  0  0  0  0
    8.0306    9.4833   24.3096 N   0  0  0  0  0  0  0  0  0  0  0  0
    9.0947    9.3697   23.5446 C   0  0  0  0  0  0  0  0  0  0  0  0
    9.8359   10.5063   23.4163 O   0  0  0  0  0  0  0  0  0  0  0  0
   11.7962   14.0825   23.3308 C   0  0  0  0  0  0  0  0  0  0  0  0
   11.7314   14.7302   21.9538 C   0  0  0  0  0  0  0  0  0  0  0  0
   10.2937   15.0457   21.5102 C   0  0  0  0  0  0  0  0  0  0  0  0
    9.8537   17.0315   20.0498 C   0  0  0  0  0  0  0  0  0  0  0  0
   10.1397   15.5439   20.0726 C   0  0  0  0  0  0  0  0  0  0  0  0
   11.5388   15.1191   19.0632 Cl  0  0  0  0  0  0  0  0  0  0  0  0
 14 13  1  0  0  0
 14 15  1  0  0  0
 14 12  1  0  0  0
 12 11  1  0  0  0
 11 10  1  0  0  0
 10  1  1  0  0  0
  1  2  1  0  0  0
  2  3  2  0  0  0
  2  5  1  0  0  0
  5  6  2  0  0  0
  6  7  1  0  0  0
  7  8  2  0  0  0
  8  9  1  0  0  0
  9  5  1  0  0  0
  1  4  1  0  0  0
M  END
> <minimizedAffinity>
-5.69802

> <minimizedRMSD>
0.43409

$$$$
C9549-P364


 10 10  0  0  0  0  0  0  0  0999 V2000
    7.8081   12.6164   26.1617 C   0  0  0  0  0  0  0  0  0  0  0  0
    6.8903   11.5649   26.0823 C   0  0  0  0  0  0  0  0  0  0  0  0
    5.7596   11.5888   26.8917 C   0  0  0  0  0  0  0  0  0  0  0  0
    5.4936   12.5623   27.7842 N   0  0  0  0  0  0  0  0  0  0  0  0
    6.3744   13.5800   27.8400 C   0  0  0  0  0  0  0  0  0  0  0  0
    7.5276   13.6453   27.0703 C   0  0  0  0  0  0  0  0  0  0  0  0
    9.1026   12.6743   25.3795 C   0  0  0  0  0  0  0  0  0  0  0  0
    9.1294   11.9612   24.0343 C   0  0  0  0  0  0  0  0  0  0  0  0
    9.0358    9.5576   24.0669 O   0  0  0  0  0  0  0  0  0  0  0  0
    9.7051   10.5788   24.1416 C   0  0  0  0  0  0  0  0  0  0  0  0
  9 10  2  0  0  0
 10  8  1  0  0  0
  8  7  1  0  0  0
  7  1  1  0  0  0
  1  2  2  0  0  0
  2  3  1  0  0  0
  3  4  2  0  0  0
  4  5  1  0  0  0
  5  6  2  0  0  0
  6  1  1  0  0  0
M  END
> <minimizedAffinity>
-3.13708

> <minimizedRMSD>
0.76858

$$$$
C7674-P618


 15 16  0  0  0  0  0  0  0  0999 V2000
   10.0293   15.1611   24.2708 C   0  0  0  0  0  0  0  0  0  0  0  0
    8.7641   15.9685   24.5728 C   0  0  0  0  0  0  0  0  0  0  0  0
    6.9445   17.6996   23.6148 N   0  0  0  0  0  0  0  0  0  0  0  0
    7.8108   16.3604   23.1118 S   0  0  0  0  0  0  0  0  0  0  0  0
    8.7065   16.8217   22.0819 O   0  0  0  0  0  0  0  0  0  0  0  0
    6.8525   15.3002   22.8901 O   0  0  0  0  0  0  0  0  0  0  0  0
    6.3493   18.0252   22.8532 H   0  0  0  0  0  0  0  0  0  0  0  0
    7.5910   18.4419   23.8823 H   0  0  0  0  0  0  0  0  0  0  0  0
    9.8636   13.7885   23.5867 C   0  0  0  0  0  0  0  0  0  0  0  0
    9.6022   12.6085   24.4172 N   0  0  0  0  0  0  0  0  0  0  0  0
    8.2896   12.5975   25.0693 C   0  0  0  0  0  0  0  0  0  0  0  0
    8.1429   11.1422   25.4778 C   0  0  0  0  0  0  0  0  0  0  0  0
    8.7108   10.3779   24.3326 C   0  0  0  0  0  0  0  0  0  0  0  0
   10.1217    9.9925   24.1286 C   0  0  0  0  0  0  0  0  0  0  0  0
    9.6591   11.3296   23.6370 C   0  0  0  0  0  0  0  0  0  0  0  0
  3  4  1  0  0  0
  4  5  2  0  0  0
  4  6  2  0  0  0
  4  2  1  0  0  0
  2  1  1  0  0  0
  1  9  1  0  0  0
  9 10  1  0  0  0
 10 11  1  0  0  0
 11 12  1  0  0  0
 13 12  1  0  0  0
 13 14  1  0  0  0
 15 14  1  0  0  0
 15 10  1  0  0  0
 15 13  1  0  0  0
  3  7  1  0  0  0
  3  8  1  0  0  0
M  END
> <minimizedAffinity>
-3.68991

> <minimizedRMSD>
1.47825

$$$$
C678-P71


 23 26  0  0  0  0  0  0  0  0999 V2000
   30.0119   22.2642   17.3530 O   0  0  0  0  0  0  0  0  0  0  0  0
   31.0683   20.2711   16.9809 O   0  0  0  0  0  0  0  0  0  0  0  0
   30.7530   21.3992   16.6027 C   0  0  0  0  0  0  0  0  0  0  0  0
   31.1429   22.0201   15.2291 C   0  0  0  0  0  0  0  0  0  0  0  0
   32.3325   23.0393   15.2159 C   0  0  0  0  0  0  0  0  0  0  0  0
   33.2602   21.8529   14.8917 C   0  0  0  0  0  0  0  0  0  0  0  0
   32.0344   21.1484   14.2815 C   0  0  0  0  0  0  0  0  0  0  0  0
   29.9385   22.5070   14.5094 N   0  0  0  0  0  0  0  0  0  0  0  0
   29.0061   21.6770   13.9475 C   0  0  0  0  0  0  0  0  0  0  0  0
   28.0348   22.4935   13.4194 C   0  0  0  0  0  0  0  0  0  0  0  0
   28.4733   23.7973   13.7047 C   0  0  0  0  0  0  0  0  0  0  0  0
   29.6329   23.8130   14.3663 N   0  0  0  0  0  0  0  0  0  0  0  0
   29.2468   21.6542   18.4000 C   0  0  0  0  0  0  0  0  0  0  0  0
   27.7748   21.9852   18.2323 C   0  0  0  0  0  0  0  0  0  0  0  0
   26.8809   21.6209   19.2523 C   0  0  0  0  0  0  0  0  0  0  0  0
   25.5010   21.8465   19.1386 C   0  0  0  0  0  0  0  0  0  0  0  0
   25.0089   22.4420   17.9665 C   0  0  0  0  0  0  0  0  0  0  0  0
   23.7419   22.8049   17.4592 C   0  0  0  0  0  0  0  0  0  0  0  0
   23.8008   23.3211   16.2278 N   0  0  0  0  0  0  0  0  0  0  0  0
   25.1249   23.3093   15.9537 N   0  0  0  0  0  0  0  0  0  0  0  0
   25.8995   22.7970   16.9633 C   0  0  0  0  0  0  0  0  0  0  0  0
   27.2808   22.5827   17.0570 C   0  0  0  0  0  0  0  0  0  0  0  0
   25.4997   23.6390   15.1052 H   0  0  0  0  0  0  0  0  0  0  0  0
  2  3  2  0  0  0
  3  1  1  0  0  0
  1 13  1  0  0  0
 13 14  1  0  0  0
 14 15  2  0  0  0
 15 16  1  0  0  0
 16 17  2  0  0  0
 17 18  1  0  0  0
 18 19  2  0  0  0
 19 20  1  0  0  0
 20 21  1  0  0  0
 21 22  2  0  0  0
  3  4  1  0  0  0
  4  8  1  0  0  0
  8  9  1  0  0  0
  9 10  2  0  0  0
 10 11  1  0  0  0
 11 12  2  0  0  0
  4  5  1  0  0  0
  5  6  1  0  0  0
  6  7  1  0  0  0
 22 14  1  0  0  0
  7  4  1  0  0  0
 21 17  1  0  0  0
 12  8  1  0  0  0
 20 23  1  0  0  0
M  END
> <minimizedAffinity>
-4.38294

> <minimizedRMSD>
2.47637

$$$$
C2399-P384


 16 16  0  0  0  0  0  0  0  0999 V2000
    9.0229   13.8392   23.9295 C   0  0  0  0  0  0  0  0  0  0  0  0
    8.2842   14.8230   24.8458 C   0  0  0  0  0  0  0  0  0  0  0  0
   10.3170   13.7927   24.3915 F   0  0  0  0  0  0  0  0  0  0  0  0
    8.4842   12.3772   24.0102 C   0  0  0  0  0  0  0  0  0  0  0  0
    9.5543   11.3875   23.4995 C   0  0  0  0  0  0  0  0  0  0  0  0
    9.5541   10.0368   24.2083 C   0  0  0  0  0  0  0  0  0  0  0  0
    8.1706    9.6252   24.6491 C   0  0  0  0  0  0  0  0  0  0  0  0
    7.4786   10.6202   25.4630 N   0  0  0  0  0  0  0  0  0  0  0  0
    8.0381   11.9655   25.4048 C   0  0  0  0  0  0  0  0  0  0  0  0
    7.5058   10.3085   26.4339 H   0  0  0  0  0  0  0  0  0  0  0  0
    7.8620   14.3920   21.7554 C   0  0  0  0  0  0  0  0  0  0  0  0
    8.9794   14.3825   22.5132 C   0  0  0  0  0  0  0  0  0  0  0  0
   10.2542   15.0096   22.0344 C   0  0  0  0  0  0  0  0  0  0  0  0
   11.3080   14.1615   22.0402 F   0  0  0  0  0  0  0  0  0  0  0  0
   10.1382   15.4787   20.7640 F   0  0  0  0  0  0  0  0  0  0  0  0
   10.5999   16.0682   22.8117 F   0  0  0  0  0  0  0  0  0  0  0  0
 11 12  2  0  0  0
 12 13  1  0  0  0
 13 14  1  0  0  0
 13 15  1  0  0  0
 13 16  1  0  0  0
 12  1  1  0  0  0
  1  2  1  0  0  0
  1  3  1  0  0  0
  1  4  1  0  0  0
  4  5  1  0  0  0
  5  6  1  0  0  0
  6  7  1  0  0  0
  7  8  1  0  0  0
  8  9  1  0  0  0
  9  4  1  0  0  0
  8 10  1  0  0  0
M  END
> <minimizedAffinity>
-4.65353

> <minimizedRMSD>
0.80743

$$$$
C1627-P176


 17 17  0  0  0  0  0  0  0  0999 V2000
   10.9851   13.1997   23.7043 C   0  0  0  0  0  0  0  0  0  0  0  0
   11.9661   12.9486   24.2733 O   0  0  0  0  0  0  0  0  0  0  0  0
   10.7560   14.0340   22.4419 N   0  0  0  0  0  0  0  0  0  0  0  0
    9.8106   14.1619   22.1988 H   0  0  0  0  0  0  0  0  0  0  0  0
    9.5882   12.8021   24.1905 C   0  0  0  0  0  0  0  0  0  0  0  0
    9.5074   13.5247   25.5400 C   0  0  0  0  0  0  0  0  0  0  0  0
    8.2125   14.2465   25.8554 C   0  0  0  0  0  0  0  0  0  0  0  0
    9.4959   11.2690   24.1414 C   0  0  0  0  0  0  0  0  0  0  0  0
    6.2858   10.3191   26.1468 C   0  0  0  0  0  0  0  0  0  0  0  0
    7.1966   10.9403   25.1459 C   0  0  0  0  0  0  0  0  0  0  0  0
    8.4782   10.5854   24.9981 C   0  0  0  0  0  0  0  0  0  0  0  0
   11.6891   14.6570   21.5593 C   0  0  0  0  0  0  0  0  0  0  0  0
   10.7999   15.4073   20.6551 C   0  0  0  0  0  0  0  0  0  0  0  0
   10.4580   15.2009   19.3446 C   0  0  0  0  0  0  0  0  0  0  0  0
    9.5084   16.1213   19.0188 O   0  0  0  0  0  0  0  0  0  0  0  0
    9.3509   16.8686   20.1431 C   0  0  0  0  0  0  0  0  0  0  0  0
   10.0616   16.4663   21.1634 N   0  0  0  0  0  0  0  0  0  0  0  0
  9 10  1  0  0  0
 10 11  2  0  0  0
 11  8  1  0  0  0
  5  8  1  0  0  0
  5  6  1  0  0  0
  6  7  1  0  0  0
  5  1  1  0  0  0
  1  2  2  0  0  0
  1  3  1  0  0  0
  3 12  1  0  0  0
 12 13  1  0  0  0
 13 14  2  0  0  0
 14 15  1  0  0  0
 15 16  1  0  0  0
 16 17  2  0  0  0
 17 13  1  0  0  0
  3  4  1  0  0  0
M  END
> <minimizedAffinity>
-5.63840

> <minimizedRMSD>
0.70920

$$$$
C7182-P336


 23 24  0  0  0  0  0  0  0  0999 V2000
    9.5937   10.3174   23.5211 C   0  0  0  0  0  0  0  0  0  0  0  0
    8.6223   11.0933   24.3233 C   0  0  0  0  0  0  0  0  0  0  0  0
    7.6723   10.6267   25.1859 C   0  0  0  0  0  0  0  0  0  0  0  0
    6.9998   11.7350   25.7062 C   0  0  0  0  0  0  0  0  0  0  0  0
    7.5228   12.8643   25.2366 N   0  0  0  0  0  0  0  0  0  0  0  0
    8.4513   12.4505   24.3382 N   0  0  0  0  0  0  0  0  0  0  0  0
    9.0777   13.3893   23.4296 C   0  0  0  0  0  0  0  0  0  0  0  0
    9.7891   14.5568   24.1118 C   0  0  0  0  0  0  0  0  0  0  0  0
   10.5263   15.3760   23.0510 C   0  0  0  0  0  0  0  0  0  0  0  0
    9.5869   15.8109   21.9263 C   0  0  0  0  0  0  0  0  0  0  0  0
    8.8176   14.6619   21.3021 C   0  0  0  0  0  0  0  0  0  0  0  0
    8.0797   13.8814   22.3788 C   0  0  0  0  0  0  0  0  0  0  0  0
    5.9463   11.5999   26.5568 N   0  0  0  0  0  0  0  0  0  0  0  0
    5.6884   12.2343   27.9546 C   0  0  0  0  0  0  0  0  0  0  0  0
    6.3750   12.9061   28.6187 O   0  0  0  0  0  0  0  0  0  0  0  0
    5.2311   11.0042   26.2360 H   0  0  0  0  0  0  0  0  0  0  0  0
    4.2321   11.8874   28.2961 C   0  0  0  0  0  0  0  0  0  0  0  0
    3.9496   11.0133   29.5234 C   0  0  0  0  0  0  0  0  0  0  0  0
    2.8106   11.5361   30.3943 C   0  0  0  0  0  0  0  0  0  0  0  0
    3.6004    9.6014   29.0525 C   0  0  0  0  0  0  0  0  0  0  0  0
    3.6428    8.7167   30.0708 F   0  0  0  0  0  0  0  0  0  0  0  0
    4.4641    9.1672   28.1061 F   0  0  0  0  0  0  0  0  0  0  0  0
    2.3659    9.5519   28.5064 F   0  0  0  0  0  0  0  0  0  0  0  0
  1  2  1  0  0  0
  2  3  2  0  0  0
  3  4  1  0  0  0
  4 13  1  0  0  0
 13 14  1  0  0  0
 14 15  2  0  0  0
 14 17  1  0  0  0
 17 18  1  0  0  0
 18 19  1  0  0  0
 18 20  1  0  0  0
 20 21  1  0  0  0
 20 22  1  0  0  0
 20 23  1  0  0  0
  4  5  2  0  0  0
  5  6  1  0  0  0
  6  7  1  0  0  0
  7  8  1  0  0  0
  8  9  1  0  0  0
  9 10  1  0  0  0
 10 11  1  0  0  0
 11 12  1  0  0  0
  6  2  1  0  0  0
 12  7  1  0  0  0
 13 16  1  0  0  0
M  END
> <minimizedAffinity>
-5.35308

> <minimizedRMSD>
1.25044

$$$$
C13001-P22


 14 14  0  0  0  0  0  0  0  0999 V2000
    9.7501   14.2885   23.4165 C   0  0  0  0  0  0  0  0  0  0  0  0
    9.7681   13.6743   22.4254 O   0  0  0  0  0  0  0  0  0  0  0  0
   10.6715   15.4226   23.9056 N   0  0  0  0  0  0  0  0  0  0  0  0
   10.4934   15.7313   24.8233 H   0  0  0  0  0  0  0  0  0  0  0  0
   11.7544   16.1067   23.2366 C   0  0  0  0  0  0  0  0  0  0  0  0
   12.9294   15.2327   22.7929 C   0  0  0  0  0  0  0  0  0  0  0  0
   13.6325   16.0992   21.7634 C   0  0  0  0  0  0  0  0  0  0  0  0
   12.5758   16.8638   21.1708 N   0  0  0  0  0  0  0  0  0  0  0  0
   11.4142   16.8102   21.9205 C   0  0  0  0  0  0  0  0  0  0  0  0
   10.3559   17.3172   21.5919 O   0  0  0  0  0  0  0  0  0  0  0  0
   12.6655   17.3676   20.3298 H   0  0  0  0  0  0  0  0  0  0  0  0
    8.6962   12.6532   24.9245 C   0  0  0  0  0  0  0  0  0  0  0  0
    8.7584   13.9251   24.5063 C   0  0  0  0  0  0  0  0  0  0  0  0
    7.7662   15.1084   25.2679 Cl  0  0  0  0  0  0  0  0  0  0  0  0
 12 13  2  0  0  0
 13 14  1  0  0  0
 13  1  1  0  0  0
  1  2  2  0  0  0
  1  3  1  0  0  0
  5  3  1  0  0  0
  5  6  1  0  0  0
  6  7  1  0  0  0
  7  8  1  0  0  0
  8  9  1  0  0  0
  9 10  2  0  0  0
  9  5  1  0  0  0
  3  4  1  0  0  0
  8 11  1  0  0  0
M  END
> <minimizedAffinity>
-5.50633

> <minimizedRMSD>
1.69883

$$$$
C8052-P2


 20 20  0  0  0  0  0  0  0  0999 V2000
    9.6142   14.8351   23.2256 C   0  0  0  0  0  0  0  0  0  0  0  0
    8.7269   13.8426   23.8144 N   0  0  0  0  0  0  0  0  0  0  0  0
    7.4882   14.0153   24.7014 C   0  0  0  0  0  0  0  0  0  0  0  0
    6.9324   14.9790   25.0411 O   0  0  0  0  0  0  0  0  0  0  0  0
    8.9601   12.9083   23.6097 H   0  0  0  0  0  0  0  0  0  0  0  0
    7.0821   12.6709   25.2232 C   0  0  0  0  0  0  0  0  0  0  0  0
    6.1827   12.5821   26.2746 C   0  0  0  0  0  0  0  0  0  0  0  0
    5.8653   11.3177   26.7412 C   0  0  0  0  0  0  0  0  0  0  0  0
    6.4543   10.2096   26.1411 C   0  0  0  0  0  0  0  0  0  0  0  0
    7.3736   10.3901   25.1207 C   0  0  0  0  0  0  0  0  0  0  0  0
    7.7037   11.6015   24.6405 N   0  0  0  0  0  0  0  0  0  0  0  0
   10.8433   15.0162   24.1301 C   0  0  0  0  0  0  0  0  0  0  0  0
   11.8839   14.2406   23.7561 F   0  0  0  0  0  0  0  0  0  0  0  0
   11.2616   16.2938   24.1569 F   0  0  0  0  0  0  0  0  0  0  0  0
   10.5731   14.7004   25.4247 F   0  0  0  0  0  0  0  0  0  0  0  0
    9.8898   14.4892   21.7475 C   0  0  0  0  0  0  0  0  0  0  0  0
   11.9374   15.7803   21.0007 C   0  0  0  0  0  0  0  0  0  0  0  0
   10.4228   15.6010   20.8079 C   0  0  0  0  0  0  0  0  0  0  0  0
   10.2216   15.2331   19.3275 C   0  0  0  0  0  0  0  0  0  0  0  0
    9.6320   16.8907   21.0437 C   0  0  0  0  0  0  0  0  0  0  0  0
 17 18  1  0  0  0
 18 19  1  0  0  0
 18 20  1  0  0  0
 18 16  1  0  0  0
  1 16  1  0  0  0
  1  2  1  0  0  0
  2  3  1  0  0  0
  3  4  2  0  0  0
  3  6  1  0  0  0
  6  7  2  0  0  0
  7  8  1  0  0  0
  8  9  2  0  0  0
  9 10  1  0  0  0
 10 11  2  0  0  0
  1 12  1  0  0  0
 12 13  1  0  0  0
 12 14  1  0  0  0
 12 15  1  0  0  0
 11  6  1  0  0  0
  2  5  1  0  0  0
M  END
> <minimizedAffinity>
-5.82082

> <minimizedRMSD>
0.39911

$$$$
C4719-P339


 10 10  0  0  0  0  0  0  0  0999 V2000
    9.6976   14.4751   22.7979 N   0  0  0  0  0  0  0  0  0  0  0  0
   10.6982   15.1893   23.6032 C   0  0  0  0  0  0  0  0  0  0  0  0
   11.8252   15.7270   22.7770 C   0  0  0  0  0  0  0  0  0  0  0  0
   11.7249   15.9355   21.4575 C   0  0  0  0  0  0  0  0  0  0  0  0
   10.4483   15.6541   20.7220 C   0  0  0  0  0  0  0  0  0  0  0  0
    9.2729   15.3205   21.6622 C   0  0  0  0  0  0  0  0  0  0  0  0
    8.5484   14.0066   23.5771 C   0  0  0  0  0  0  0  0  0  0  0  0
    8.9608   13.0631   24.7061 C   0  0  0  0  0  0  0  0  0  0  0  0
    7.8778   11.0966   25.5261 O   0  0  0  0  0  0  0  0  0  0  0  0
    7.7840   12.2825   25.2117 C   0  0  0  0  0  0  0  0  0  0  0  0
  9 10  2  0  0  0
 10  8  1  0  0  0
  8  7  1  0  0  0
  7  1  1  0  0  0
  1  2  1  0  0  0
  2  3  1  0  0  0
  3  4  2  0  0  0
  4  5  1  0  0  0
  5  6  1  0  0  0
  6  1  1  0  0  0
M  END
> <minimizedAffinity>
-3.39492

> <minimizedRMSD>
0.35159

$$$$
C4725-P339


 10 10  0  0  0  0  0  0  0  0999 V2000
    5.9102   11.3331   26.7317 N   0  0  0  0  0  0  0  0  0  0  0  0
    5.1564   10.4613   27.6706 C   0  0  0  0  0  0  0  0  0  0  0  0
    3.9470   11.1390   28.3233 C   0  0  0  0  0  0  0  0  0  0  0  0
    4.4305   12.5629   29.3403 S   0  0  0  0  0  0  0  0  0  0  0  0
    5.4330   13.4120   28.0853 C   0  0  0  0  0  0  0  0  0  0  0  0
    6.4849   12.4890   27.4533 C   0  0  0  0  0  0  0  0  0  0  0  0
    6.9612   10.5097   26.0858 C   0  0  0  0  0  0  0  0  0  0  0  0
    8.0508   11.3000   25.3594 C   0  0  0  0  0  0  0  0  0  0  0  0
    8.7059    9.2686   24.2080 O   0  0  0  0  0  0  0  0  0  0  0  0
    9.0010   10.3856   24.6235 C   0  0  0  0  0  0  0  0  0  0  0  0
  9 10  2  0  0  0
 10  8  1  0  0  0
  8  7  1  0  0  0
  7  1  1  0  0  0
  1  2  1  0  0  0
  2  3  1  0  0  0
  3  4  1  0  0  0
  4  5  1  0  0  0
  5  6  1  0  0  0
  6  1  1  0  0  0
M  END
> <minimizedAffinity>
-2.90163

> <minimizedRMSD>
2.83304

$$$$
C4754-P423


 13 14  0  0  0  0  0  0  0  0999 V2000
    8.7809   12.8376   23.9091 N   0  0  0  0  0  0  0  0  0  0  0  0
    7.6656   13.7960   24.1248 C   0  0  0  0  0  0  0  0  0  0  0  0
    8.1766   15.2504   24.2190 C   0  0  0  0  0  0  0  0  0  0  0  0
    8.9877   15.6594   23.0628 N   0  0  0  0  0  0  0  0  0  0  0  0
   10.1055   14.7154   22.9071 C   0  0  0  0  0  0  0  0  0  0  0  0
    9.6576   13.2422   22.7832 C   0  0  0  0  0  0  0  0  0  0  0  0
    9.3523   16.5997   23.2158 H   0  0  0  0  0  0  0  0  0  0  0  0
    7.4328   10.9102   24.7662 C   0  0  0  0  0  0  0  0  0  0  0  0
    7.4727    9.5762   24.7337 N   0  0  0  0  0  0  0  0  0  0  0  0
    8.5733    9.3147   24.0058 N   0  0  0  0  0  0  0  0  0  0  0  0
    9.2450   10.4398   23.6197 C   0  0  0  0  0  0  0  0  0  0  0  0
    8.5136   11.5078   24.0808 C   0  0  0  0  0  0  0  0  0  0  0  0
    8.8655    8.4034   23.7745 H   0  0  0  0  0  0  0  0  0  0  0  0
  8  9  2  0  0  0
  9 10  1  0  0  0
 10 11  1  0  0  0
 11 12  2  0  0  0
 12  1  1  0  0  0
  1  2  1  0  0  0
  2  3  1  0  0  0
  3  4  1  0  0  0
  4  5  1  0  0  0
  5  6  1  0  0  0
 12  8  1  0  0  0
  6  1  1  0  0  0
 10 13  1  0  0  0
  4  7  1  0  0  0
M  END
> <minimizedAffinity>
-4.19250

> <minimizedRMSD>
1.53093

$$$$
C4761-P423


 13 14  0  0  0  0  0  0  0  0999 V2000
    7.5078   12.7439   24.6066 C   0  0  0  0  0  0  0  0  0  0  0  0
    8.5445   13.7875   25.0728 C   0  0  0  0  0  0  0  0  0  0  0  0
    9.5116   14.5791   23.7471 S   0  0  0  0  0  0  0  0  0  0  0  0
    8.1196   14.9880   22.6549 C   0  0  0  0  0  0  0  0  0  0  0  0
    7.2662   13.7585   22.3657 C   0  0  0  0  0  0  0  0  0  0  0  0
    6.6001   13.1829   23.5360 N   0  0  0  0  0  0  0  0  0  0  0  0
    6.0583   12.3755   23.2280 H   0  0  0  0  0  0  0  0  0  0  0  0
    7.5426   10.1546   24.7002 C   0  0  0  0  0  0  0  0  0  0  0  0
    8.2717    9.1133   24.3061 N   0  0  0  0  0  0  0  0  0  0  0  0
    9.2788    9.6690   23.6110 N   0  0  0  0  0  0  0  0  0  0  0  0
    9.2161   11.0339   23.5881 C   0  0  0  0  0  0  0  0  0  0  0  0
    8.0815   11.3947   24.2891 C   0  0  0  0  0  0  0  0  0  0  0  0
    9.9860    9.1485   23.1660 H   0  0  0  0  0  0  0  0  0  0  0  0
  8  9  2  0  0  0
  9 10  1  0  0  0
 10 11  1  0  0  0
 11 12  2  0  0  0
  1 12  1  0  0  0
  1  2  1  0  0  0
  2  3  1  0  0  0
  3  4  1  0  0  0
  4  5  1  0  0  0
  5  6  1  0  0  0
 12  8  1  0  0  0
  6  1  1  0  0  0
 10 13  1  0  0  0
  6  7  1  0  0  0
M  END
> <minimizedAffinity>
-4.37688

> <minimizedRMSD>
0.75172

$$$$
C18193-P364


 13 13  0  0  0  0  0  0  0  0999 V2000
   10.8357   13.5813   22.9786 C   0  0  0  0  0  0  0  0  0  0  0  0
   10.9693   14.9296   22.4024 C   0  0  0  0  0  0  0  0  0  0  0  0
   12.0867   15.7769   22.4712 C   0  0  0  0  0  0  0  0  0  0  0  0
   11.8408   16.9699   21.9613 N   0  0  0  0  0  0  0  0  0  0  0  0
   10.5973   16.8664   21.4684 N   0  0  0  0  0  0  0  0  0  0  0  0
   10.0273   15.6700   21.7268 C   0  0  0  0  0  0  0  0  0  0  0  0
   10.1477   17.5870   20.9706 H   0  0  0  0  0  0  0  0  0  0  0  0
    9.6258   13.5505   23.7942 N   0  0  0  0  0  0  0  0  0  0  0  0
    9.6848   13.9337   25.1959 C   0  0  0  0  0  0  0  0  0  0  0  0
   11.0690   13.9550   25.8306 C   0  0  0  0  0  0  0  0  0  0  0  0
    8.7974   12.3926   23.5352 O   0  0  0  0  0  0  0  0  0  0  0  0
    9.5897   10.2203   24.0819 C   0  0  0  0  0  0  0  0  0  0  0  0
    8.8161   11.4230   24.5789 C   0  0  0  0  0  0  0  0  0  0  0  0
 12 13  1  0  0  0
 13 11  1  0  0  0
 11  8  1  0  0  0
  8  9  1  0  0  0
  9 10  1  0  0  0
  8  1  1  0  0  0
  1  2  1  0  0  0
  2  3  1  0  0  0
  3  4  2  0  0  0
  4  5  1  0  0  0
  5  6  1  0  0  0
  6  2  2  0  0  0
  5  7  1  0  0  0
M  END
> <minimizedAffinity>
-4.21912

> <minimizedRMSD>
1.32815

$$$$
C961-P288


 20 22  0  0  0  0  0  0  0  0999 V2000
   25.6979   13.5584   -0.7434 O   0  0  0  0  0  0  0  0  0  0  0  0
   24.9516   12.8290   -0.2131 C   0  0  0  0  0  0  0  0  0  0  0  0
   23.9294   11.8164   -0.8149 N   0  0  0  0  0  0  0  0  0  0  0  0
   23.4649   11.2561   -0.1520 H   0  0  0  0  0  0  0  0  0  0  0  0
   24.9139   12.6483    1.3189 C   0  0  0  0  0  0  0  0  0  0  0  0
   26.2342   13.1005    1.9749 C   0  0  0  0  0  0  0  0  0  0  0  0
   26.1214   13.1332    3.5029 C   0  0  0  0  0  0  0  0  0  0  0  0
   25.0238   14.0957    3.9567 C   0  0  0  0  0  0  0  0  0  0  0  0
   23.8388   13.9995    3.1383 N   0  0  0  0  0  0  0  0  0  0  0  0
   22.6189   14.5404    3.3781 C   0  0  0  0  0  0  0  0  0  0  0  0
   21.8120   14.2378    2.3861 N   0  0  0  0  0  0  0  0  0  0  0  0
   22.5257   13.4883    1.4767 N   0  0  0  0  0  0  0  0  0  0  0  0
   23.7611   13.3815    1.9199 C   0  0  0  0  0  0  0  0  0  0  0  0
   23.5737   11.5806   -2.1147 N   0  0  0  0  0  0  0  0  0  0  0  0
   23.9195   12.1239   -2.8594 H   0  0  0  0  0  0  0  0  0  0  0  0
   22.7071   10.5422   -2.3129 C   0  0  0  0  0  0  0  0  0  0  0  0
   22.0509    9.8809   -1.4129 N   0  0  0  0  0  0  0  0  0  0  0  0
   21.2502    8.8247   -2.0602 C   0  0  0  0  0  0  0  0  0  0  0  0
   20.9466    9.2113   -3.4968 C   0  0  0  0  0  0  0  0  0  0  0  0
   22.4429   10.0832   -3.9819 S   0  0  0  0  0  0  0  0  0  0  0  0
  1  2  2  0  0  0
  2  3  1  0  0  0
  3 14  1  0  0  0
 14 16  1  0  0  0
 16 17  2  0  0  0
 17 18  1  0  0  0
 18 19  1  0  0  0
 19 20  1  0  0  0
  5  2  1  0  0  0
  5  6  1  0  0  0
  6  7  1  0  0  0
  7  8  1  0  0  0
  8  9  1  0  0  0
  9 10  1  0  0  0
 10 11  2  0  0  0
 11 12  1  0  0  0
 12 13  2  0  0  0
 20 16  1  0  0  0
 13  5  1  0  0  0
 13  9  1  0  0  0
  3  4  1  0  0  0
 14 15  1  0  0  0
M  END
> <minimizedAffinity>
-3.91384

> <minimizedRMSD>
1.90538

$$$$
C8156-P364


 16 16  0  0  0  0  0  0  0  0999 V2000
    9.0272   13.1972   24.7333 C   0  0  0  0  0  0  0  0  0  0  0  0
   10.0207   13.1890   25.4751 O   0  0  0  0  0  0  0  0  0  0  0  0
    7.6291   12.8782   25.2952 C   0  0  0  0  0  0  0  0  0  0  0  0
    7.6115   11.4161   25.7469 C   0  0  0  0  0  0  0  0  0  0  0  0
    6.3372   11.0629   26.5015 C   0  0  0  0  0  0  0  0  0  0  0  0
    6.0081   12.0824   27.5815 C   0  0  0  0  0  0  0  0  0  0  0  0
    6.0528   13.5033   27.0320 C   0  0  0  0  0  0  0  0  0  0  0  0
    7.3284   13.8087   26.3937 N   0  0  0  0  0  0  0  0  0  0  0  0
    8.0697   13.7456   27.0915 H   0  0  0  0  0  0  0  0  0  0  0  0
    7.9329   13.8554   22.5007 C   0  0  0  0  0  0  0  0  0  0  0  0
    9.1872   13.3525   23.2163 C   0  0  0  0  0  0  0  0  0  0  0  0
    9.5650   12.0609   22.7099 O   0  0  0  0  0  0  0  0  0  0  0  0
    8.8453   11.4295   22.8653 H   0  0  0  0  0  0  0  0  0  0  0  0
   10.3089   14.3825   22.9861 C   0  0  0  0  0  0  0  0  0  0  0  0
    9.9227   15.6176   23.4045 F   0  0  0  0  0  0  0  0  0  0  0  0
   10.5505   14.5199   21.6513 F   0  0  0  0  0  0  0  0  0  0  0  0
 11 10  1  0  0  0
 11 12  1  0  0  0
 11  1  1  0  0  0
  1  2  2  0  0  0
  3  1  1  0  0  0
  3  4  1  0  0  0
  4  5  1  0  0  0
  5  6  1  0  0  0
  6  7  1  0  0  0
  7  8  1  0  0  0
 11 14  1  0  0  0
 14 15  1  0  0  0
 14 16  1  0  0  0
  8  3  1  0  0  0
 12 13  1  0  0  0
  8  9  1  0  0  0
M  END
> <minimizedAffinity>
-3.78672

> <minimizedRMSD>
0.57495

$$$$
C956-P233


 19 21  0  0  0  0  0  0  0  0999 V2000
   22.4871   14.2874    2.8911 C   0  0  0  0  0  0  0  0  0  0  0  0
   23.3084   13.4117    2.0342 C   0  0  0  0  0  0  0  0  0  0  0  0
   23.0684   13.0852    0.7805 N   0  0  0  0  0  0  0  0  0  0  0  0
   24.1017   12.2918    0.3383 N   0  0  0  0  0  0  0  0  0  0  0  0
   24.9524   12.1459    1.3342 C   0  0  0  0  0  0  0  0  0  0  0  0
   24.4795   12.8258    2.4239 N   0  0  0  0  0  0  0  0  0  0  0  0
   25.1904   12.9838    3.6736 C   0  0  0  0  0  0  0  0  0  0  0  0
   26.3852   12.0368    3.7952 C   0  0  0  0  0  0  0  0  0  0  0  0
   27.1575   11.9455    2.4761 C   0  0  0  0  0  0  0  0  0  0  0  0
   26.2555   11.4187    1.3509 C   0  0  0  0  0  0  0  0  0  0  0  0
   26.8608   11.5693    0.0501 N   0  0  0  0  0  0  0  0  0  0  0  0
   28.0962   10.8753   -0.5691 C   0  0  0  0  0  0  0  0  0  0  0  0
   28.7693   10.0200   -0.1529 O   0  0  0  0  0  0  0  0  0  0  0  0
   26.4147   12.2196   -0.5393 H   0  0  0  0  0  0  0  0  0  0  0  0
   28.2914   11.5135   -1.9391 C   0  0  0  0  0  0  0  0  0  0  0  0
   29.1589   10.6809   -2.8816 C   0  0  0  0  0  0  0  0  0  0  0  0
   29.7408   11.4747   -4.0857 C   0  0  0  0  0  0  0  0  0  0  0  0
   29.6797    9.9620   -5.0993 S   0  0  0  0  0  0  0  0  0  0  0  0
   28.4018    9.6964   -3.8221 C   0  0  0  0  0  0  0  0  0  0  0  0
  1  2  1  0  0  0
  2  3  2  0  0  0
  3  4  1  0  0  0
  4  5  2  0  0  0
  5  6  1  0  0  0
  6  7  1  0  0  0
  7  8  1  0  0  0
  8  9  1  0  0  0
  9 10  1  0  0  0
 10 11  1  0  0  0
 11 12  1  0  0  0
 12 13  2  0  0  0
 12 15  1  0  0  0
 15 16  1  0  0  0
 16 17  1  0  0  0
 17 18  1  0  0  0
 18 19  1  0  0  0
  6  2  1  0  0  0
 19 16  1  0  0  0
 10  5  1  0  0  0
 11 14  1  0  0  0
M  END
> <minimizedAffinity>
-2.98977

> <minimizedRMSD>
2.65347

$$$$
C1002-P233


 21 23  0  0  0  0  0  0  0  0999 V2000
   29.2628    9.6446    1.7658 N   0  0  0  0  0  0  0  0  0  0  0  0
   28.3150   10.3599    2.7608 C   0  0  0  0  0  0  0  0  0  0  0  0
   28.5010   10.7227    3.8533 O   0  0  0  0  0  0  0  0  0  0  0  0
   28.8891    9.5094    0.8651 H   0  0  0  0  0  0  0  0  0  0  0  0
   26.9888   10.5926    2.0272 C   0  0  0  0  0  0  0  0  0  0  0  0
   27.2007   10.9193    0.5365 C   0  0  0  0  0  0  0  0  0  0  0  0
   25.8552   11.0573   -0.1805 C   0  0  0  0  0  0  0  0  0  0  0  0
   24.9414   11.9486    0.5705 C   0  0  0  0  0  0  0  0  0  0  0  0
   23.8800   12.5883    0.1338 N   0  0  0  0  0  0  0  0  0  0  0  0
   23.3646   13.3107    1.1861 N   0  0  0  0  0  0  0  0  0  0  0  0
   24.1215   13.0940    2.2428 C   0  0  0  0  0  0  0  0  0  0  0  0
   23.9691   13.7009    3.5774 C   0  0  0  0  0  0  0  0  0  0  0  0
   25.1111   12.2175    1.9003 N   0  0  0  0  0  0  0  0  0  0  0  0
   26.2154   11.7387    2.7061 C   0  0  0  0  0  0  0  0  0  0  0  0
   30.6024    9.1452    1.9444 C   0  0  0  0  0  0  0  0  0  0  0  0
   31.5392   10.3455    1.8385 C   0  0  0  0  0  0  0  0  0  0  0  0
   31.9409   11.0771    3.1533 C   0  0  0  0  0  0  0  0  0  0  0  0
   33.3388   11.2723    2.5350 C   0  0  0  0  0  0  0  0  0  0  0  0
   33.0551   10.0188    1.6852 C   0  0  0  0  0  0  0  0  0  0  0  0
   31.1405    7.3826    0.0099 C   0  0  0  0  0  0  0  0  0  0  0  0
   30.8928    8.1743    0.8786 C   0  0  0  0  0  0  0  0  0  0  0  0
 20 21  3  0  0  0
 15 21  1  0  0  0
 15  1  1  0  0  0
  1  2  1  0  0  0
  2  3  2  0  0  0
  5  2  1  0  0  0
  5  6  1  0  0  0
  6  7  1  0  0  0
  7  8  1  0  0  0
  8  9  2  0  0  0
  9 10  1  0  0  0
 10 11  2  0  0  0
 11 12  1  0  0  0
 11 13  1  0  0  0
 13 14  1  0  0  0
 15 16  1  0  0  0
 16 17  1  0  0  0
 17 18  1  0  0  0
 18 19  1  0  0  0
 14  5  1  0  0  0
 19 16  1  0  0  0
 13  8  1  0  0  0
  1  4  1  0  0  0
M  END
> <minimizedAffinity>
-3.63170

> <minimizedRMSD>
1.59107

$$$$
C1003-P233


 24 26  0  0  0  0  0  0  0  0999 V2000
   26.3004   11.7006    2.2780 C   0  0  0  0  0  0  0  0  0  0  0  0
   26.7222   11.5163    0.8073 C   0  0  0  0  0  0  0  0  0  0  0  0
   25.5460   11.0579   -0.0397 C   0  0  0  0  0  0  0  0  0  0  0  0
   24.4002   11.9695    0.1387 C   0  0  0  0  0  0  0  0  0  0  0  0
   23.4458   12.2223   -0.7219 N   0  0  0  0  0  0  0  0  0  0  0  0
   22.6462   13.1818   -0.1763 N   0  0  0  0  0  0  0  0  0  0  0  0
   23.1236   13.5187    1.0095 C   0  0  0  0  0  0  0  0  0  0  0  0
   24.2168   12.7231    1.2694 N   0  0  0  0  0  0  0  0  0  0  0  0
   25.1443   12.7301    2.3868 C   0  0  0  0  0  0  0  0  0  0  0  0
   28.7420   11.3705    2.6121 N   0  0  0  0  0  0  0  0  0  0  0  0
   27.5129   12.1767    3.1033 C   0  0  0  0  0  0  0  0  0  0  0  0
   27.4397   13.0454    3.8779 O   0  0  0  0  0  0  0  0  0  0  0  0
   28.5530   10.7311    1.8877 H   0  0  0  0  0  0  0  0  0  0  0  0
   30.1150   11.4048    3.0430 C   0  0  0  0  0  0  0  0  0  0  0  0
   30.1417   10.9416    4.4897 C   0  0  0  0  0  0  0  0  0  0  0  0
   30.7758   11.9125    5.5189 C   0  0  0  0  0  0  0  0  0  0  0  0
   31.3611   10.6754    6.2278 C   0  0  0  0  0  0  0  0  0  0  0  0
   31.2788    9.9499    4.8712 C   0  0  0  0  0  0  0  0  0  0  0  0
   31.5476    9.7797    1.4810 C   0  0  0  0  0  0  0  0  0  0  0  0
   30.9037   10.5090    2.1858 C   0  0  0  0  0  0  0  0  0  0  0  0
   22.4707   14.5519    1.8932 C   0  0  0  0  0  0  0  0  0  0  0  0
   21.4692   15.3860    1.0622 C   0  0  0  0  0  0  0  0  0  0  0  0
   21.6443   13.8169    2.9352 C   0  0  0  0  0  0  0  0  0  0  0  0
   23.4695   15.5344    2.5119 C   0  0  0  0  0  0  0  0  0  0  0  0
 19 20  3  0  0  0
 14 20  1  0  0  0
 14 10  1  0  0  0
 10 11  1  0  0  0
 11 12  2  0  0  0
  1 11  1  0  0  0
  1  2  1  0  0  0
  2  3  1  0  0  0
  3  4  1  0  0  0
  4  5  2  0  0  0
  5  6  1  0  0  0
  6  7  2  0  0  0
  7 21  1  0  0  0
 21 22  1  0  0  0
 21 23  1  0  0  0
 21 24  1  0  0  0
  7  8  1  0  0  0
  8  9  1  0  0  0
 14 15  1  0  0  0
 15 16  1  0  0  0
 16 17  1  0  0  0
 17 18  1  0  0  0
  9  1  1  0  0  0
 18 15  1  0  0  0
  8  4  1  0  0  0
 10 13  1  0  0  0
M  END
> <minimizedAffinity>
-3.93273

> <minimizedRMSD>
1.18970

$$$$
C4745-P180


 13 14  0  0  0  0  0  0  0  0999 V2000
    9.2787   13.6523   23.7566 C   0  0  0  0  0  0  0  0  0  0  0  0
    9.1288   13.9838   25.2546 C   0  0  0  0  0  0  0  0  0  0  0  0
    8.0970   13.2381   26.0146 N   0  0  0  0  0  0  0  0  0  0  0  0
    7.6835   11.9915   25.3563 C   0  0  0  0  0  0  0  0  0  0  0  0
    8.8422   11.1375   24.8440 C   0  0  0  0  0  0  0  0  0  0  0  0
    9.8022   11.9046   23.5145 S   0  0  0  0  0  0  0  0  0  0  0  0
    7.2775   13.8359   26.1215 H   0  0  0  0  0  0  0  0  0  0  0  0
   11.9249   15.5847   22.0544 C   0  0  0  0  0  0  0  0  0  0  0  0
   11.6234   14.5843   22.9474 C   0  0  0  0  0  0  0  0  0  0  0  0
   10.2075   14.5849   23.0340 C   0  0  0  0  0  0  0  0  0  0  0  0
    9.6787   15.5790   22.3081 N   0  0  0  0  0  0  0  0  0  0  0  0
   10.7293   16.1101   21.6584 N   0  0  0  0  0  0  0  0  0  0  0  0
   10.6447   16.8066   20.9679 H   0  0  0  0  0  0  0  0  0  0  0  0
  8  9  2  0  0  0
  9 10  1  0  0  0
  1 10  1  0  0  0
  1  2  1  0  0  0
  2  3  1  0  0  0
  3  4  1  0  0  0
  4  5  1  0  0  0
  5  6  1  0  0  0
 10 11  2  0  0  0
 11 12  1  0  0  0
 12  8  1  0  0  0
  6  1  1  0  0  0
  3  7  1  0  0  0
 12 13  1  0  0  0
M  END
> <minimizedAffinity>
-4.61867

> <minimizedRMSD>
0.73287

$$$$
C1360-P259


 22 23  0  0  0  0  0  0  0  0999 V2000
    9.2694   13.9874   25.1148 C   0  0  0  0  0  0  0  0  0  0  0  0
    7.7579   13.9347   24.8223 C   0  0  0  0  0  0  0  0  0  0  0  0
    7.1523   12.6358   25.3529 C   0  0  0  0  0  0  0  0  0  0  0  0
    7.6957   11.3879   25.0022 C   0  0  0  0  0  0  0  0  0  0  0  0
    7.1580   10.2082   25.5078 C   0  0  0  0  0  0  0  0  0  0  0  0
    6.1311   10.2570   26.4404 C   0  0  0  0  0  0  0  0  0  0  0  0
    5.5517   11.4801   26.7597 C   0  0  0  0  0  0  0  0  0  0  0  0
    5.9817   12.6594   26.1333 C   0  0  0  0  0  0  0  0  0  0  0  0
    5.1389   13.9098   26.2434 C   0  0  0  0  0  0  0  0  0  0  0  0
    5.8506   14.9359   26.7959 F   0  0  0  0  0  0  0  0  0  0  0  0
    4.6874   14.3803   25.0441 F   0  0  0  0  0  0  0  0  0  0  0  0
    4.0415   13.7636   27.0389 F   0  0  0  0  0  0  0  0  0  0  0  0
    7.4742   14.0954   23.3214 C   0  0  0  0  0  0  0  0  0  0  0  0
    6.8224   13.3428   22.7169 O   0  0  0  0  0  0  0  0  0  0  0  0
    8.2799   15.3154   22.8523 N   0  0  0  0  0  0  0  0  0  0  0  0
    8.6900   15.8416   23.5763 H   0  0  0  0  0  0  0  0  0  0  0  0
    8.5224   15.7934   21.5840 O   0  0  0  0  0  0  0  0  0  0  0  0
    9.5608   14.9685   21.0346 C   0  0  0  0  0  0  0  0  0  0  0  0
    9.9832   15.5291   19.6976 C   0  0  0  0  0  0  0  0  0  0  0  0
   10.7947   16.7243   20.0922 C   0  0  0  0  0  0  0  0  0  0  0  0
   11.4846   16.3507   21.4140 C   0  0  0  0  0  0  0  0  0  0  0  0
   10.8504   15.0424   21.8515 C   0  0  0  0  0  0  0  0  0  0  0  0
  2  1  1  0  0  0
  2 13  1  0  0  0
 13 14  2  0  0  0
 13 15  1  0  0  0
 15 17  1  0  0  0
 17 18  1  0  0  0
 18 19  1  0  0  0
 19 20  1  0  0  0
 20 21  1  0  0  0
 21 22  1  0  0  0
  2  3  1  0  0  0
  3  4  2  0  0  0
  4  5  1  0  0  0
  5  6  2  0  0  0
  6  7  1  0  0  0
  7  8  2  0  0  0
  8  9  1  0  0  0
  9 10  1  0  0  0
  9 11  1  0  0  0
  9 12  1  0  0  0
 22 18  1  0  0  0
  8  3  1  0  0  0
 15 16  1  0  0  0
M  END
> <minimizedAffinity>
-5.63529

> <minimizedRMSD>
0.58331

$$$$
C34717-P248


 15 15  0  0  0  0  0  0  0  0999 V2000
    9.7172   12.8732   23.6360 C   0  0  0  0  0  0  0  0  0  0  0  0
   10.9560   12.7112   24.3241 O   0  0  0  0  0  0  0  0  0  0  0  0
   10.8739   13.0622   25.2247 H   0  0  0  0  0  0  0  0  0  0  0  0
    8.6086   12.0948   24.3358 C   0  0  0  0  0  0  0  0  0  0  0  0
    7.9443   12.5575   25.2589 O   0  0  0  0  0  0  0  0  0  0  0  0
    8.3821   10.8347   23.8756 O   0  0  0  0  0  0  0  0  0  0  0  0
    9.0407    8.5836   23.4490 C   0  0  0  0  0  0  0  0  0  0  0  0
    9.4849   10.0133   23.4457 C   0  0  0  0  0  0  0  0  0  0  0  0
    9.3299   14.3501   23.4780 C   0  0  0  0  0  0  0  0  0  0  0  0
   10.2635   15.0232   22.5836 N   0  0  0  0  0  0  0  0  0  0  0  0
   10.0625   15.1041   21.1556 C   0  0  0  0  0  0  0  0  0  0  0  0
   11.4705   15.1747   20.5992 C   0  0  0  0  0  0  0  0  0  0  0  0
   12.2725   15.8330   21.7119 C   0  0  0  0  0  0  0  0  0  0  0  0
   11.5469   15.3878   22.9484 C   0  0  0  0  0  0  0  0  0  0  0  0
   11.9900   15.3522   24.0872 O   0  0  0  0  0  0  0  0  0  0  0  0
  7  8  1  0  0  0
  8  6  1  0  0  0
  6  4  1  0  0  0
  4  5  2  0  0  0
  4  1  1  0  0  0
  1  2  1  0  0  0
  1  9  1  0  0  0
  9 10  1  0  0  0
 10 11  1  0  0  0
 11 12  1  0  0  0
 12 13  1  0  0  0
 13 14  1  0  0  0
 14 15  2  0  0  0
 14 10  1  0  0  0
  2  3  1  0  0  0
M  END
> <minimizedAffinity>
-4.80473

> <minimizedRMSD>
0.42478

$$$$
C2375-P325


 13 13  0  0  0  0  0  0  0  0999 V2000
    7.9097   12.5231   25.5258 C   0  0  0  0  0  0  0  0  0  0  0  0
    6.6894   13.2358   26.1259 C   0  0  0  0  0  0  0  0  0  0  0  0
    5.9824   12.3134   27.1224 C   0  0  0  0  0  0  0  0  0  0  0  0
    5.6855   10.9448   26.5228 C   0  0  0  0  0  0  0  0  0  0  0  0
    6.8723   10.3627   25.7600 C   0  0  0  0  0  0  0  0  0  0  0  0
    7.4764   11.3042   24.8111 N   0  0  0  0  0  0  0  0  0  0  0  0
    6.7905   11.5547   24.0989 H   0  0  0  0  0  0  0  0  0  0  0  0
    8.9922   13.4111   24.8148 C   0  0  0  0  0  0  0  0  0  0  0  0
    9.2296   14.6948   25.6352 C   0  0  0  0  0  0  0  0  0  0  0  0
   10.1710   12.6903   24.9495 F   0  0  0  0  0  0  0  0  0  0  0  0
    7.6464   13.9374   22.7028 C   0  0  0  0  0  0  0  0  0  0  0  0
    8.8180   13.7542   23.3343 C   0  0  0  0  0  0  0  0  0  0  0  0
   10.0965   13.8751   22.5403 C   0  0  0  0  0  0  0  0  0  0  0  0
 11 12  2  0  0  0
 12 13  1  0  0  0
 12  8  1  0  0  0
  8  9  1  0  0  0
  8 10  1  0  0  0
  8  1  1  0  0  0
  1  2  1  0  0  0
  2  3  1  0  0  0
  3  4  1  0  0  0
  4  5  1  0  0  0
  5  6  1  0  0  0
  6  1  1  0  0  0
  6  7  1  0  0  0
M  END
> <minimizedAffinity>
-3.59315

> <minimizedRMSD>
0.34165

$$$$
C2384-P325


 16 16  0  0  0  0  0  0  0  0999 V2000
    9.8877   13.5099   24.6101 C   0  0  0  0  0  0  0  0  0  0  0  0
    9.8998   14.5822   25.7199 C   0  0  0  0  0  0  0  0  0  0  0  0
   11.2181   12.7374   24.6891 C   0  0  0  0  0  0  0  0  0  0  0  0
    8.5959   12.5580   24.7413 C   0  0  0  0  0  0  0  0  0  0  0  0
    7.6368   12.8997   25.9014 C   0  0  0  0  0  0  0  0  0  0  0  0
    6.4185   11.9825   25.9109 C   0  0  0  0  0  0  0  0  0  0  0  0
    6.8162   10.5158   25.9328 C   0  0  0  0  0  0  0  0  0  0  0  0
    7.7573   10.1730   24.8810 N   0  0  0  0  0  0  0  0  0  0  0  0
    8.9209   11.0476   24.7780 C   0  0  0  0  0  0  0  0  0  0  0  0
    7.2603   10.2032   23.9909 H   0  0  0  0  0  0  0  0  0  0  0  0
    9.8766   14.1239   23.1757 C   0  0  0  0  0  0  0  0  0  0  0  0
    9.4329   13.4528   22.2337 O   0  0  0  0  0  0  0  0  0  0  0  0
   10.4301   15.5394   22.9162 C   0  0  0  0  0  0  0  0  0  0  0  0
    9.5562   16.2612   21.8842 C   0  0  0  0  0  0  0  0  0  0  0  0
   12.1795   15.8030   21.0335 C   0  0  0  0  0  0  0  0  0  0  0  0
   11.9106   15.6348   22.5179 C   0  0  0  0  0  0  0  0  0  0  0  0
 15 16  1  0  0  0
 16 13  1  0  0  0
 13 14  1  0  0  0
 13 11  1  0  0  0
 11 12  2  0  0  0
 11  1  1  0  0  0
  1  2  1  0  0  0
  1  3  1  0  0  0
  4  1  1  0  0  0
  4  5  1  0  0  0
  5  6  1  0  0  0
  6  7  1  0  0  0
  7  8  1  0  0  0
  8  9  1  0  0  0
  9  4  1  0  0  0
  8 10  1  0  0  0
M  END
> <minimizedAffinity>
-5.11131

> <minimizedRMSD>
1.42262

$$$$
C2397-P325


 16 16  0  0  0  0  0  0  0  0999 V2000
    9.9117   11.8237   24.5201 C   0  0  0  0  0  0  0  0  0  0  0  0
   10.9791   12.7381   25.1519 C   0  0  0  0  0  0  0  0  0  0  0  0
    8.6086   11.7938   25.3465 C   0  0  0  0  0  0  0  0  0  0  0  0
    7.8008   13.0911   25.3662 C   0  0  0  0  0  0  0  0  0  0  0  0
    6.7306   12.9913   26.4532 C   0  0  0  0  0  0  0  0  0  0  0  0
    5.8765   11.7406   26.2940 C   0  0  0  0  0  0  0  0  0  0  0  0
    6.6789   10.4820   25.9785 C   0  0  0  0  0  0  0  0  0  0  0  0
    7.7402   10.6665   24.9830 N   0  0  0  0  0  0  0  0  0  0  0  0
    7.3168   10.8507   24.0735 H   0  0  0  0  0  0  0  0  0  0  0  0
    9.6817   12.2292   23.0667 C   0  0  0  0  0  0  0  0  0  0  0  0
   10.5544   13.3160   22.7707 O   0  0  0  0  0  0  0  0  0  0  0  0
    9.8541   14.3741   22.1314 C   0  0  0  0  0  0  0  0  0  0  0  0
   10.8748   15.2457   21.4248 C   0  0  0  0  0  0  0  0  0  0  0  0
   11.2014   15.5014   18.9560 C   0  0  0  0  0  0  0  0  0  0  0  0
   10.2979   15.8264   20.1359 C   0  0  0  0  0  0  0  0  0  0  0  0
   10.1032   17.3207   20.3399 C   0  0  0  0  0  0  0  0  0  0  0  0
 14 15  1  0  0  0
 15 16  1  0  0  0
 15 13  1  0  0  0
 13 12  1  0  0  0
 12 11  1  0  0  0
 11 10  1  0  0  0
 10  1  1  0  0  0
  1  2  1  0  0  0
  1  3  1  0  0  0
  3  4  1  0  0  0
  4  5  1  0  0  0
  5  6  1  0  0  0
  6  7  1  0  0  0
  7  8  1  0  0  0
  8  3  1  0  0  0
  8  9  1  0  0  0
M  END
> <minimizedAffinity>
-4.82481

> <minimizedRMSD>
1.51247

$$$$
C2399-P325


 16 16  0  0  0  0  0  0  0  0999 V2000
    9.0596   12.9912   23.9378 C   0  0  0  0  0  0  0  0  0  0  0  0
    9.8405   13.8536   24.9492 C   0  0  0  0  0  0  0  0  0  0  0  0
    9.9537   12.0109   23.5615 F   0  0  0  0  0  0  0  0  0  0  0  0
    7.8251   12.2475   24.5862 C   0  0  0  0  0  0  0  0  0  0  0  0
    7.1504   12.9790   25.7591 C   0  0  0  0  0  0  0  0  0  0  0  0
    5.9381   12.2027   26.2634 C   0  0  0  0  0  0  0  0  0  0  0  0
    6.2755   10.7500   26.5739 C   0  0  0  0  0  0  0  0  0  0  0  0
    6.9933   10.0791   25.4988 N   0  0  0  0  0  0  0  0  0  0  0  0
    8.1549   10.8014   24.9835 C   0  0  0  0  0  0  0  0  0  0  0  0
    6.3428    9.9348   24.7265 H   0  0  0  0  0  0  0  0  0  0  0  0
    7.4904   14.0408   22.1683 C   0  0  0  0  0  0  0  0  0  0  0  0
    8.7188   13.8264   22.6904 C   0  0  0  0  0  0  0  0  0  0  0  0
    9.9015   14.5011   22.0405 C   0  0  0  0  0  0  0  0  0  0  0  0
   11.0712   13.8449   22.2207 F   0  0  0  0  0  0  0  0  0  0  0  0
    9.7373   14.6595   20.7012 F   0  0  0  0  0  0  0  0  0  0  0  0
   10.0834   15.7453   22.5538 F   0  0  0  0  0  0  0  0  0  0  0  0
 11 12  2  0  0  0
 12 13  1  0  0  0
 13 14  1  0  0  0
 13 15  1  0  0  0
 13 16  1  0  0  0
 12  1  1  0  0  0
  1  2  1  0  0  0
  1  3  1  0  0  0
  1  4  1  0  0  0
  4  5  1  0  0  0
  5  6  1  0  0  0
  6  7  1  0  0  0
  7  8  1  0  0  0
  8  9  1  0  0  0
  9  4  1  0  0  0
  8 10  1  0  0  0
M  END
> <minimizedAffinity>
-4.64308

> <minimizedRMSD>
1.13079

$$$$
C2410-P325


 15 15  0  0  0  0  0  0  0  0999 V2000
    8.2341   14.5234   22.8961 C   0  0  0  0  0  0  0  0  0  0  0  0
    8.4609   15.6127   23.6975 F   0  0  0  0  0  0  0  0  0  0  0  0
    8.6077   13.2888   23.7497 C   0  0  0  0  0  0  0  0  0  0  0  0
    7.3607   12.8539   24.5395 C   0  0  0  0  0  0  0  0  0  0  0  0
    7.6500   11.7291   25.5235 C   0  0  0  0  0  0  0  0  0  0  0  0
    8.4163   10.5965   24.8609 C   0  0  0  0  0  0  0  0  0  0  0  0
    9.6058   11.1160   24.0673 C   0  0  0  0  0  0  0  0  0  0  0  0
    9.2262   12.1357   23.0823 N   0  0  0  0  0  0  0  0  0  0  0  0
    8.5612   11.7335   22.4217 H   0  0  0  0  0  0  0  0  0  0  0  0
    9.0481   14.6685   21.6193 C   0  0  0  0  0  0  0  0  0  0  0  0
   10.0323   15.8394   21.6222 C   0  0  0  0  0  0  0  0  0  0  0  0
   12.5168   16.1609   21.4636 C   0  0  0  0  0  0  0  0  0  0  0  0
   11.3891   15.5132   22.2344 C   0  0  0  0  0  0  0  0  0  0  0  0
   11.5963   14.1669   22.2300 F   0  0  0  0  0  0  0  0  0  0  0  0
   11.4512   15.9078   23.5281 F   0  0  0  0  0  0  0  0  0  0  0  0
 12 13  1  0  0  0
 13 14  1  0  0  0
 13 15  1  0  0  0
 13 11  1  0  0  0
 11 10  1  0  0  0
 10  1  1  0  0  0
  1  2  1  0  0  0
  1  3  1  0  0  0
  3  4  1  0  0  0
  4  5  1  0  0  0
  5  6  1  0  0  0
  6  7  1  0  0  0
  7  8  1  0  0  0
  8  3  1  0  0  0
  8  9  1  0  0  0
M  END
> <minimizedAffinity>
-4.97409

> <minimizedRMSD>
2.34007

$$$$
C736-P338


 12 13  0  0  0  0  0  0  0  0999 V2000
    8.8415   11.3729   24.8338 C   0  0  0  0  0  0  0  0  0  0  0  0
    9.4579   11.4780   23.6005 C   0  0  0  0  0  0  0  0  0  0  0  0
    9.7264   12.7445   23.0765 C   0  0  0  0  0  0  0  0  0  0  0  0
    9.3786   13.8866   23.7902 C   0  0  0  0  0  0  0  0  0  0  0  0
    8.8009   13.7802   25.0056 N   0  0  0  0  0  0  0  0  0  0  0  0
    8.5304   12.5466   25.4895 C   0  0  0  0  0  0  0  0  0  0  0  0
    9.5918   15.1650   23.3029 N   0  0  0  0  0  0  0  0  0  0  0  0
   10.8943   15.7572   23.5791 C   0  0  0  0  0  0  0  0  0  0  0  0
   11.8524   15.5785   22.4062 C   0  0  0  0  0  0  0  0  0  0  0  0
   11.2447   16.0993   21.1103 C   0  0  0  0  0  0  0  0  0  0  0  0
    9.9003   15.4311   20.8451 C   0  0  0  0  0  0  0  0  0  0  0  0
    8.9524   15.5449   22.0389 C   0  0  0  0  0  0  0  0  0  0  0  0
  1  2  2  0  0  0
  2  3  1  0  0  0
  3  4  2  0  0  0
  4  7  1  0  0  0
  7  8  1  0  0  0
  8  9  1  0  0  0
  9 10  1  0  0  0
 10 11  1  0  0  0
 11 12  1  0  0  0
  4  5  1  0  0  0
  5  6  2  0  0  0
  6  1  1  0  0  0
 12  7  1  0  0  0
M  END
> <minimizedAffinity>
-4.71852

> <minimizedRMSD>
0.73206

$$$$
C727-P338


 12 13  0  0  0  0  0  0  0  0999 V2000
    9.4506   11.5372   23.5113 C   0  0  0  0  0  0  0  0  0  0  0  0
    9.9117   12.8126   23.2036 C   0  0  0  0  0  0  0  0  0  0  0  0
    9.1491   13.9194   23.5656 C   0  0  0  0  0  0  0  0  0  0  0  0
    7.9416   13.6760   24.2221 C   0  0  0  0  0  0  0  0  0  0  0  0
    7.5559   12.3689   24.4824 C   0  0  0  0  0  0  0  0  0  0  0  0
    8.2879   11.2877   24.1487 N   0  0  0  0  0  0  0  0  0  0  0  0
    9.5163   15.2375   23.3030 N   0  0  0  0  0  0  0  0  0  0  0  0
   10.8658   15.6479   23.6994 C   0  0  0  0  0  0  0  0  0  0  0  0
   11.8632   15.5550   22.5507 C   0  0  0  0  0  0  0  0  0  0  0  0
   11.3660   16.2963   21.3178 C   0  0  0  0  0  0  0  0  0  0  0  0
    9.9846   15.7926   20.9174 C   0  0  0  0  0  0  0  0  0  0  0  0
    8.9919   15.8634   22.0759 C   0  0  0  0  0  0  0  0  0  0  0  0
  1  2  2  0  0  0
  2  3  1  0  0  0
  3  7  1  0  0  0
  7  8  1  0  0  0
  8  9  1  0  0  0
  9 10  1  0  0  0
 10 11  1  0  0  0
 11 12  1  0  0  0
  3  4  2  0  0  0
  4  5  1  0  0  0
  5  6  2  0  0  0
  6  1  1  0  0  0
 12  7  1  0  0  0
M  END
> <minimizedAffinity>
-4.96817

> <minimizedRMSD>
0.77129

$$$$
C10375-P495


 21 24  0  0  0  0  0  0  0  0999 V2000
   18.8056   -5.1425   26.1401 C   0  0  0  0  0  0  0  0  0  0  0  0
   19.2374   -4.3030   27.1691 C   0  0  0  0  0  0  0  0  0  0  0  0
   19.4931   -2.9573   26.9122 C   0  0  0  0  0  0  0  0  0  0  0  0
   19.3035   -2.4578   25.6184 C   0  0  0  0  0  0  0  0  0  0  0  0
   18.8575   -3.2847   24.5777 C   0  0  0  0  0  0  0  0  0  0  0  0
   18.6197   -4.6373   24.8527 C   0  0  0  0  0  0  0  0  0  0  0  0
   18.6236   -2.7560   23.2169 C   0  0  0  0  0  0  0  0  0  0  0  0
   18.0677   -3.5667   22.1220 C   0  0  0  0  0  0  0  0  0  0  0  0
   17.7822   -3.0467   20.9116 C   0  0  0  0  0  0  0  0  0  0  0  0
   18.0270   -1.6704   20.6694 C   0  0  0  0  0  0  0  0  0  0  0  0
   17.8159   -0.8850   19.6347 N   0  0  0  0  0  0  0  0  0  0  0  0
   18.2455    0.3799   19.9732 N   0  0  0  0  0  0  0  0  0  0  0  0
   18.7158    0.3293   21.2010 C   0  0  0  0  0  0  0  0  0  0  0  0
   18.5845   -0.9355   21.7013 N   0  0  0  0  0  0  0  0  0  0  0  0
   18.8779   -1.4538   22.9579 C   0  0  0  0  0  0  0  0  0  0  0  0
   19.9151   -2.0255   27.8186 O   0  0  0  0  0  0  0  0  0  0  0  0
   18.9999   -1.5808   28.8232 C   0  0  0  0  0  0  0  0  0  0  0  0
   19.8094   -0.8765   29.9119 C   0  0  0  0  0  0  0  0  0  0  0  0
   20.1073    0.5081   29.3412 C   0  0  0  0  0  0  0  0  0  0  0  0
   19.0284    0.7750   28.2934 C   0  0  0  0  0  0  0  0  0  0  0  0
   18.1151   -0.4484   28.3073 C   0  0  0  0  0  0  0  0  0  0  0  0
  1  2  2  0  0  0
  2  3  1  0  0  0
  3 16  1  0  0  0
 16 17  1  0  0  0
 17 18  1  0  0  0
 18 19  1  0  0  0
 19 20  1  0  0  0
 20 21  1  0  0  0
  3  4  2  0  0  0
  4  5  1  0  0  0
  5  7  1  0  0  0
  7  8  1  0  0  0
  8  9  2  0  0  0
  9 10  1  0  0  0
 10 11  2  0  0  0
 11 12  1  0  0  0
 12 13  2  0  0  0
 13 14  1  0  0  0
 14 15  1  0  0  0
  5  6  2  0  0  0
  6  1  1  0  0  0
 21 17  1  0  0  0
 15  7  2  0  0  0
 14 10  1  0  0  0
M  END
> <minimizedAffinity>
-5.27667

> <minimizedRMSD>
2.90539

$$$$
C87424-P143


 15 15  0  0  0  0  0  0  0  0999 V2000
    7.4460   14.5910   24.9900 C   0  0  0  0  0  0  0  0  0  0  0  0
    6.5008   15.4256   24.1440 C   0  0  0  0  0  0  0  0  0  0  0  0
    5.4926   16.0515   21.7908 N   0  0  0  0  0  0  0  0  0  0  0  0
    6.8398   15.2607   22.3835 S   0  0  0  0  0  0  0  0  0  0  0  0
    7.9844   16.0591   22.0272 O   0  0  0  0  0  0  0  0  0  0  0  0
    6.7015   13.8979   21.9110 O   0  0  0  0  0  0  0  0  0  0  0  0
    5.5206   16.0536   20.7712 H   0  0  0  0  0  0  0  0  0  0  0  0
    5.4846   17.0125   22.1326 H   0  0  0  0  0  0  0  0  0  0  0  0
    6.9136   13.1604   25.0659 C   0  0  0  0  0  0  0  0  0  0  0  0
    7.9112   12.1292   25.3250 N   0  0  0  0  0  0  0  0  0  0  0  0
    7.3742   10.8008   24.9733 C   0  0  0  0  0  0  0  0  0  0  0  0
    8.1849    9.8512   24.1019 C   0  0  0  0  0  0  0  0  0  0  0  0
    9.3561   10.4825   23.3960 C   0  0  0  0  0  0  0  0  0  0  0  0
    9.1907   11.9757   23.2947 C   0  0  0  0  0  0  0  0  0  0  0  0
    9.1132   12.5223   24.5974 O   0  0  0  0  0  0  0  0  0  0  0  0
  3  4  1  0  0  0
  4  5  2  0  0  0
  4  6  2  0  0  0
  4  2  1  0  0  0
  2  1  1  0  0  0
  1  9  1  0  0  0
  9 10  1  0  0  0
 10 11  1  0  0  0
 11 12  1  0  0  0
 12 13  1  0  0  0
 13 14  1  0  0  0
 14 15  1  0  0  0
 15 10  1  0  0  0
  3  7  1  0  0  0
  3  8  1  0  0  0
M  END
> <minimizedAffinity>
-4.22436

> <minimizedRMSD>
0.37247

$$$$
C87425-P143


 14 14  0  0  0  0  0  0  0  0999 V2000
    9.1926   13.8746   21.8629 N   0  0  0  0  0  0  0  0  0  0  0  0
    8.3990   14.0660   21.2513 H   0  0  0  0  0  0  0  0  0  0  0  0
    9.9597   15.0665   22.0100 N   0  0  0  0  0  0  0  0  0  0  0  0
   11.4068   14.8089   22.2196 C   0  0  0  0  0  0  0  0  0  0  0  0
   12.3533   15.4781   21.2075 C   0  0  0  0  0  0  0  0  0  0  0  0
   11.9658   15.2638   19.8550 O   0  0  0  0  0  0  0  0  0  0  0  0
   10.5906   15.5477   19.6208 C   0  0  0  0  0  0  0  0  0  0  0  0
    9.7993   15.9693   20.8556 C   0  0  0  0  0  0  0  0  0  0  0  0
    8.6053   13.3036   23.3750 S   0  0  0  0  0  0  0  0  0  0  0  0
    9.0234   14.1821   24.4490 O   0  0  0  0  0  0  0  0  0  0  0  0
    7.2064   12.9911   23.1824 O   0  0  0  0  0  0  0  0  0  0  0  0
    9.5104   11.7835   23.5231 C   0  0  0  0  0  0  0  0  0  0  0  0
    9.3043    9.3157   23.3209 C   0  0  0  0  0  0  0  0  0  0  0  0
    8.7008   10.5714   23.9300 C   0  0  0  0  0  0  0  0  0  0  0  0
 13 14  1  0  0  0
 14 12  1  0  0  0
 12  9  1  0  0  0
  9 10  2  0  0  0
  9 11  2  0  0  0
  9  1  1  0  0  0
  1  3  1  0  0  0
  3  4  1  0  0  0
  4  5  1  0  0  0
  5  6  1  0  0  0
  6  7  1  0  0  0
  7  8  1  0  0  0
  8  3  1  0  0  0
  1  2  1  0  0  0
M  END
> <minimizedAffinity>
-5.24463

> <minimizedRMSD>
0.90229

$$$$
C7479-P289


 24 25  0  0  0  0  0  0  0  0999 V2000
    6.8279   14.9033   22.7200 S   0  0  0  0  0  0  0  0  0  0  0  0
    7.0378   13.6302   22.0420 O   0  0  0  0  0  0  0  0  0  0  0  0
    7.6474   15.9913   22.2297 O   0  0  0  0  0  0  0  0  0  0  0  0
    6.5595   14.8048   24.2265 N   0  0  0  0  0  0  0  0  0  0  0  0
    7.8524   14.5500   25.0161 S   0  0  0  0  0  0  0  0  0  0  0  0
    7.4775   15.0136   26.6953 C   0  0  0  0  0  0  0  0  0  0  0  0
    9.1285   15.1726   24.7299 O   0  0  0  0  0  0  0  0  0  0  0  0
    8.1876   12.7914   25.2035 C   0  0  0  0  0  0  0  0  0  0  0  0
    9.2288   12.2882   24.1992 C   0  0  0  0  0  0  0  0  0  0  0  0
    9.5686   10.8218   24.4355 C   0  0  0  0  0  0  0  0  0  0  0  0
    8.3402    9.9338   24.4809 C   0  0  0  0  0  0  0  0  0  0  0  0
    7.2464   10.4612   25.3988 C   0  0  0  0  0  0  0  0  0  0  0  0
    6.9291   11.9333   25.1715 C   0  0  0  0  0  0  0  0  0  0  0  0
    5.2915   15.3605   22.2178 N   0  0  0  0  0  0  0  0  0  0  0  0
    4.9179   16.0008   22.9184 H   0  0  0  0  0  0  0  0  0  0  0  0
    4.3118   14.3037   22.0251 C   0  0  0  0  0  0  0  0  0  0  0  0
    3.1849   13.9617   19.7041 C   0  0  0  0  0  0  0  0  0  0  0  0
    2.1221   14.5220   19.0595 O   0  0  0  0  0  0  0  0  0  0  0  0
    1.7457   15.5271   19.8720 C   0  0  0  0  0  0  0  0  0  0  0  0
    2.4570   15.6477   20.9756 N   0  0  0  0  0  0  0  0  0  0  0  0
    3.3676   14.6185   20.9070 C   0  0  0  0  0  0  0  0  0  0  0  0
    3.7293   13.0335   17.4921 C   0  0  0  0  0  0  0  0  0  0  0  0
    3.8383   12.8453   18.9992 C   0  0  0  0  0  0  0  0  0  0  0  0
    3.2382   11.5080   19.4162 C   0  0  0  0  0  0  0  0  0  0  0  0
 22 23  1  0  0  0
 23 24  1  0  0  0
 23 17  1  0  0  0
 17 18  1  0  0  0
 18 19  1  0  0  0
 19 20  2  0  0  0
 20 21  1  0  0  0
 21 16  1  0  0  0
 16 14  1  0  0  0
 14  1  1  0  0  0
  1  2  2  0  0  0
  1  3  2  0  0  0
  1  4  1  0  0  0
  4  5  2  0  0  0
  5  6  1  0  0  0
  5  7  2  0  0  0
  5  8  1  0  0  0
  8  9  1  0  0  0
  9 10  1  0  0  0
 10 11  1  0  0  0
 11 12  1  0  0  0
 12 13  1  0  0  0
 21 17  2  0  0  0
 13  8  1  0  0  0
 14 15  1  0  0  0
M  END
> <minimizedAffinity>
-5.87971

> <minimizedRMSD>
0.50850

$$$$
C7672-P439


 14 14  0  0  0  0  0  0  0  0999 V2000
    8.6116   12.9804   24.0731 N   0  0  0  0  0  0  0  0  0  0  0  0
    9.5202   12.7796   24.4908 H   0  0  0  0  0  0  0  0  0  0  0  0
    7.6206   13.1243   25.1703 C   0  0  0  0  0  0  0  0  0  0  0  0
    6.8815   11.8040   25.3231 C   0  0  0  0  0  0  0  0  0  0  0  0
    6.5197   11.4151   26.7377 C   0  0  0  0  0  0  0  0  0  0  0  0
    5.8993   12.7927   27.7305 S   0  0  0  0  0  0  0  0  0  0  0  0
    7.2742   13.9702   27.5179 C   0  0  0  0  0  0  0  0  0  0  0  0
    8.3010   13.5625   26.4658 C   0  0  0  0  0  0  0  0  0  0  0  0
    8.7773   14.3408   23.0830 S   0  0  0  0  0  0  0  0  0  0  0  0
    8.8754   13.8299   21.7380 O   0  0  0  0  0  0  0  0  0  0  0  0
    7.7415   15.2551   23.5022 O   0  0  0  0  0  0  0  0  0  0  0  0
   10.3512   14.9581   23.6547 C   0  0  0  0  0  0  0  0  0  0  0  0
   11.8648   15.6973   21.7965 C   0  0  0  0  0  0  0  0  0  0  0  0
   11.5216   14.5810   22.7726 C   0  0  0  0  0  0  0  0  0  0  0  0
 13 14  1  0  0  0
 14 12  1  0  0  0
 12  9  1  0  0  0
  9 10  2  0  0  0
  9 11  2  0  0  0
  9  1  1  0  0  0
  1  3  1  0  0  0
  3  4  1  0  0  0
  4  5  1  0  0  0
  5  6  1  0  0  0
  6  7  1  0  0  0
  7  8  1  0  0  0
  8  3  1  0  0  0
  1  2  1  0  0  0
M  END
> <minimizedAffinity>
-3.95767

> <minimizedRMSD>
0.50384

$$$$
C18486-P183


 21 24  0  0  0  0  0  0  0  0999 V2000
   23.7616   22.2820   18.7300 N   0  0  0  0  0  0  0  0  0  0  0  0
   23.2368   22.7686   17.4412 C   0  0  0  0  0  0  0  0  0  0  0  0
   21.8757   23.4908   17.6120 C   0  0  0  0  0  0  0  0  0  0  0  0
   20.8912   22.6704   18.3882 N   0  0  0  0  0  0  0  0  0  0  0  0
   21.4703   22.2372   19.6845 C   0  0  0  0  0  0  0  0  0  0  0  0
   22.7882   21.4651   19.4766 C   0  0  0  0  0  0  0  0  0  0  0  0
   29.0742   20.3310   20.6252 C   0  0  0  0  0  0  0  0  0  0  0  0
   29.6770   20.9162   19.5165 C   0  0  0  0  0  0  0  0  0  0  0  0
   28.9110   21.5832   18.5543 C   0  0  0  0  0  0  0  0  0  0  0  0
   27.5185   21.6452   18.7339 C   0  0  0  0  0  0  0  0  0  0  0  0
   26.3216   22.3769   17.7444 S   0  0  0  0  0  0  0  0  0  0  0  0
   25.0756   21.9046   18.8516 C   0  0  0  0  0  0  0  0  0  0  0  0
   25.5209   21.2190   19.8856 N   0  0  0  0  0  0  0  0  0  0  0  0
   26.8949   21.0676   19.8358 C   0  0  0  0  0  0  0  0  0  0  0  0
   27.6873   20.4016   20.7946 C   0  0  0  0  0  0  0  0  0  0  0  0
   19.6107   23.2679   18.4230 C   0  0  0  0  0  0  0  0  0  0  0  0
   18.7166   23.1334   19.4890 C   0  0  0  0  0  0  0  0  0  0  0  0
   17.4737   23.7513   19.4223 C   0  0  0  0  0  0  0  0  0  0  0  0
   17.0476   24.4803   18.3731 N   0  0  0  0  0  0  0  0  0  0  0  0
   17.9054   24.5889   17.3407 C   0  0  0  0  0  0  0  0  0  0  0  0
   19.1677   24.0138   17.3222 C   0  0  0  0  0  0  0  0  0  0  0  0
  7  8  2  0  0  0
  8  9  1  0  0  0
  9 10  2  0  0  0
 10 11  1  0  0  0
 11 12  1  0  0  0
 12  1  1  0  0  0
  1  2  1  0  0  0
  2  3  1  0  0  0
  3  4  1  0  0  0
  4 16  1  0  0  0
 16 17  2  0  0  0
 17 18  1  0  0  0
 18 19  2  0  0  0
 19 20  1  0  0  0
 20 21  2  0  0  0
  4  5  1  0  0  0
  5  6  1  0  0  0
 12 13  2  0  0  0
 13 14  1  0  0  0
 14 15  2  0  0  0
 15  7  1  0  0  0
 14 10  1  0  0  0
  6  1  1  0  0  0
 21 16  1  0  0  0
M  END
> <minimizedAffinity>
-3.89459

> <minimizedRMSD>
2.36282

$$$$
C8161-P192


 18 18  0  0  0  0  0  0  0  0999 V2000
    8.5790   14.8525   22.7419 C   0  0  0  0  0  0  0  0  0  0  0  0
    9.2736   13.6200   22.1211 C   0  0  0  0  0  0  0  0  0  0  0  0
    9.4220   16.1015   22.7109 N   0  0  0  0  0  0  0  0  0  0  0  0
   10.7008   16.0562   23.4337 C   0  0  0  0  0  0  0  0  0  0  0  0
   11.9002   15.6265   22.5868 C   0  0  0  0  0  0  0  0  0  0  0  0
   12.0125   16.4285   21.2980 C   0  0  0  0  0  0  0  0  0  0  0  0
   10.6945   16.3938   20.5471 C   0  0  0  0  0  0  0  0  0  0  0  0
    9.5688   16.8657   21.4580 C   0  0  0  0  0  0  0  0  0  0  0  0
    8.3056   14.5527   24.2724 C   0  0  0  0  0  0  0  0  0  0  0  0
    7.7749   15.7366   24.8913 O   0  0  0  0  0  0  0  0  0  0  0  0
    6.9145   15.9495   24.4971 H   0  0  0  0  0  0  0  0  0  0  0  0
    7.3547   13.3972   24.5874 C   0  0  0  0  0  0  0  0  0  0  0  0
    7.8173   12.6765   25.7156 O   0  0  0  0  0  0  0  0  0  0  0  0
    7.6780   11.2732   25.6259 C   0  0  0  0  0  0  0  0  0  0  0  0
    6.3761   10.6995   26.1457 C   0  0  0  0  0  0  0  0  0  0  0  0
    8.1975   10.8301   24.2901 C   0  0  0  0  0  0  0  0  0  0  0  0
    6.3474   16.2456   22.3895 C   0  0  0  0  0  0  0  0  0  0  0  0
    7.2330   15.0698   21.9735 C   0  0  0  0  0  0  0  0  0  0  0  0
 17 18  1  0  0  0
 18  1  1  0  0  0
  1  2  1  0  0  0
  1  9  1  0  0  0
  9 10  1  0  0  0
  9 12  1  0  0  0
 12 13  1  0  0  0
 13 14  1  0  0  0
 14 15  1  0  0  0
 14 16  1  0  0  0
  1  3  1  0  0  0
  3  4  1  0  0  0
  4  5  1  0  0  0
  5  6  1  0  0  0
  6  7  1  0  0  0
  7  8  1  0  0  0
  8  3  1  0  0  0
 10 11  1  0  0  0
M  END
> <minimizedAffinity>
-5.07779

> <minimizedRMSD>
1.14950

$$$$
C8169-P192


 15 15  0  0  0  0  0  0  0  0999 V2000
    7.6709   13.0196   22.7898 O   0  0  0  0  0  0  0  0  0  0  0  0
    8.7078   12.4736   23.6357 S   0  0  0  0  0  0  0  0  0  0  0  0
    9.4760   11.3105   23.2778 O   0  0  0  0  0  0  0  0  0  0  0  0
    7.9711   12.1129   25.1339 N   0  0  0  0  0  0  0  0  0  0  0  0
    7.3584   10.7431   25.0106 C   0  0  0  0  0  0  0  0  0  0  0  0
    6.5598   10.3172   26.2273 C   0  0  0  0  0  0  0  0  0  0  0  0
    5.6474   11.3929   26.7878 C   0  0  0  0  0  0  0  0  0  0  0  0
    6.3460   12.7372   26.8713 C   0  0  0  0  0  0  0  0  0  0  0  0
    6.9500   13.1156   25.5283 C   0  0  0  0  0  0  0  0  0  0  0  0
    9.7120   13.7583   23.9691 N   0  0  0  0  0  0  0  0  0  0  0  0
    9.7974   13.8102   24.9842 H   0  0  0  0  0  0  0  0  0  0  0  0
   11.0714   13.7802   23.4285 C   0  0  0  0  0  0  0  0  0  0  0  0
   11.2160   14.6595   22.1846 C   0  0  0  0  0  0  0  0  0  0  0  0
   10.6706   16.0794   22.3137 C   0  0  0  0  0  0  0  0  0  0  0  0
   10.5672   16.9100   20.7488 Cl  0  0  0  0  0  0  0  0  0  0  0  0
  1  2  2  0  0  0
  2  3  2  0  0  0
  2 10  1  0  0  0
 10 12  1  0  0  0
 12 13  1  0  0  0
 13 14  1  0  0  0
 14 15  1  0  0  0
  2  4  1  0  0  0
  4  5  1  0  0  0
  5  6  1  0  0  0
  6  7  1  0  0  0
  7  8  1  0  0  0
  8  9  1  0  0  0
  9  4  1  0  0  0
 10 11  1  0  0  0
M  END
> <minimizedAffinity>
-4.33794

> <minimizedRMSD>
0.85302

$$$$
C7479-P465


 24 25  0  0  0  0  0  0  0  0999 V2000
    7.0338   14.8169   22.9093 S   0  0  0  0  0  0  0  0  0  0  0  0
    7.6434   13.6382   22.3103 O   0  0  0  0  0  0  0  0  0  0  0  0
    7.6806   16.0700   22.5796 O   0  0  0  0  0  0  0  0  0  0  0  0
    6.4942   14.6094   24.3305 N   0  0  0  0  0  0  0  0  0  0  0  0
    7.6273   14.6370   25.3680 S   0  0  0  0  0  0  0  0  0  0  0  0
    6.8240   14.7223   26.9551 C   0  0  0  0  0  0  0  0  0  0  0  0
    8.6718   15.6374   25.4137 O   0  0  0  0  0  0  0  0  0  0  0  0
    8.4449   13.0471   25.4956 C   0  0  0  0  0  0  0  0  0  0  0  0
    9.8212   13.0379   24.8240 C   0  0  0  0  0  0  0  0  0  0  0  0
   10.5268   11.7104   25.0570 C   0  0  0  0  0  0  0  0  0  0  0  0
    9.6818   10.5289   24.6432 C   0  0  0  0  0  0  0  0  0  0  0  0
    8.2881   10.5639   25.2415 C   0  0  0  0  0  0  0  0  0  0  0  0
    7.5737   11.8850   25.0282 C   0  0  0  0  0  0  0  0  0  0  0  0
    5.5736   14.9600   22.1111 N   0  0  0  0  0  0  0  0  0  0  0  0
    4.8553   15.0907   22.8234 H   0  0  0  0  0  0  0  0  0  0  0  0
    5.1287   13.8723   21.2515 C   0  0  0  0  0  0  0  0  0  0  0  0
    3.0942   13.6375   19.6264 C   0  0  0  0  0  0  0  0  0  0  0  0
    1.9375   14.3333   19.4363 O   0  0  0  0  0  0  0  0  0  0  0  0
    2.0579   15.3924   20.2573 C   0  0  0  0  0  0  0  0  0  0  0  0
    3.1666   15.4281   20.9699 N   0  0  0  0  0  0  0  0  0  0  0  0
    3.8314   14.2697   20.6103 C   0  0  0  0  0  0  0  0  0  0  0  0
    3.7240   12.8928   17.3695 C   0  0  0  0  0  0  0  0  0  0  0  0
    3.2682   12.4594   18.7590 C   0  0  0  0  0  0  0  0  0  0  0  0
    1.9897   11.6378   18.6731 C   0  0  0  0  0  0  0  0  0  0  0  0
 22 23  1  0  0  0
 23 24  1  0  0  0
 23 17  1  0  0  0
 17 18  1  0  0  0
 18 19  1  0  0  0
 19 20  2  0  0  0
 20 21  1  0  0  0
 21 16  1  0  0  0
 16 14  1  0  0  0
 14  1  1  0  0  0
  1  2  2  0  0  0
  1  3  2  0  0  0
  1  4  1  0  0  0
  4  5  2  0  0  0
  5  6  1  0  0  0
  5  7  2  0  0  0
  5  8  1  0  0  0
  8  9  1  0  0  0
  9 10  1  0  0  0
 10 11  1  0  0  0
 11 12  1  0  0  0
 12 13  1  0  0  0
 21 17  2  0  0  0
 13  8  1  0  0  0
 14 15  1  0  0  0
M  END
> <minimizedAffinity>
-6.41611

> <minimizedRMSD>
0.91477

$$$$
C11184-P344


 15 15  0  0  0  0  0  0  0  0999 V2000
   10.7451   13.3741   24.2722 C   0  0  0  0  0  0  0  0  0  0  0  0
   11.8958   12.9453   24.2225 O   0  0  0  0  0  0  0  0  0  0  0  0
    9.6460   12.4044   24.4761 C   0  0  0  0  0  0  0  0  0  0  0  0
    9.7355   11.1514   23.8950 C   0  0  0  0  0  0  0  0  0  0  0  0
    8.7672   10.2184   24.2274 C   0  0  0  0  0  0  0  0  0  0  0  0
    7.7400   10.5626   25.0980 C   0  0  0  0  0  0  0  0  0  0  0  0
    7.7140   11.8507   25.6007 C   0  0  0  0  0  0  0  0  0  0  0  0
    8.6556   12.7736   25.3253 N   0  0  0  0  0  0  0  0  0  0  0  0
   10.3619   14.8403   24.1657 C   0  0  0  0  0  0  0  0  0  0  0  0
   11.5393   15.7601   23.8594 C   0  0  0  0  0  0  0  0  0  0  0  0
   11.9623   15.8681   22.3978 C   0  0  0  0  0  0  0  0  0  0  0  0
   10.9369   16.5056   21.4639 C   0  0  0  0  0  0  0  0  0  0  0  0
   10.0315   15.4830   20.7887 C   0  0  0  0  0  0  0  0  0  0  0  0
   11.5119   15.0854   18.8643 C   0  0  0  0  0  0  0  0  0  0  0  0
   10.2982   15.3827   19.3301 C   0  0  0  0  0  0  0  0  0  0  0  0
 14 15  2  0  0  0
 15 13  1  0  0  0
 13 12  1  0  0  0
 12 11  1  0  0  0
 11 10  1  0  0  0
 10  9  1  0  0  0
  9  1  1  0  0  0
  1  2  2  0  0  0
  1  3  1  0  0  0
  3  4  2  0  0  0
  4  5  1  0  0  0
  5  6  2  0  0  0
  6  7  1  0  0  0
  7  8  2  0  0  0
  8  3  1  0  0  0
M  END
> <minimizedAffinity>
-5.05754

> <minimizedRMSD>
1.04555

$$$$
C11208-P344


 12 12  0  0  0  0  0  0  0  0999 V2000
   10.6524   12.7641   24.1552 O   0  0  0  0  0  0  0  0  0  0  0  0
    9.4884   12.8145   23.7694 C   0  0  0  0  0  0  0  0  0  0  0  0
    8.4511   12.2327   24.6438 C   0  0  0  0  0  0  0  0  0  0  0  0
    8.2889   10.8538   24.6806 C   0  0  0  0  0  0  0  0  0  0  0  0
    7.4188   10.3276   25.6252 C   0  0  0  0  0  0  0  0  0  0  0  0
    6.7470   11.1869   26.4862 C   0  0  0  0  0  0  0  0  0  0  0  0
    6.9554   12.5521   26.3538 C   0  0  0  0  0  0  0  0  0  0  0  0
    7.8087   13.1002   25.4616 N   0  0  0  0  0  0  0  0  0  0  0  0
    9.0544   13.5396   22.5294 C   0  0  0  0  0  0  0  0  0  0  0  0
    9.8411   14.8185   22.4559 C   0  0  0  0  0  0  0  0  0  0  0  0
   10.8852   14.6827   21.5988 F   0  0  0  0  0  0  0  0  0  0  0  0
    9.0590   15.8028   21.9494 F   0  0  0  0  0  0  0  0  0  0  0  0
  1  2  2  0  0  0
  2  9  1  0  0  0
  9 10  1  0  0  0
 10 11  1  0  0  0
 10 12  1  0  0  0
  2  3  1  0  0  0
  3  4  2  0  0  0
  4  5  1  0  0  0
  5  6  2  0  0  0
  6  7  1  0  0  0
  7  8  2  0  0  0
  8  3  1  0  0  0
M  END
> <minimizedAffinity>
-3.88563

> <minimizedRMSD>
1.19107

$$$$
C961-P444


 20 22  0  0  0  0  0  0  0  0999 V2000
   25.0464   10.7323   -1.7074 O   0  0  0  0  0  0  0  0  0  0  0  0
   24.6109   11.7734   -1.3890 C   0  0  0  0  0  0  0  0  0  0  0  0
   23.4092   12.5921   -1.9732 N   0  0  0  0  0  0  0  0  0  0  0  0
   23.2875   13.4853   -1.5776 H   0  0  0  0  0  0  0  0  0  0  0  0
   25.2804   12.6448   -0.2980 C   0  0  0  0  0  0  0  0  0  0  0  0
   26.5877   12.0353    0.2603 C   0  0  0  0  0  0  0  0  0  0  0  0
   26.3795   11.2254    1.5461 C   0  0  0  0  0  0  0  0  0  0  0  0
   25.7372   12.0946    2.6245 C   0  0  0  0  0  0  0  0  0  0  0  0
   24.5689   12.7668    2.1096 N   0  0  0  0  0  0  0  0  0  0  0  0
   23.5601   13.3510    2.8000 C   0  0  0  0  0  0  0  0  0  0  0  0
   22.7307   13.9206    1.9528 N   0  0  0  0  0  0  0  0  0  0  0  0
   23.2262   13.7260    0.6831 N   0  0  0  0  0  0  0  0  0  0  0  0
   24.3360   13.0239    0.7885 C   0  0  0  0  0  0  0  0  0  0  0  0
   22.4940   12.2636   -2.9525 N   0  0  0  0  0  0  0  0  0  0  0  0
   22.4811   12.7269   -3.8211 H   0  0  0  0  0  0  0  0  0  0  0  0
   21.6044   11.2637   -2.6612 C   0  0  0  0  0  0  0  0  0  0  0  0
   20.7639   11.1672   -1.6860 N   0  0  0  0  0  0  0  0  0  0  0  0
   20.0397    9.8842   -1.7868 C   0  0  0  0  0  0  0  0  0  0  0  0
   20.8764    8.8802   -2.5597 C   0  0  0  0  0  0  0  0  0  0  0  0
   21.6451    9.9272   -3.8016 S   0  0  0  0  0  0  0  0  0  0  0  0
  1  2  2  0  0  0
  2  3  1  0  0  0
  3 14  1  0  0  0
 14 16  1  0  0  0
 16 17  2  0  0  0
 17 18  1  0  0  0
 18 19  1  0  0  0
 19 20  1  0  0  0
  5  2  1  0  0  0
  5  6  1  0  0  0
  6  7  1  0  0  0
  7  8  1  0  0  0
  8  9  1  0  0  0
  9 10  1  0  0  0
 10 11  2  0  0  0
 11 12  1  0  0  0
 12 13  2  0  0  0
 20 16  1  0  0  0
 13  5  1  0  0  0
 13  9  1  0  0  0
  3  4  1  0  0  0
 14 15  1  0  0  0
M  END
> <minimizedAffinity>
-2.92691

> <minimizedRMSD>
1.34026

$$$$
C1002-P444


 21 23  0  0  0  0  0  0  0  0999 V2000
   28.6452   10.0954    1.2307 N   0  0  0  0  0  0  0  0  0  0  0  0
   27.7650   11.0709    2.0507 C   0  0  0  0  0  0  0  0  0  0  0  0
   28.0350   11.7499    2.9592 O   0  0  0  0  0  0  0  0  0  0  0  0
   28.1972    9.6899    0.4535 H   0  0  0  0  0  0  0  0  0  0  0  0
   26.3734   11.0665    1.4029 C   0  0  0  0  0  0  0  0  0  0  0  0
   26.4649   11.3271   -0.1133 C   0  0  0  0  0  0  0  0  0  0  0  0
   25.0812   11.2587   -0.7586 C   0  0  0  0  0  0  0  0  0  0  0  0
   24.1111   12.0921   -0.0161 C   0  0  0  0  0  0  0  0  0  0  0  0
   22.9826   12.6087   -0.4461 N   0  0  0  0  0  0  0  0  0  0  0  0
   22.4359   13.3329    0.5873 N   0  0  0  0  0  0  0  0  0  0  0  0
   23.2406   13.2374    1.6268 C   0  0  0  0  0  0  0  0  0  0  0  0
   23.0660   13.8922    2.9341 C   0  0  0  0  0  0  0  0  0  0  0  0
   24.3003   12.4447    1.2910 N   0  0  0  0  0  0  0  0  0  0  0  0
   25.4836   12.1361    2.0682 C   0  0  0  0  0  0  0  0  0  0  0  0
   30.0138    9.6848    1.4207 C   0  0  0  0  0  0  0  0  0  0  0  0
   30.8859   10.7822    0.8185 C   0  0  0  0  0  0  0  0  0  0  0  0
   31.3947   11.9080    1.7666 C   0  0  0  0  0  0  0  0  0  0  0  0
   32.7098   11.8928    0.9633 C   0  0  0  0  0  0  0  0  0  0  0  0
   32.3884   10.4279    0.6090 C   0  0  0  0  0  0  0  0  0  0  0  0
   30.3947    7.3637    0.1528 C   0  0  0  0  0  0  0  0  0  0  0  0
   30.2302    8.4094    0.7207 C   0  0  0  0  0  0  0  0  0  0  0  0
 20 21  3  0  0  0
 15 21  1  0  0  0
 15  1  1  0  0  0
  1  2  1  0  0  0
  2  3  2  0  0  0
  5  2  1  0  0  0
  5  6  1  0  0  0
  6  7  1  0  0  0
  7  8  1  0  0  0
  8  9  2  0  0  0
  9 10  1  0  0  0
 10 11  2  0  0  0
 11 12  1  0  0  0
 11 13  1  0  0  0
 13 14  1  0  0  0
 15 16  1  0  0  0
 16 17  1  0  0  0
 17 18  1  0  0  0
 18 19  1  0  0  0
 14  5  1  0  0  0
 19 16  1  0  0  0
 13  8  1  0  0  0
  1  4  1  0  0  0
M  END
> <minimizedAffinity>
-3.48110

> <minimizedRMSD>
0.85888

$$$$
C4702-P226


 11 11  0  0  0  0  0  0  0  0999 V2000
   10.3168   16.3390   19.6085 C   0  0  0  0  0  0  0  0  0  0  0  0
   10.8489   15.6740   20.6461 C   0  0  0  0  0  0  0  0  0  0  0  0
   12.2656   15.9038   21.0802 C   0  0  0  0  0  0  0  0  0  0  0  0
   12.3991   15.8801   22.5976 C   0  0  0  0  0  0  0  0  0  0  0  0
   11.6965   14.6688   23.2145 C   0  0  0  0  0  0  0  0  0  0  0  0
   10.2809   14.6797   22.8462 N   0  0  0  0  0  0  0  0  0  0  0  0
   10.1097   14.5954   21.3916 C   0  0  0  0  0  0  0  0  0  0  0  0
    9.4049   13.7494   23.5905 C   0  0  0  0  0  0  0  0  0  0  0  0
    9.5834   13.9411   25.0914 C   0  0  0  0  0  0  0  0  0  0  0  0
    9.5887   12.2742   23.2453 C   0  0  0  0  0  0  0  0  0  0  0  0
    8.8788   11.3720   23.6943 O   0  0  0  0  0  0  0  0  0  0  0  0
  1  2  2  0  0  0
  2  3  1  0  0  0
  3  4  1  0  0  0
  4  5  1  0  0  0
  5  6  1  0  0  0
  6  8  1  0  0  0
  8  9  1  0  0  0
  8 10  1  0  0  0
 10 11  2  0  0  0
  6  7  1  0  0  0
  7  2  1  0  0  0
M  END
> <minimizedAffinity>
-4.81628

> <minimizedRMSD>
0.82430

$$$$
C1392-P493


 19 19  0  0  0  0  0  0  0  0999 V2000
    9.5341   12.8721   24.0587 C   0  0  0  0  0  0  0  0  0  0  0  0
    9.0418   14.2178   23.4854 C   0  0  0  0  0  0  0  0  0  0  0  0
    8.0233   13.9480   22.3635 C   0  0  0  0  0  0  0  0  0  0  0  0
    8.3833   15.0645   24.6611 C   0  0  0  0  0  0  0  0  0  0  0  0
    7.5492   16.2783   24.1703 C   0  0  0  0  0  0  0  0  0  0  0  0
    6.1308   16.3190   24.7336 C   0  0  0  0  0  0  0  0  0  0  0  0
    5.4864   14.9405   24.6776 C   0  0  0  0  0  0  0  0  0  0  0  0
    6.2159   13.9324   25.4404 N   0  0  0  0  0  0  0  0  0  0  0  0
    7.5991   14.2739   25.7360 C   0  0  0  0  0  0  0  0  0  0  0  0
    6.2108   13.0642   24.9051 H   0  0  0  0  0  0  0  0  0  0  0  0
   10.3105   15.0050   22.9406 C   0  0  0  0  0  0  0  0  0  0  0  0
   10.9429   15.6796   23.6559 O   0  0  0  0  0  0  0  0  0  0  0  0
   10.4925   14.6930   21.4288 N   0  0  0  0  0  0  0  0  0  0  0  0
    9.8649   14.0263   21.0669 H   0  0  0  0  0  0  0  0  0  0  0  0
   11.4435   15.2284   20.4576 C   0  0  0  0  0  0  0  0  0  0  0  0
   10.8172   15.8891   19.2266 C   0  0  0  0  0  0  0  0  0  0  0  0
    9.7182   15.2153   18.8298 F   0  0  0  0  0  0  0  0  0  0  0  0
   10.4631   17.1670   19.4728 F   0  0  0  0  0  0  0  0  0  0  0  0
   11.6555   15.8844   18.1740 F   0  0  0  0  0  0  0  0  0  0  0  0
  1  2  1  0  0  0
  2  3  1  0  0  0
  2 11  1  0  0  0
 11 12  2  0  0  0
 11 13  1  0  0  0
 13 15  1  0  0  0
 15 16  1  0  0  0
 16 17  1  0  0  0
 16 18  1  0  0  0
 16 19  1  0  0  0
  4  2  1  0  0  0
  4  5  1  0  0  0
  5  6  1  0  0  0
  6  7  1  0  0  0
  7  8  1  0  0  0
  8  9  1  0  0  0
  9  4  1  0  0  0
 13 14  1  0  0  0
  8 10  1  0  0  0
M  END
> <minimizedAffinity>
-4.98099

> <minimizedRMSD>
0.62262

$$$$
C15044-P321


 16 16  0  0  0  0  0  0  0  0999 V2000
    8.1195   14.0619   23.2638 S   0  0  0  0  0  0  0  0  0  0  0  0
    7.9175   15.0297   24.3175 O   0  0  0  0  0  0  0  0  0  0  0  0
    7.1546   13.7667   22.2248 O   0  0  0  0  0  0  0  0  0  0  0  0
    8.4920   12.5025   24.0260 C   0  0  0  0  0  0  0  0  0  0  0  0
    9.4480   11.6646   23.4856 C   0  0  0  0  0  0  0  0  0  0  0  0
    9.4125   10.3387   23.8844 C   0  0  0  0  0  0  0  0  0  0  0  0
    8.4425    9.9291   24.7922 C   0  0  0  0  0  0  0  0  0  0  0  0
    7.5698   10.8610   25.3248 C   0  0  0  0  0  0  0  0  0  0  0  0
    7.5814   12.1520   24.9734 N   0  0  0  0  0  0  0  0  0  0  0  0
    9.5221   14.5024   22.4479 N   0  0  0  0  0  0  0  0  0  0  0  0
   10.1578   13.7054   22.4821 H   0  0  0  0  0  0  0  0  0  0  0  0
   10.2548   15.6672   22.9400 C   0  0  0  0  0  0  0  0  0  0  0  0
   11.7455   15.4696   22.6897 C   0  0  0  0  0  0  0  0  0  0  0  0
   12.2488   16.1480   21.4144 C   0  0  0  0  0  0  0  0  0  0  0  0
   10.8989   15.3199   19.3299 N   0  0  0  0  0  0  0  0  0  0  0  0
   11.5290   15.6883   20.2285 C   0  0  0  0  0  0  0  0  0  0  0  0
 15 16  3  0  0  0
 16 14  1  0  0  0
 14 13  1  0  0  0
 13 12  1  0  0  0
 12 10  1  0  0  0
 10  1  1  0  0  0
  1  2  2  0  0  0
  1  3  2  0  0  0
  1  4  1  0  0  0
  4  5  2  0  0  0
  5  6  1  0  0  0
  6  7  2  0  0  0
  7  8  1  0  0  0
  8  9  2  0  0  0
  9  4  1  0  0  0
 10 11  1  0  0  0
M  END
> <minimizedAffinity>
-5.02287

> <minimizedRMSD>
0.44410

$$$$
C15048-P321


 17 17  0  0  0  0  0  0  0  0999 V2000
    9.5912   13.2946   23.9562 C   0  0  0  0  0  0  0  0  0  0  0  0
    9.0282   11.9129   24.2967 C   0  0  0  0  0  0  0  0  0  0  0  0
    7.9640   11.7606   25.1941 C   0  0  0  0  0  0  0  0  0  0  0  0
    7.4880   10.4880   25.4788 C   0  0  0  0  0  0  0  0  0  0  0  0
    7.9803    9.3612   24.9303 N   0  0  0  0  0  0  0  0  0  0  0  0
    8.9755    9.5156   24.0298 C   0  0  0  0  0  0  0  0  0  0  0  0
    9.5313   10.7483   23.6948 C   0  0  0  0  0  0  0  0  0  0  0  0
   12.0465   13.5205   24.5570 C   0  0  0  0  0  0  0  0  0  0  0  0
   10.6159   13.7711   25.0211 C   0  0  0  0  0  0  0  0  0  0  0  0
    8.5728   14.3739   23.8424 N   0  0  0  0  0  0  0  0  0  0  0  0
    9.0164   15.2545   24.1036 H   0  0  0  0  0  0  0  0  0  0  0  0
    7.9000   14.5650   22.3222 S   0  0  0  0  0  0  0  0  0  0  0  0
    8.9919   14.6343   21.3859 O   0  0  0  0  0  0  0  0  0  0  0  0
    6.8419   13.6024   22.1557 O   0  0  0  0  0  0  0  0  0  0  0  0
    7.2055   16.1017   22.4741 N   0  0  0  0  0  0  0  0  0  0  0  0
    7.6663   16.9282   23.6130 C   0  0  0  0  0  0  0  0  0  0  0  0
    5.7231   16.0698   22.4377 C   0  0  0  0  0  0  0  0  0  0  0  0
  8  9  1  0  0  0
  1  9  1  0  0  0
  1 10  1  0  0  0
 10 12  1  0  0  0
 12 13  2  0  0  0
 12 14  2  0  0  0
 12 15  1  0  0  0
 15 16  1  0  0  0
 15 17  1  0  0  0
  1  2  1  0  0  0
  2  3  2  0  0  0
  3  4  1  0  0  0
  4  5  2  0  0  0
  5  6  1  0  0  0
  6  7  2  0  0  0
  7  2  1  0  0  0
 10 11  1  0  0  0
M  END
> <minimizedAffinity>
-5.12493

> <minimizedRMSD>
1.82932

$$$$
C8153-P321


 17 17  0  0  0  0  0  0  0  0999 V2000
    8.2847   13.3012   23.4119 C   0  0  0  0  0  0  0  0  0  0  0  0
    7.1522   13.2621   22.9199 O   0  0  0  0  0  0  0  0  0  0  0  0
    8.6061   12.5731   24.7447 C   0  0  0  0  0  0  0  0  0  0  0  0
    8.1688   11.1114   24.6180 C   0  0  0  0  0  0  0  0  0  0  0  0
    7.4379   10.4958   25.7925 C   0  0  0  0  0  0  0  0  0  0  0  0
    6.5571   11.4575   26.5722 C   0  0  0  0  0  0  0  0  0  0  0  0
    6.6071   12.8907   26.0845 C   0  0  0  0  0  0  0  0  0  0  0  0
    7.9798   13.3165   25.8587 N   0  0  0  0  0  0  0  0  0  0  0  0
    8.5200   13.1554   26.7087 H   0  0  0  0  0  0  0  0  0  0  0  0
    9.4375   13.9939   22.6858 C   0  0  0  0  0  0  0  0  0  0  0  0
    8.8736   14.6994   21.4469 C   0  0  0  0  0  0  0  0  0  0  0  0
   10.2707   12.8989   22.3139 O   0  0  0  0  0  0  0  0  0  0  0  0
   11.0477   13.2310   21.8375 H   0  0  0  0  0  0  0  0  0  0  0  0
   10.2034   14.9408   23.6231 C   0  0  0  0  0  0  0  0  0  0  0  0
   11.7050   14.9628   23.3395 C   0  0  0  0  0  0  0  0  0  0  0  0
   12.1799   16.0085   21.1222 C   0  0  0  0  0  0  0  0  0  0  0  0
   12.0683   16.1081   22.4523 C   0  0  0  0  0  0  0  0  0  0  0  0
 16 17  2  0  0  0
 17 15  1  0  0  0
 15 14  1  0  0  0
 14 10  1  0  0  0
 10 11  1  0  0  0
 10 12  1  0  0  0
 10  1  1  0  0  0
  1  2  2  0  0  0
  3  1  1  0  0  0
  3  4  1  0  0  0
  4  5  1  0  0  0
  5  6  1  0  0  0
  6  7  1  0  0  0
  7  8  1  0  0  0
  8  3  1  0  0  0
 12 13  1  0  0  0
  8  9  1  0  0  0
M  END
> <minimizedAffinity>
-5.04431

> <minimizedRMSD>
0.98613

$$$$
C8169-P321


 15 15  0  0  0  0  0  0  0  0999 V2000
    7.6476   15.3975   24.0879 O   0  0  0  0  0  0  0  0  0  0  0  0
    8.1497   14.3193   23.2782 S   0  0  0  0  0  0  0  0  0  0  0  0
    7.3146   13.5494   22.3893 O   0  0  0  0  0  0  0  0  0  0  0  0
    8.9312   13.2761   24.3042 N   0  0  0  0  0  0  0  0  0  0  0  0
    8.2297   12.9289   25.5417 C   0  0  0  0  0  0  0  0  0  0  0  0
    7.4237   11.6743   25.3839 C   0  0  0  0  0  0  0  0  0  0  0  0
    8.3324   10.5257   25.0194 C   0  0  0  0  0  0  0  0  0  0  0  0
    9.2625   10.8232   23.8659 C   0  0  0  0  0  0  0  0  0  0  0  0
    9.8055   12.2387   23.7556 C   0  0  0  0  0  0  0  0  0  0  0  0
    9.4175   14.8954   22.3909 N   0  0  0  0  0  0  0  0  0  0  0  0
    9.0214   15.3491   21.5677 H   0  0  0  0  0  0  0  0  0  0  0  0
   10.3461   15.8482   22.9959 C   0  0  0  0  0  0  0  0  0  0  0  0
   11.7675   15.4684   22.5870 C   0  0  0  0  0  0  0  0  0  0  0  0
   12.2591   16.1807   21.3311 C   0  0  0  0  0  0  0  0  0  0  0  0
   11.8782   15.2940   19.8382 Cl  0  0  0  0  0  0  0  0  0  0  0  0
  1  2  2  0  0  0
  2  3  2  0  0  0
  2 10  1  0  0  0
 10 12  1  0  0  0
 12 13  1  0  0  0
 13 14  1  0  0  0
 14 15  1  0  0  0
  2  4  1  0  0  0
  4  5  1  0  0  0
  5  6  1  0  0  0
  6  7  1  0  0  0
  7  8  1  0  0  0
  8  9  1  0  0  0
  9  4  1  0  0  0
 10 11  1  0  0  0
M  END
> <minimizedAffinity>
-4.65159

> <minimizedRMSD>
0.68638

$$$$
C13035-P152


 19 20  0  0  0  0  0  0  0  0999 V2000
    4.6669    9.2609   26.7213 C   0  0  0  0  0  0  0  0  0  0  0  0
    4.5811    8.4566   25.8819 O   0  0  0  0  0  0  0  0  0  0  0  0
    5.7876   10.2829   27.0185 N   0  0  0  0  0  0  0  0  0  0  0  0
    5.6583   10.8090   27.8406 H   0  0  0  0  0  0  0  0  0  0  0  0
    6.9199   10.5728   26.3313 C   0  0  0  0  0  0  0  0  0  0  0  0
    7.6379    9.7253   25.4334 C   0  0  0  0  0  0  0  0  0  0  0  0
    8.5488   10.5670   24.8573 C   0  0  0  0  0  0  0  0  0  0  0  0
    8.3498   11.7728   25.4364 N   0  0  0  0  0  0  0  0  0  0  0  0
    7.4282   11.8129   26.3885 N   0  0  0  0  0  0  0  0  0  0  0  0
    9.1194   12.8583   24.8675 C   0  0  0  0  0  0  0  0  0  0  0  0
   10.1675   12.0760   24.0597 C   0  0  0  0  0  0  0  0  0  0  0  0
    9.5753   10.6584   23.8070 C   0  0  0  0  0  0  0  0  0  0  0  0
    3.5311    9.5151   27.7015 C   0  0  0  0  0  0  0  0  0  0  0  0
    3.1172    8.5899   29.9991 C   0  0  0  0  0  0  0  0  0  0  0  0
    3.1815    8.2639   28.5074 C   0  0  0  0  0  0  0  0  0  0  0  0
    1.8526    7.7141   28.0155 C   0  0  0  0  0  0  0  0  0  0  0  0
    1.2532    6.9507   28.9519 F   0  0  0  0  0  0  0  0  0  0  0  0
    2.0178    6.9513   26.9122 F   0  0  0  0  0  0  0  0  0  0  0  0
    1.0051    8.7149   27.6896 F   0  0  0  0  0  0  0  0  0  0  0  0
 15 14  1  0  0  0
 15 13  1  0  0  0
 13  1  1  0  0  0
  1  2  2  0  0  0
  1  3  1  0  0  0
  3  5  1  0  0  0
  5  6  1  0  0  0
  6  7  2  0  0  0
  7  8  1  0  0  0
  8  9  1  0  0  0
  8 10  1  0  0  0
 10 11  1  0  0  0
 11 12  1  0  0  0
 15 16  1  0  0  0
 16 17  1  0  0  0
 16 18  1  0  0  0
 16 19  1  0  0  0
  9  5  2  0  0  0
 12  7  1  0  0  0
  3  4  1  0  0  0
M  END
> <minimizedAffinity>
-5.03099

> <minimizedRMSD>
2.22044

$$$$
C7182-P152


 23 24  0  0  0  0  0  0  0  0999 V2000
    9.9860    9.1531   23.2188 C   0  0  0  0  0  0  0  0  0  0  0  0
    9.1495    9.9162   24.1768 C   0  0  0  0  0  0  0  0  0  0  0  0
    8.1683    9.4668   25.0332 C   0  0  0  0  0  0  0  0  0  0  0  0
    7.6420   10.6146   25.6513 C   0  0  0  0  0  0  0  0  0  0  0  0
    8.3572   11.6924   25.3415 N   0  0  0  0  0  0  0  0  0  0  0  0
    9.1709   11.2816   24.3453 N   0  0  0  0  0  0  0  0  0  0  0  0
    9.9139   12.2556   23.5490 C   0  0  0  0  0  0  0  0  0  0  0  0
   11.0211   12.9264   24.3710 C   0  0  0  0  0  0  0  0  0  0  0  0
   11.8593   13.8654   23.5076 C   0  0  0  0  0  0  0  0  0  0  0  0
   10.9907   14.8976   22.7977 C   0  0  0  0  0  0  0  0  0  0  0  0
    9.8675   14.2476   21.9933 C   0  0  0  0  0  0  0  0  0  0  0  0
    9.0287   13.3078   22.8582 C   0  0  0  0  0  0  0  0  0  0  0  0
    6.4975   10.6235   26.3914 N   0  0  0  0  0  0  0  0  0  0  0  0
    5.5318   11.7887   26.7411 C   0  0  0  0  0  0  0  0  0  0  0  0
    5.6109   12.9321   26.5133 O   0  0  0  0  0  0  0  0  0  0  0  0
    6.2412    9.7494   26.7649 H   0  0  0  0  0  0  0  0  0  0  0  0
    4.2901   11.1806   27.3983 C   0  0  0  0  0  0  0  0  0  0  0  0
    4.5115    9.8339   28.0959 C   0  0  0  0  0  0  0  0  0  0  0  0
    4.1754    9.8761   29.5859 C   0  0  0  0  0  0  0  0  0  0  0  0
    3.6454    8.7809   27.4135 C   0  0  0  0  0  0  0  0  0  0  0  0
    3.5788    7.6441   28.1378 F   0  0  0  0  0  0  0  0  0  0  0  0
    4.1429    8.4559   26.1980 F   0  0  0  0  0  0  0  0  0  0  0  0
    2.3835    9.2227   27.2212 F   0  0  0  0  0  0  0  0  0  0  0  0
  1  2  1  0  0  0
  2  3  2  0  0  0
  3  4  1  0  0  0
  4 13  1  0  0  0
 13 14  1  0  0  0
 14 15  2  0  0  0
 14 17  1  0  0  0
 17 18  1  0  0  0
 18 19  1  0  0  0
 18 20  1  0  0  0
 20 21  1  0  0  0
 20 22  1  0  0  0
 20 23  1  0  0  0
  4  5  2  0  0  0
  5  6  1  0  0  0
  6  7  1  0  0  0
  7  8  1  0  0  0
  8  9  1  0  0  0
  9 10  1  0  0  0
 10 11  1  0  0  0
 11 12  1  0  0  0
  6  2  1  0  0  0
 12  7  1  0  0  0
 13 16  1  0  0  0
M  END
> <minimizedAffinity>
-5.91992

> <minimizedRMSD>
2.04650

$$$$
C16242-P168


 20 21  0  0  0  0  0  0  0  0999 V2000
    7.2653   15.6413   22.0918 O   0  0  0  0  0  0  0  0  0  0  0  0
    6.9615   14.5118   22.7568 C   0  0  0  0  0  0  0  0  0  0  0  0
    6.8226   13.4793   22.1096 O   0  0  0  0  0  0  0  0  0  0  0  0
    6.6972   14.5955   24.2622 C   0  0  0  0  0  0  0  0  0  0  0  0
    7.7461   14.1259   25.1146 O   0  0  0  0  0  0  0  0  0  0  0  0
    7.5741   12.8028   25.4470 C   0  0  0  0  0  0  0  0  0  0  0  0
    8.3452   11.8493   24.7980 C   0  0  0  0  0  0  0  0  0  0  0  0
    8.1524   10.5123   25.1235 C   0  0  0  0  0  0  0  0  0  0  0  0
    7.2193   10.1823   26.0964 C   0  0  0  0  0  0  0  0  0  0  0  0
    6.5297   11.2123   26.7184 C   0  0  0  0  0  0  0  0  0  0  0  0
    6.7052   12.5237   26.4378 N   0  0  0  0  0  0  0  0  0  0  0  0
    8.4228   16.4431   22.4067 C   0  0  0  0  0  0  0  0  0  0  0  0
   11.6505   14.4115   22.2949 C   0  0  0  0  0  0  0  0  0  0  0  0
   11.6407   14.9836   21.1090 N   0  0  0  0  0  0  0  0  0  0  0  0
   10.5038   15.7642   20.9992 C   0  0  0  0  0  0  0  0  0  0  0  0
    9.6736   15.7365   22.1004 C   0  0  0  0  0  0  0  0  0  0  0  0
   10.3665   14.7986   23.3091 S   0  0  0  0  0  0  0  0  0  0  0  0
   12.6875   13.5044   22.8233 C   0  0  0  0  0  0  0  0  0  0  0  0
   13.4074   13.0260   25.0681 C   0  0  0  0  0  0  0  0  0  0  0  0
   12.3300   13.0772   24.1489 O   0  0  0  0  0  0  0  0  0  0  0  0
 19 20  1  0  0  0
 20 18  1  0  0  0
 18 13  1  0  0  0
 13 14  2  0  0  0
 14 15  1  0  0  0
 15 16  2  0  0  0
 16 12  1  0  0  0
 12  1  1  0  0  0
  1  2  1  0  0  0
  2  3  2  0  0  0
  2  4  1  0  0  0
  4  5  1  0  0  0
  5  6  1  0  0  0
  6  7  2  0  0  0
  7  8  1  0  0  0
  8  9  2  0  0  0
  9 10  1  0  0  0
 10 11  2  0  0  0
 16 17  1  0  0  0
 17 13  1  0  0  0
 11  6  1  0  0  0
M  END
> <minimizedAffinity>
-4.08725

> <minimizedRMSD>
1.30182

$$$$
C8840-P439


 15 17  0  0  0  0  0  0  0  0999 V2000
    6.2516   11.6499   26.4104 C   0  0  0  0  0  0  0  0  0  0  0  0
    6.0494   12.9705   25.9848 C   0  0  0  0  0  0  0  0  0  0  0  0
    6.8528   13.5261   24.9867 C   0  0  0  0  0  0  0  0  0  0  0  0
    7.8860   12.7626   24.4621 C   0  0  0  0  0  0  0  0  0  0  0  0
    8.1122   11.4598   24.9208 C   0  0  0  0  0  0  0  0  0  0  0  0
    7.2821   10.8823   25.8654 C   0  0  0  0  0  0  0  0  0  0  0  0
    9.2974   10.8459   24.2490 C   0  0  0  0  0  0  0  0  0  0  0  0
    9.9545   12.0741   23.6066 C   0  0  0  0  0  0  0  0  0  0  0  0
    8.8258   13.1005   23.3260 C   0  0  0  0  0  0  0  0  0  0  0  0
    9.1319   14.5278   23.2578 N   0  0  0  0  0  0  0  0  0  0  0  0
   10.4973   14.9379   23.5569 C   0  0  0  0  0  0  0  0  0  0  0  0
   11.4667   14.8017   22.3866 C   0  0  0  0  0  0  0  0  0  0  0  0
   10.9401   15.5241   21.1565 C   0  0  0  0  0  0  0  0  0  0  0  0
    9.5244   15.0641   20.8399 C   0  0  0  0  0  0  0  0  0  0  0  0
    8.6111   15.1958   22.0543 C   0  0  0  0  0  0  0  0  0  0  0  0
  1  2  2  0  0  0
  2  3  1  0  0  0
  3  4  2  0  0  0
  4  5  1  0  0  0
  5  6  2  0  0  0
  5  7  1  0  0  0
  7  8  1  0  0  0
  8  9  1  0  0  0
  9 10  1  0  0  0
 10 11  1  0  0  0
 11 12  1  0  0  0
 12 13  1  0  0  0
 13 14  1  0  0  0
 14 15  1  0  0  0
  6  1  1  0  0  0
 15 10  1  0  0  0
  9  4  1  0  0  0
M  END
> <minimizedAffinity>
-6.04228

> <minimizedRMSD>
0.61410

$$$$
C8854-P439


 16 18  0  0  0  0  0  0  0  0999 V2000
    5.8421   12.2655   26.6213 C   0  0  0  0  0  0  0  0  0  0  0  0
    5.8996   13.5268   26.0424 C   0  0  0  0  0  0  0  0  0  0  0  0
    6.8277   13.7925   25.0332 C   0  0  0  0  0  0  0  0  0  0  0  0
    7.7552   12.8192   24.6168 C   0  0  0  0  0  0  0  0  0  0  0  0
    7.7059   11.5537   25.2303 C   0  0  0  0  0  0  0  0  0  0  0  0
    6.7362   11.2830   26.2102 C   0  0  0  0  0  0  0  0  0  0  0  0
    8.7436   10.5023   24.9612 C   0  0  0  0  0  0  0  0  0  0  0  0
    9.5059   10.6691   23.6686 C   0  0  0  0  0  0  0  0  0  0  0  0
    9.9090   12.1170   23.4539 C   0  0  0  0  0  0  0  0  0  0  0  0
    8.7061   13.0872   23.4442 C   0  0  0  0  0  0  0  0  0  0  0  0
    9.0535   14.5169   23.3429 N   0  0  0  0  0  0  0  0  0  0  0  0
   10.4102   14.9219   23.6902 C   0  0  0  0  0  0  0  0  0  0  0  0
   11.4167   14.8544   22.5425 C   0  0  0  0  0  0  0  0  0  0  0  0
   10.9027   15.5900   21.3171 C   0  0  0  0  0  0  0  0  0  0  0  0
    9.5120   15.0990   20.9479 C   0  0  0  0  0  0  0  0  0  0  0  0
    8.5581   15.1894   22.1333 C   0  0  0  0  0  0  0  0  0  0  0  0
  1  2  2  0  0  0
  2  3  1  0  0  0
  3  4  2  0  0  0
  4  5  1  0  0  0
  5  6  2  0  0  0
  5  7  1  0  0  0
  7  8  1  0  0  0
  8  9  1  0  0  0
  9 10  1  0  0  0
 10 11  1  0  0  0
 11 12  1  0  0  0
 12 13  1  0  0  0
 13 14  1  0  0  0
 14 15  1  0  0  0
 15 16  1  0  0  0
  6  1  1  0  0  0
 16 11  1  0  0  0
 10  4  1  0  0  0
M  END
> <minimizedAffinity>
-6.18350

> <minimizedRMSD>
0.37050

$$$$
C2188-P174


 15 17  0  0  0  0  0  0  0  0999 V2000
    6.9869   12.5377   26.3114 C   0  0  0  0  0  0  0  0  0  0  0  0
    5.9527   11.3979   26.2866 C   0  0  0  0  0  0  0  0  0  0  0  0
    6.5759   10.0240   26.0679 C   0  0  0  0  0  0  0  0  0  0  0  0
    7.4552    9.9019   24.8276 C   0  0  0  0  0  0  0  0  0  0  0  0
    8.2933   11.1176   24.6040 C   0  0  0  0  0  0  0  0  0  0  0  0
    9.4168   11.1983   23.7261 C   0  0  0  0  0  0  0  0  0  0  0  0
    9.9598   12.4616   23.6937 C   0  0  0  0  0  0  0  0  0  0  0  0
    9.1384   13.5360   24.7388 S   0  0  0  0  0  0  0  0  0  0  0  0
    8.0394   12.3256   25.2352 C   0  0  0  0  0  0  0  0  0  0  0  0
    5.7507   15.7902   27.1297 C   0  0  0  0  0  0  0  0  0  0  0  0
    6.4317   14.7065   27.4222 N   0  0  0  0  0  0  0  0  0  0  0  0
    6.3026   13.8759   26.3240 C   0  0  0  0  0  0  0  0  0  0  0  0
    5.4766   14.4688   25.3902 C   0  0  0  0  0  0  0  0  0  0  0  0
    5.1511   15.6927   25.9071 N   0  0  0  0  0  0  0  0  0  0  0  0
    4.5885   16.3767   25.4771 H   0  0  0  0  0  0  0  0  0  0  0  0
 10 11  2  0  0  0
 11 12  1  0  0  0
  1 12  1  0  0  0
  1  2  1  0  0  0
  2  3  1  0  0  0
  3  4  1  0  0  0
  4  5  1  0  0  0
  5  6  1  0  0  0
  6  7  2  0  0  0
  7  8  1  0  0  0
  8  9  1  0  0  0
 12 13  2  0  0  0
 13 14  1  0  0  0
 14 10  1  0  0  0
  9  1  1  0  0  0
  9  5  2  0  0  0
 14 15  1  0  0  0
M  END
> <minimizedAffinity>
-5.23568

> <minimizedRMSD>
1.01880

$$$$
C15025-P275


 13 13  0  0  0  0  0  0  0  0999 V2000
   10.4137   13.3494   23.8869 S   0  0  0  0  0  0  0  0  0  0  0  0
   10.0829   14.5902   24.5533 O   0  0  0  0  0  0  0  0  0  0  0  0
   11.7158   12.7436   24.0304 O   0  0  0  0  0  0  0  0  0  0  0  0
    9.2318   12.1520   24.3792 C   0  0  0  0  0  0  0  0  0  0  0  0
    8.2687   12.4621   25.3384 C   0  0  0  0  0  0  0  0  0  0  0  0
    7.4335   11.4548   25.8043 C   0  0  0  0  0  0  0  0  0  0  0  0
    7.5972   10.1804   25.2908 C   0  0  0  0  0  0  0  0  0  0  0  0
    8.5275    9.8532   24.3645 N   0  0  0  0  0  0  0  0  0  0  0  0
    9.3394   10.8495   23.9276 C   0  0  0  0  0  0  0  0  0  0  0  0
   10.0971   13.6027   22.2488 N   0  0  0  0  0  0  0  0  0  0  0  0
   10.9826   13.5463   21.7457 H   0  0  0  0  0  0  0  0  0  0  0  0
    9.7575   15.4408   20.5172 C   0  0  0  0  0  0  0  0  0  0  0  0
    9.4566   14.9128   21.9083 C   0  0  0  0  0  0  0  0  0  0  0  0
 12 13  1  0  0  0
 13 10  1  0  0  0
 10  1  1  0  0  0
  1  2  2  0  0  0
  1  3  2  0  0  0
  1  4  1  0  0  0
  4  5  2  0  0  0
  5  6  1  0  0  0
  6  7  2  0  0  0
  7  8  1  0  0  0
  8  9  2  0  0  0
  9  4  1  0  0  0
 10 11  1  0  0  0
M  END
> <minimizedAffinity>
-4.56317

> <minimizedRMSD>
1.83060

$$$$
C15036-P275


 15 15  0  0  0  0  0  0  0  0999 V2000
   10.3735   13.4175   23.7455 S   0  0  0  0  0  0  0  0  0  0  0  0
   11.7126   12.9688   24.0450 O   0  0  0  0  0  0  0  0  0  0  0  0
    9.8825   14.6769   24.2546 O   0  0  0  0  0  0  0  0  0  0  0  0
    9.2818   12.1443   24.2248 C   0  0  0  0  0  0  0  0  0  0  0  0
    8.3346   12.3724   25.2207 C   0  0  0  0  0  0  0  0  0  0  0  0
    7.5755   11.3054   25.6841 C   0  0  0  0  0  0  0  0  0  0  0  0
    7.7921   10.0573   25.1272 C   0  0  0  0  0  0  0  0  0  0  0  0
    8.7073    9.8102   24.1610 N   0  0  0  0  0  0  0  0  0  0  0  0
    9.4450   10.8631   23.7318 C   0  0  0  0  0  0  0  0  0  0  0  0
   10.3176   13.4932   22.0563 N   0  0  0  0  0  0  0  0  0  0  0  0
   11.2276   13.8024   21.7148 H   0  0  0  0  0  0  0  0  0  0  0  0
    9.2619   14.4437   21.5411 C   0  0  0  0  0  0  0  0  0  0  0  0
    9.8594   15.6716   20.8446 C   0  0  0  0  0  0  0  0  0  0  0  0
   12.0487   15.0093   19.5810 N   0  0  0  0  0  0  0  0  0  0  0  0
   11.0808   15.3189   20.1344 C   0  0  0  0  0  0  0  0  0  0  0  0
 14 15  3  0  0  0
 15 13  1  0  0  0
 13 12  1  0  0  0
 12 10  1  0  0  0
 10  1  1  0  0  0
  1  2  2  0  0  0
  1  3  2  0  0  0
  1  4  1  0  0  0
  4  5  2  0  0  0
  5  6  1  0  0  0
  6  7  2  0  0  0
  7  8  1  0  0  0
  8  9  2  0  0  0
  9  4  1  0  0  0
 10 11  1  0  0  0
M  END
> <minimizedAffinity>
-5.17046

> <minimizedRMSD>
2.03447

$$$$
C15048-P275


 17 17  0  0  0  0  0  0  0  0999 V2000
    8.9621   13.8233   24.6127 C   0  0  0  0  0  0  0  0  0  0  0  0
    8.8649   12.3025   24.5609 C   0  0  0  0  0  0  0  0  0  0  0  0
    9.6714   11.5067   23.7429 C   0  0  0  0  0  0  0  0  0  0  0  0
    9.4308   10.1406   23.6841 C   0  0  0  0  0  0  0  0  0  0  0  0
    8.4829    9.5085   24.4096 N   0  0  0  0  0  0  0  0  0  0  0  0
    7.7244   10.2761   25.2118 C   0  0  0  0  0  0  0  0  0  0  0  0
    7.8754   11.6499   25.3198 C   0  0  0  0  0  0  0  0  0  0  0  0
    9.6933   15.3106   26.5704 C   0  0  0  0  0  0  0  0  0  0  0  0
   10.1065   14.2356   25.5714 C   0  0  0  0  0  0  0  0  0  0  0  0
    9.2094   14.5118   23.3407 N   0  0  0  0  0  0  0  0  0  0  0  0
   10.0073   14.0393   22.9158 H   0  0  0  0  0  0  0  0  0  0  0  0
    8.0647   14.6413   22.1449 S   0  0  0  0  0  0  0  0  0  0  0  0
    8.8188   14.8857   20.9403 O   0  0  0  0  0  0  0  0  0  0  0  0
    7.1615   13.5240   22.2316 O   0  0  0  0  0  0  0  0  0  0  0  0
    7.2617   16.0275   22.5498 N   0  0  0  0  0  0  0  0  0  0  0  0
    5.8051   16.0514   22.6622 C   0  0  0  0  0  0  0  0  0  0  0  0
    7.9789   16.9917   23.3777 C   0  0  0  0  0  0  0  0  0  0  0  0
  8  9  1  0  0  0
  1  9  1  0  0  0
  1 10  1  0  0  0
 10 12  1  0  0  0
 12 13  2  0  0  0
 12 14  2  0  0  0
 12 15  1  0  0  0
 15 16  1  0  0  0
 15 17  1  0  0  0
  1  2  1  0  0  0
  2  3  2  0  0  0
  3  4  1  0  0  0
  4  5  2  0  0  0
  5  6  1  0  0  0
  6  7  2  0  0  0
  7  2  1  0  0  0
 10 11  1  0  0  0
M  END
> <minimizedAffinity>
-4.93590

> <minimizedRMSD>
1.64535

$$$$
C15065-P275


 14 14  0  0  0  0  0  0  0  0999 V2000
    9.0791   13.0098   24.4281 C   0  0  0  0  0  0  0  0  0  0  0  0
    9.7700   13.7247   25.1543 O   0  0  0  0  0  0  0  0  0  0  0  0
    8.2724   11.9371   25.0656 C   0  0  0  0  0  0  0  0  0  0  0  0
    7.3747   12.2982   26.0757 C   0  0  0  0  0  0  0  0  0  0  0  0
    6.5660   11.3324   26.6624 C   0  0  0  0  0  0  0  0  0  0  0  0
    6.6893   10.0277   26.2259 C   0  0  0  0  0  0  0  0  0  0  0  0
    7.5653    9.6312   25.2766 N   0  0  0  0  0  0  0  0  0  0  0  0
    8.3352   10.5966   24.7086 C   0  0  0  0  0  0  0  0  0  0  0  0
    8.9135   13.2674   22.9346 C   0  0  0  0  0  0  0  0  0  0  0  0
    7.5041   13.3462   22.6742 O   0  0  0  0  0  0  0  0  0  0  0  0
    7.1209   14.0752   23.1868 H   0  0  0  0  0  0  0  0  0  0  0  0
    9.6170   14.5487   22.4787 C   0  0  0  0  0  0  0  0  0  0  0  0
   11.8705   15.1985   22.6527 C   0  0  0  0  0  0  0  0  0  0  0  0
   10.9636   14.2504   22.1010 O   0  0  0  0  0  0  0  0  0  0  0  0
 13 14  1  0  0  0
 14 12  1  0  0  0
 12  9  1  0  0  0
  9 10  1  0  0  0
  9  1  1  0  0  0
  1  2  2  0  0  0
  1  3  1  0  0  0
  3  4  2  0  0  0
  4  5  1  0  0  0
  5  6  2  0  0  0
  6  7  1  0  0  0
  7  8  2  0  0  0
  8  3  1  0  0  0
 10 11  1  0  0  0
M  END
> <minimizedAffinity>
-4.78049

> <minimizedRMSD>
0.77320

$$$$
C8159-P275


 17 17  0  0  0  0  0  0  0  0999 V2000
    8.0839   14.9419   25.3192 C   0  0  0  0  0  0  0  0  0  0  0  0
    8.6038   13.7301   24.5485 C   0  0  0  0  0  0  0  0  0  0  0  0
    7.7140   12.4935   24.8530 C   0  0  0  0  0  0  0  0  0  0  0  0
    7.0412   12.5338   26.2402 C   0  0  0  0  0  0  0  0  0  0  0  0
    6.2575   11.2701   26.5474 C   0  0  0  0  0  0  0  0  0  0  0  0
    7.0574   10.0121   26.2691 C   0  0  0  0  0  0  0  0  0  0  0  0
    7.6854   10.0053   24.9593 N   0  0  0  0  0  0  0  0  0  0  0  0
    8.4952   11.1848   24.6980 C   0  0  0  0  0  0  0  0  0  0  0  0
    6.9536    9.9527   24.2507 H   0  0  0  0  0  0  0  0  0  0  0  0
    8.6250   13.9363   23.0838 N   0  0  0  0  0  0  0  0  0  0  0  0
    7.6473   14.0611   22.8211 H   0  0  0  0  0  0  0  0  0  0  0  0
    9.4501   15.1253   22.2525 S   0  0  0  0  0  0  0  0  0  0  0  0
    9.4158   14.6975   20.8723 O   0  0  0  0  0  0  0  0  0  0  0  0
    8.9211   16.4156   22.6228 O   0  0  0  0  0  0  0  0  0  0  0  0
   11.1527   14.9994   22.8298 C   0  0  0  0  0  0  0  0  0  0  0  0
   11.6142   13.5558   22.9164 C   0  0  0  0  0  0  0  0  0  0  0  0
   11.4095   15.7157   24.1450 C   0  0  0  0  0  0  0  0  0  0  0  0
  2  1  1  0  0  0
  2 10  1  0  0  0
 10 12  1  0  0  0
 12 13  2  0  0  0
 12 14  2  0  0  0
 12 15  1  0  0  0
 15 16  1  0  0  0
 15 17  1  0  0  0
  2  3  1  0  0  0
  3  4  1  0  0  0
  4  5  1  0  0  0
  5  6  1  0  0  0
  6  7  1  0  0  0
  7  8  1  0  0  0
  8  3  1  0  0  0
 10 11  1  0  0  0
  7  9  1  0  0  0
M  END
> <minimizedAffinity>
-4.53895

> <minimizedRMSD>
0.60204

$$$$
C2382-P321


 15 15  0  0  0  0  0  0  0  0999 V2000
    8.5594   14.6984   23.4235 C   0  0  0  0  0  0  0  0  0  0  0  0
    7.4438   13.9850   22.6447 C   0  0  0  0  0  0  0  0  0  0  0  0
    7.9742   16.0354   23.9371 C   0  0  0  0  0  0  0  0  0  0  0  0
    9.7668   14.8596   22.5628 N   0  0  0  0  0  0  0  0  0  0  0  0
   10.7926   15.7320   23.1595 C   0  0  0  0  0  0  0  0  0  0  0  0
   12.0720   15.6766   22.3360 C   0  0  0  0  0  0  0  0  0  0  0  0
   11.8264   16.1459   20.9120 C   0  0  0  0  0  0  0  0  0  0  0  0
   10.7056   15.3297   20.2930 C   0  0  0  0  0  0  0  0  0  0  0  0
    9.4643   15.3216   21.1874 C   0  0  0  0  0  0  0  0  0  0  0  0
    8.9471   13.8360   24.6660 C   0  0  0  0  0  0  0  0  0  0  0  0
    8.7504   14.2267   25.8256 O   0  0  0  0  0  0  0  0  0  0  0  0
    9.6270   12.4963   24.4784 C   0  0  0  0  0  0  0  0  0  0  0  0
    7.7275   11.0704   25.5007 C   0  0  0  0  0  0  0  0  0  0  0  0
    8.6488   11.3335   24.3096 C   0  0  0  0  0  0  0  0  0  0  0  0
    9.3913   10.0612   23.9310 C   0  0  0  0  0  0  0  0  0  0  0  0
 13 14  1  0  0  0
 14 15  1  0  0  0
 14 12  1  0  0  0
 12 10  1  0  0  0
 10 11  2  0  0  0
 10  1  1  0  0  0
  1  2  1  0  0  0
  1  3  1  0  0  0
  1  4  1  0  0  0
  4  5  1  0  0  0
  5  6  1  0  0  0
  6  7  1  0  0  0
  7  8  1  0  0  0
  8  9  1  0  0  0
  9  4  1  0  0  0
M  END
> <minimizedAffinity>
-5.32385

> <minimizedRMSD>
0.91704

$$$$
C10375-P497


 21 24  0  0  0  0  0  0  0  0999 V2000
   19.5430   -4.6297   26.1687 C   0  0  0  0  0  0  0  0  0  0  0  0
   19.9636   -3.7310   27.1509 C   0  0  0  0  0  0  0  0  0  0  0  0
   20.1219   -2.3817   26.8408 C   0  0  0  0  0  0  0  0  0  0  0  0
   19.8442   -1.9388   25.5421 C   0  0  0  0  0  0  0  0  0  0  0  0
   19.4055   -2.8255   24.5478 C   0  0  0  0  0  0  0  0  0  0  0  0
   19.2701   -4.1805   24.8760 C   0  0  0  0  0  0  0  0  0  0  0  0
   19.0743   -2.3573   23.1835 C   0  0  0  0  0  0  0  0  0  0  0  0
   18.5152   -3.2355   22.1426 C   0  0  0  0  0  0  0  0  0  0  0  0
   18.1495   -2.7761   20.9293 C   0  0  0  0  0  0  0  0  0  0  0  0
   18.3064   -1.3982   20.6291 C   0  0  0  0  0  0  0  0  0  0  0  0
   18.0059   -0.6630   19.5792 N   0  0  0  0  0  0  0  0  0  0  0  0
   18.3689    0.6374   19.8581 N   0  0  0  0  0  0  0  0  0  0  0  0
   18.8954    0.6565   21.0642 C   0  0  0  0  0  0  0  0  0  0  0  0
   18.8627   -0.5963   21.6103 N   0  0  0  0  0  0  0  0  0  0  0  0
   19.2402   -1.0526   22.8689 C   0  0  0  0  0  0  0  0  0  0  0  0
   20.5228   -1.3955   27.6980 O   0  0  0  0  0  0  0  0  0  0  0  0
   19.6224   -0.9693   28.7237 C   0  0  0  0  0  0  0  0  0  0  0  0
   18.4144   -0.2432   28.1366 C   0  0  0  0  0  0  0  0  0  0  0  0
   18.9497    1.1300   27.7380 C   0  0  0  0  0  0  0  0  0  0  0  0
   20.1567    1.3898   28.6372 C   0  0  0  0  0  0  0  0  0  0  0  0
   20.3083    0.1469   29.5113 C   0  0  0  0  0  0  0  0  0  0  0  0
  1  2  2  0  0  0
  2  3  1  0  0  0
  3 16  1  0  0  0
 16 17  1  0  0  0
 17 18  1  0  0  0
 18 19  1  0  0  0
 19 20  1  0  0  0
 20 21  1  0  0  0
  3  4  2  0  0  0
  4  5  1  0  0  0
  5  7  1  0  0  0
  7  8  1  0  0  0
  8  9  2  0  0  0
  9 10  1  0  0  0
 10 11  2  0  0  0
 11 12  1  0  0  0
 12 13  2  0  0  0
 13 14  1  0  0  0
 14 15  1  0  0  0
  5  6  2  0  0  0
  6  1  1  0  0  0
 21 17  1  0  0  0
 15  7  2  0  0  0
 14 10  1  0  0  0
M  END
> <minimizedAffinity>
-5.23891

> <minimizedRMSD>
2.75055

$$$$
C7372-P182


 20 20  0  0  0  0  0  0  0  0999 V2000
   10.1721   13.2580   23.9465 C   0  0  0  0  0  0  0  0  0  0  0  0
   10.1014   13.7359   25.0048 O   0  0  0  0  0  0  0  0  0  0  0  0
   11.1036   13.5828   22.7663 N   0  0  0  0  0  0  0  0  0  0  0  0
   11.0172   12.9777   21.9946 H   0  0  0  0  0  0  0  0  0  0  0  0
    9.2277   12.1864   23.4168 C   0  0  0  0  0  0  0  0  0  0  0  0
    9.0705   10.9062   24.1998 C   0  0  0  0  0  0  0  0  0  0  0  0
    7.6949   10.7301   24.7932 C   0  0  0  0  0  0  0  0  0  0  0  0
    7.3956   11.5289   26.0449 C   0  0  0  0  0  0  0  0  0  0  0  0
    6.7350   12.8690   25.8496 C   0  0  0  0  0  0  0  0  0  0  0  0
    7.0044   13.8445   26.9781 C   0  0  0  0  0  0  0  0  0  0  0  0
    8.4980   15.8986   27.3414 C   0  0  0  0  0  0  0  0  0  0  0  0
    7.4334   15.2240   26.5187 C   0  0  0  0  0  0  0  0  0  0  0  0
    6.9120   15.8021   25.5654 O   0  0  0  0  0  0  0  0  0  0  0  0
   12.0720   14.6179   22.6079 C   0  0  0  0  0  0  0  0  0  0  0  0
   12.2761   14.9010   21.1386 C   0  0  0  0  0  0  0  0  0  0  0  0
   11.0376   15.3401   20.4681 C   0  0  0  0  0  0  0  0  0  0  0  0
   10.6778   15.1680   19.1598 C   0  0  0  0  0  0  0  0  0  0  0  0
    9.5503   15.8914   18.9266 O   0  0  0  0  0  0  0  0  0  0  0  0
    9.2623   16.4341   20.1470 C   0  0  0  0  0  0  0  0  0  0  0  0
   10.1046   16.1100   21.0958 N   0  0  0  0  0  0  0  0  0  0  0  0
 11 12  1  0  0  0
 12 13  2  0  0  0
 12 10  1  0  0  0
 10  9  1  0  0  0
  9  8  1  0  0  0
  8  7  1  0  0  0
  7  6  1  0  0  0
  6  5  1  0  0  0
  5  1  1  0  0  0
  1  2  2  0  0  0
  1  3  1  0  0  0
  3 14  1  0  0  0
 14 15  1  0  0  0
 15 16  1  0  0  0
 16 17  2  0  0  0
 17 18  1  0  0  0
 18 19  1  0  0  0
 19 20  2  0  0  0
 20 16  1  0  0  0
  3  4  1  0  0  0
M  END
> <minimizedAffinity>
-5.12607

> <minimizedRMSD>
1.09340

$$$$
C1823-P158


 13 14  0  0  0  0  0  0  0  0999 V2000
   10.1804   13.5952   22.5261 C   0  0  0  0  0  0  0  0  0  0  0  0
   11.0328   14.6750   23.1952 C   0  0  0  0  0  0  0  0  0  0  0  0
   11.9387   15.3622   22.1721 C   0  0  0  0  0  0  0  0  0  0  0  0
   11.4928   15.1195   20.7355 C   0  0  0  0  0  0  0  0  0  0  0  0
    9.9772   15.0929   20.6038 C   0  0  0  0  0  0  0  0  0  0  0  0
    9.3003   14.1388   21.4884 N   0  0  0  0  0  0  0  0  0  0  0  0
    8.9477   13.3660   20.9238 H   0  0  0  0  0  0  0  0  0  0  0  0
    7.7055   12.5436   25.2049 C   0  0  0  0  0  0  0  0  0  0  0  0
    8.4657   13.3629   24.3906 C   0  0  0  0  0  0  0  0  0  0  0  0
    9.3773   12.7755   23.5073 C   0  0  0  0  0  0  0  0  0  0  0  0
    9.4874   11.3845   23.4947 C   0  0  0  0  0  0  0  0  0  0  0  0
    8.6986   10.6575   24.3611 C   0  0  0  0  0  0  0  0  0  0  0  0
    7.8252   11.2045   25.2325 N   0  0  0  0  0  0  0  0  0  0  0  0
  8  9  2  0  0  0
  9 10  1  0  0  0
  1 10  1  0  0  0
  1  2  1  0  0  0
  2  3  1  0  0  0
  3  4  1  0  0  0
  4  5  1  0  0  0
  5  6  1  0  0  0
 10 11  2  0  0  0
 11 12  1  0  0  0
 12 13  2  0  0  0
 13  8  1  0  0  0
  6  1  1  0  0  0
  6  7  1  0  0  0
M  END
> <minimizedAffinity>
-5.76410

> <minimizedRMSD>
0.64496

$$$$
C8437-P343


 25 27  0  0  0  0  0  0  0  0999 V2000
    8.4657   13.9479   22.4019 N   0  0  0  0  0  0  0  0  0  0  0  0
    9.1088   12.7753   23.1577 C   0  0  0  0  0  0  0  0  0  0  0  0
   10.2174   12.4298   23.2102 O   0  0  0  0  0  0  0  0  0  0  0  0
    7.4834   13.9845   22.4572 H   0  0  0  0  0  0  0  0  0  0  0  0
    8.1009   12.0932   23.9957 C   0  0  0  0  0  0  0  0  0  0  0  0
    8.0624   10.7012   24.1044 C   0  0  0  0  0  0  0  0  0  0  0  0
    7.2436   10.1108   25.0724 C   0  0  0  0  0  0  0  0  0  0  0  0
    6.5224   10.9164   25.9535 C   0  0  0  0  0  0  0  0  0  0  0  0
    6.5697   12.2961   25.8077 C   0  0  0  0  0  0  0  0  0  0  0  0
    7.3411   12.9024   24.8473 C   0  0  0  0  0  0  0  0  0  0  0  0
    5.7865   13.0546   26.7080 N   0  0  0  0  0  0  0  0  0  0  0  0
    5.0845   11.9731   27.8242 S   0  0  0  0  0  0  0  0  0  0  0  0
    5.7204   12.1841   29.1065 O   0  0  0  0  0  0  0  0  0  0  0  0
    3.6526   12.0527   27.6445 O   0  0  0  0  0  0  0  0  0  0  0  0
    5.7070   10.4475   27.1131 C   0  0  0  0  0  0  0  0  0  0  0  0
    5.6678   14.0318   26.6932 H   0  0  0  0  0  0  0  0  0  0  0  0
   10.5533   14.8777   21.2095 C   0  0  0  0  0  0  0  0  0  0  0  0
   11.4980   15.7109   22.0904 C   0  0  0  0  0  0  0  0  0  0  0  0
   11.0748   15.6928   23.5444 C   0  0  0  0  0  0  0  0  0  0  0  0
    9.6930   16.1366   23.7565 N   0  0  0  0  0  0  0  0  0  0  0  0
    8.9402   16.2726   22.4873 C   0  0  0  0  0  0  0  0  0  0  0  0
    9.0739   15.0174   21.6146 C   0  0  0  0  0  0  0  0  0  0  0  0
    9.7085   17.0418   24.2264 H   0  0  0  0  0  0  0  0  0  0  0  0
   10.7374   15.8602   18.7823 N   0  0  0  0  0  0  0  0  0  0  0  0
   10.6922   15.3726   19.8318 C   0  0  0  0  0  0  0  0  0  0  0  0
 24 25  3  0  0  0
 17 25  1  0  0  0
 17 18  1  0  0  0
 18 19  1  0  0  0
 19 20  1  0  0  0
 20 21  1  0  0  0
 21 22  1  0  0  0
 22  1  1  0  0  0
  1  2  1  0  0  0
  2  3  2  0  0  0
  2  5  1  0  0  0
  5  6  2  0  0  0
  6  7  1  0  0  0
  7  8  2  0  0  0
  8  9  1  0  0  0
  9 10  2  0  0  0
  9 11  1  0  0  0
 11 12  1  0  0  0
 12 13  2  0  0  0
 12 14  2  0  0  0
 12 15  1  0  0  0
 22 17  1  0  0  0
 10  5  1  0  0  0
 15  8  1  0  0  0
 20 23  1  0  0  0
  1  4  1  0  0  0
 11 16  1  0  0  0
M  END
> <minimizedAffinity>
-6.64789

> <minimizedRMSD>
0.24975

$$$$
C15183-P151


 15 17  0  0  0  0  0  0  0  0999 V2000
    6.8164   10.7453   26.1898 C   0  0  0  0  0  0  0  0  0  0  0  0
    6.7568   11.9862   26.8048 C   0  0  0  0  0  0  0  0  0  0  0  0
    5.7792   12.1942   27.7836 C   0  0  0  0  0  0  0  0  0  0  0  0
    4.8694   11.1802   28.1123 C   0  0  0  0  0  0  0  0  0  0  0  0
    4.9588    9.9880   27.4104 C   0  0  0  0  0  0  0  0  0  0  0  0
    5.9204    9.7674   26.4847 N   0  0  0  0  0  0  0  0  0  0  0  0
    3.9646    8.8783   27.6316 C   0  0  0  0  0  0  0  0  0  0  0  0
    2.6727    9.3395   28.3002 C   0  0  0  0  0  0  0  0  0  0  0  0
    3.0020   10.1838   29.5224 C   0  0  0  0  0  0  0  0  0  0  0  0
    3.7686   11.4359   29.1052 C   0  0  0  0  0  0  0  0  0  0  0  0
    9.5077   10.5197   23.7659 C   0  0  0  0  0  0  0  0  0  0  0  0
    9.0145    9.2158   23.9234 C   0  0  0  0  0  0  0  0  0  0  0  0
    8.0207    9.1574   24.8089 N   0  0  0  0  0  0  0  0  0  0  0  0
    7.8370   10.4400   25.2280 N   0  0  0  0  0  0  0  0  0  0  0  0
    8.7460   11.2865   24.6188 C   0  0  0  0  0  0  0  0  0  0  0  0
 11 12  1  0  0  0
 12 13  2  0  0  0
 13 14  1  0  0  0
 14  1  1  0  0  0
  1  2  2  0  0  0
  2  3  1  0  0  0
  3  4  2  0  0  0
  4  5  1  0  0  0
  5  6  2  0  0  0
  5  7  1  0  0  0
  7  8  1  0  0  0
  8  9  1  0  0  0
  9 10  1  0  0  0
 14 15  1  0  0  0
 15 11  2  0  0  0
  6  1  1  0  0  0
 10  4  1  0  0  0
M  END
> <minimizedAffinity>
-4.89640

> <minimizedRMSD>
0.90030

$$$$
C15184-P151


 14 16  0  0  0  0  0  0  0  0999 V2000
    6.7774   10.6895   26.2068 C   0  0  0  0  0  0  0  0  0  0  0  0
    6.6746   11.9232   26.8581 C   0  0  0  0  0  0  0  0  0  0  0  0
    5.6741   12.1035   27.8262 C   0  0  0  0  0  0  0  0  0  0  0  0
    4.8013   11.0597   28.0732 C   0  0  0  0  0  0  0  0  0  0  0  0
    4.9533    9.8848   27.3672 C   0  0  0  0  0  0  0  0  0  0  0  0
    5.9139    9.6702   26.4618 N   0  0  0  0  0  0  0  0  0  0  0  0
    3.8785    8.8979   27.7193 C   0  0  0  0  0  0  0  0  0  0  0  0
    2.8506    9.8081   28.4009 C   0  0  0  0  0  0  0  0  0  0  0  0
    3.6429   10.9717   29.0093 C   0  0  0  0  0  0  0  0  0  0  0  0
    9.4878   10.5972   23.7954 C   0  0  0  0  0  0  0  0  0  0  0  0
    9.0290    9.2771   23.9186 C   0  0  0  0  0  0  0  0  0  0  0  0
    8.0454    9.1684   24.8094 N   0  0  0  0  0  0  0  0  0  0  0  0
    7.8148   10.4376   25.2474 N   0  0  0  0  0  0  0  0  0  0  0  0
    8.7016   11.3232   24.6621 C   0  0  0  0  0  0  0  0  0  0  0  0
 10 11  1  0  0  0
 11 12  2  0  0  0
 12 13  1  0  0  0
 13  1  1  0  0  0
  1  2  2  0  0  0
  2  3  1  0  0  0
  3  4  2  0  0  0
  4  5  1  0  0  0
  5  6  2  0  0  0
  5  7  1  0  0  0
  7  8  1  0  0  0
  8  9  1  0  0  0
 13 14  1  0  0  0
 14 10  2  0  0  0
  6  1  1  0  0  0
  9  4  1  0  0  0
M  END
> <minimizedAffinity>
-4.77091

> <minimizedRMSD>
0.78144

$$$$
C31102-P120


 19 19  0  0  0  0  0  0  0  0999 V2000
    4.7044   10.0571   28.4531 C   0  0  0  0  0  0  0  0  0  0  0  0
    5.6722   10.0575   29.1054 O   0  0  0  0  0  0  0  0  0  0  0  0
    4.4453   10.6399   27.0401 N   0  0  0  0  0  0  0  0  0  0  0  0
    3.5119   10.5777   26.7333 H   0  0  0  0  0  0  0  0  0  0  0  0
    5.3493   11.2582   26.1022 C   0  0  0  0  0  0  0  0  0  0  0  0
    6.3404   10.2279   25.5721 C   0  0  0  0  0  0  0  0  0  0  0  0
    7.4574   10.8329   24.7431 C   0  0  0  0  0  0  0  0  0  0  0  0
    7.1436   12.1942   24.3735 N   0  0  0  0  0  0  0  0  0  0  0  0
    7.0458   13.0248   25.4728 C   0  0  0  0  0  0  0  0  0  0  0  0
    7.7730   14.0038   25.5827 O   0  0  0  0  0  0  0  0  0  0  0  0
    6.0021   12.5790   26.5048 C   0  0  0  0  0  0  0  0  0  0  0  0
    7.0144   12.4950   23.4450 H   0  0  0  0  0  0  0  0  0  0  0  0
    3.4990    8.0477   29.4067 C   0  0  0  0  0  0  0  0  0  0  0  0
    3.3520    9.4806   28.9222 C   0  0  0  0  0  0  0  0  0  0  0  0
    2.6781   10.5383   30.2345 S   0  0  0  0  0  0  0  0  0  0  0  0
    1.3085   11.1715   29.3020 C   0  0  0  0  0  0  0  0  0  0  0  0
    1.2715   12.5173   29.3463 F   0  0  0  0  0  0  0  0  0  0  0  0
    0.1276   10.7105   29.7778 F   0  0  0  0  0  0  0  0  0  0  0  0
    1.3797   10.7945   28.0042 F   0  0  0  0  0  0  0  0  0  0  0  0
 14 13  1  0  0  0
 14 15  1  0  0  0
 15 16  1  0  0  0
 16 17  1  0  0  0
 16 18  1  0  0  0
 16 19  1  0  0  0
 14  1  1  0  0  0
  1  2  2  0  0  0
  1  3  1  0  0  0
  5  3  1  0  0  0
  5  6  1  0  0  0
  6  7  1  0  0  0
  7  8  1  0  0  0
  8  9  1  0  0  0
  9 10  2  0  0  0
  9 11  1  0  0  0
 11  5  1  0  0  0
  3  4  1  0  0  0
  8 12  1  0  0  0
M  END
> <minimizedAffinity>
-4.50688

> <minimizedRMSD>
1.01034

$$$$
C7479-P612


 24 25  0  0  0  0  0  0  0  0999 V2000
    7.0715   14.7213   22.3180 S   0  0  0  0  0  0  0  0  0  0  0  0
    6.6045   13.3762   22.0107 O   0  0  0  0  0  0  0  0  0  0  0  0
    8.0761   15.2318   21.4077 O   0  0  0  0  0  0  0  0  0  0  0  0
    7.1846   15.0610   23.8093 N   0  0  0  0  0  0  0  0  0  0  0  0
    8.5305   14.6094   24.4041 S   0  0  0  0  0  0  0  0  0  0  0  0
    8.5738   15.2938   26.0494 C   0  0  0  0  0  0  0  0  0  0  0  0
    9.8219   14.9314   23.8331 O   0  0  0  0  0  0  0  0  0  0  0  0
    8.5501   12.8344   24.7523 C   0  0  0  0  0  0  0  0  0  0  0  0
    9.2754   12.0516   23.6644 C   0  0  0  0  0  0  0  0  0  0  0  0
    9.1956   10.5333   23.7777 C   0  0  0  0  0  0  0  0  0  0  0  0
    7.9603    9.9403   24.4279 C   0  0  0  0  0  0  0  0  0  0  0  0
    7.2141   10.8140   25.4172 C   0  0  0  0  0  0  0  0  0  0  0  0
    7.1628   12.2801   25.0374 C   0  0  0  0  0  0  0  0  0  0  0  0
    5.7589   15.6751   21.9372 N   0  0  0  0  0  0  0  0  0  0  0  0
    5.8930   16.5713   22.4056 H   0  0  0  0  0  0  0  0  0  0  0  0
    4.4280   15.2036   22.2877 C   0  0  0  0  0  0  0  0  0  0  0  0
    3.3931   14.7122   19.9388 C   0  0  0  0  0  0  0  0  0  0  0  0
    2.3604   15.2556   19.2286 O   0  0  0  0  0  0  0  0  0  0  0  0
    1.9598   16.3072   19.9761 C   0  0  0  0  0  0  0  0  0  0  0  0
    2.6174   16.4809   21.1020 N   0  0  0  0  0  0  0  0  0  0  0  0
    3.5234   15.4304   21.1162 C   0  0  0  0  0  0  0  0  0  0  0  0
    3.9860   13.5876   17.7962 C   0  0  0  0  0  0  0  0  0  0  0  0
    4.0587   13.5399   19.3226 C   0  0  0  0  0  0  0  0  0  0  0  0
    3.4467   12.2386   19.8412 C   0  0  0  0  0  0  0  0  0  0  0  0
 22 23  1  0  0  0
 23 24  1  0  0  0
 23 17  1  0  0  0
 17 18  1  0  0  0
 18 19  1  0  0  0
 19 20  2  0  0  0
 20 21  1  0  0  0
 21 16  1  0  0  0
 16 14  1  0  0  0
 14  1  1  0  0  0
  1  2  2  0  0  0
  1  3  2  0  0  0
  1  4  1  0  0  0
  4  5  2  0  0  0
  5  6  1  0  0  0
  5  7  2  0  0  0
  5  8  1  0  0  0
  8  9  1  0  0  0
  9 10  1  0  0  0
 10 11  1  0  0  0
 11 12  1  0  0  0
 12 13  1  0  0  0
 21 17  2  0  0  0
 13  8  1  0  0  0
 14 15  1  0  0  0
M  END
> <minimizedAffinity>
-5.98216

> <minimizedRMSD>
0.59971

$$$$
C11193-P363


 11 11  0  0  0  0  0  0  0  0999 V2000
    6.8439   12.7864   24.9578 C   0  0  0  0  0  0  0  0  0  0  0  0
    5.7375   12.9520   25.7920 C   0  0  0  0  0  0  0  0  0  0  0  0
    4.7622   13.8582   25.4252 C   0  0  0  0  0  0  0  0  0  0  0  0
    4.8239   14.6028   24.3051 N   0  0  0  0  0  0  0  0  0  0  0  0
    5.8997   14.4221   23.5126 C   0  0  0  0  0  0  0  0  0  0  0  0
    6.9257   13.5403   23.7956 C   0  0  0  0  0  0  0  0  0  0  0  0
    8.1311   11.7230   25.5361 S   0  0  0  0  0  0  0  0  0  0  0  0
    9.2911   11.5953   24.1547 C   0  0  0  0  0  0  0  0  0  0  0  0
    9.5507   10.1054   24.0251 C   0  0  0  0  0  0  0  0  0  0  0  0
   10.6983   13.3787   23.4938 C   0  0  0  0  0  0  0  0  0  0  0  0
   10.5088   12.2925   24.3969 O   0  0  0  0  0  0  0  0  0  0  0  0
 10 11  1  0  0  0
 11  8  1  0  0  0
  8  9  1  0  0  0
  8  7  1  0  0  0
  7  1  1  0  0  0
  1  2  2  0  0  0
  2  3  1  0  0  0
  3  4  2  0  0  0
  4  5  1  0  0  0
  5  6  2  0  0  0
  6  1  1  0  0  0
M  END
> <minimizedAffinity>
-3.13994

> <minimizedRMSD>
1.83232

$$$$
C11200-P363


 13 13  0  0  0  0  0  0  0  0999 V2000
    9.0765   12.9077   25.4395 C   0  0  0  0  0  0  0  0  0  0  0  0
   10.0330   12.9659   26.2028 O   0  0  0  0  0  0  0  0  0  0  0  0
    7.7072   12.9741   25.9641 C   0  0  0  0  0  0  0  0  0  0  0  0
    6.9556   11.8124   26.0986 C   0  0  0  0  0  0  0  0  0  0  0  0
    5.7425   11.9054   26.7514 C   0  0  0  0  0  0  0  0  0  0  0  0
    5.2549   13.0523   27.2651 N   0  0  0  0  0  0  0  0  0  0  0  0
    6.0111   14.1633   27.1127 C   0  0  0  0  0  0  0  0  0  0  0  0
    7.2415   14.1769   26.4820 C   0  0  0  0  0  0  0  0  0  0  0  0
    9.5654   10.2824   24.1385 C   0  0  0  0  0  0  0  0  0  0  0  0
    9.5823   11.6175   23.4606 C   0  0  0  0  0  0  0  0  0  0  0  0
    9.2771   12.8179   23.9806 C   0  0  0  0  0  0  0  0  0  0  0  0
    9.3339   14.1046   23.2035 C   0  0  0  0  0  0  0  0  0  0  0  0
   10.6783   14.8096   23.3280 C   0  0  0  0  0  0  0  0  0  0  0  0
  9 10  1  0  0  0
 10 11  2  0  0  0
 11 12  1  0  0  0
 12 13  1  0  0  0
 11  1  1  0  0  0
  1  2  2  0  0  0
  1  3  1  0  0  0
  3  4  2  0  0  0
  4  5  1  0  0  0
  5  6  2  0  0  0
  6  7  1  0  0  0
  7  8  2  0  0  0
  8  3  1  0  0  0
M  END
> <minimizedAffinity>
-3.34970

> <minimizedRMSD>
0.35161

$$$$
C1785-P457


 12 13  0  0  0  0  0  0  0  0999 V2000
    7.6588   10.9762   25.5197 C   0  0  0  0  0  0  0  0  0  0  0  0
    7.8576    9.8606   24.4883 C   0  0  0  0  0  0  0  0  0  0  0  0
    9.1331   10.0794   23.6717 C   0  0  0  0  0  0  0  0  0  0  0  0
    9.5608   11.4833   23.6212 N   0  0  0  0  0  0  0  0  0  0  0  0
    8.4121   12.3795   23.5338 C   0  0  0  0  0  0  0  0  0  0  0  0
    7.5600   12.3309   24.8052 C   0  0  0  0  0  0  0  0  0  0  0  0
   10.1543   11.6216   22.8033 H   0  0  0  0  0  0  0  0  0  0  0  0
    4.5339    9.8697   26.9430 C   0  0  0  0  0  0  0  0  0  0  0  0
    5.3463   10.1542   25.9494 N   0  0  0  0  0  0  0  0  0  0  0  0
    6.4993   10.7359   26.4451 C   0  0  0  0  0  0  0  0  0  0  0  0
    6.4440   11.0398   27.7955 C   0  0  0  0  0  0  0  0  0  0  0  0
    4.9532   10.5261   28.4646 S   0  0  0  0  0  0  0  0  0  0  0  0
  8  9  2  0  0  0
  9 10  1  0  0  0
 10  1  1  0  0  0
  1  2  1  0  0  0
  2  3  1  0  0  0
  3  4  1  0  0  0
  4  5  1  0  0  0
  5  6  1  0  0  0
 10 11  2  0  0  0
 11 12  1  0  0  0
 12  8  1  0  0  0
  6  1  1  0  0  0
  4  7  1  0  0  0
M  END
> <minimizedAffinity>
-4.31835

> <minimizedRMSD>
2.04483

$$$$
C1796-P457


 12 13  0  0  0  0  0  0  0  0999 V2000
    7.6317   10.9140   25.4910 C   0  0  0  0  0  0  0  0  0  0  0  0
    7.8815    9.8229   24.4488 C   0  0  0  0  0  0  0  0  0  0  0  0
    9.1574   10.1051   23.6521 C   0  0  0  0  0  0  0  0  0  0  0  0
    9.5225   11.5259   23.6223 N   0  0  0  0  0  0  0  0  0  0  0  0
    8.3437   12.3806   23.5396 C   0  0  0  0  0  0  0  0  0  0  0  0
    7.4781   12.2735   24.7987 C   0  0  0  0  0  0  0  0  0  0  0  0
   10.1145   11.6988   22.8098 H   0  0  0  0  0  0  0  0  0  0  0  0
    5.1483   10.3166   28.0138 C   0  0  0  0  0  0  0  0  0  0  0  0
    4.5290    9.8613   26.8805 C   0  0  0  0  0  0  0  0  0  0  0  0
    5.3562   10.0938   25.8268 O   0  0  0  0  0  0  0  0  0  0  0  0
    6.4832   10.6197   26.3959 C   0  0  0  0  0  0  0  0  0  0  0  0
    6.3912   10.8094   27.7006 N   0  0  0  0  0  0  0  0  0  0  0  0
  8  9  2  0  0  0
  9 10  1  0  0  0
 10 11  1  0  0  0
 11  1  1  0  0  0
  1  2  1  0  0  0
  2  3  1  0  0  0
  3  4  1  0  0  0
  4  5  1  0  0  0
  5  6  1  0  0  0
 11 12  2  0  0  0
 12  8  1  0  0  0
  6  1  1  0  0  0
  4  7  1  0  0  0
M  END
> <minimizedAffinity>
-4.40331

> <minimizedRMSD>
1.99786

$$$$
C7646-P275


 15 16  0  0  0  0  0  0  0  0999 V2000
    7.6255   14.3087   25.0528 C   0  0  0  0  0  0  0  0  0  0  0  0
    6.4791   15.0499   24.3834 C   0  0  0  0  0  0  0  0  0  0  0  0
    5.4040   16.1104   22.2031 N   0  0  0  0  0  0  0  0  0  0  0  0
    6.7491   15.1977   22.6155 S   0  0  0  0  0  0  0  0  0  0  0  0
    7.8951   16.0388   22.3795 O   0  0  0  0  0  0  0  0  0  0  0  0
    6.5873   13.9292   21.9384 O   0  0  0  0  0  0  0  0  0  0  0  0
    5.4082   16.2874   21.1986 H   0  0  0  0  0  0  0  0  0  0  0  0
    5.4285   16.9981   22.7049 H   0  0  0  0  0  0  0  0  0  0  0  0
    7.2096   12.8604   25.2960 C   0  0  0  0  0  0  0  0  0  0  0  0
    8.3004   11.8977   25.2994 N   0  0  0  0  0  0  0  0  0  0  0  0
    7.7476   10.5377   25.1765 C   0  0  0  0  0  0  0  0  0  0  0  0
    8.8628    9.7519   24.6027 C   0  0  0  0  0  0  0  0  0  0  0  0
    9.3070    9.6222   23.1795 C   0  0  0  0  0  0  0  0  0  0  0  0
    9.8333   10.7178   24.0231 C   0  0  0  0  0  0  0  0  0  0  0  0
    9.2334   12.0807   24.1661 C   0  0  0  0  0  0  0  0  0  0  0  0
  3  4  1  0  0  0
  4  5  2  0  0  0
  4  6  2  0  0  0
  4  2  1  0  0  0
  2  1  1  0  0  0
  1  9  1  0  0  0
  9 10  1  0  0  0
 10 11  1  0  0  0
 12 11  1  0  0  0
 12 13  1  0  0  0
 14 13  1  0  0  0
 14 15  1  0  0  0
 15 10  1  0  0  0
 14 12  1  0  0  0
  3  7  1  0  0  0
  3  8  1  0  0  0
M  END
> <minimizedAffinity>
-2.62076

> <minimizedRMSD>
0.62887

$$$$
C1446-P71


 17 18  0  0  0  0  0  0  0  0999 V2000
    4.5987   12.8775    3.7926 C   0  0  0  0  0  0  0  0  0  0  0  0
    5.0656   14.1623    4.4606 C   0  0  0  0  0  0  0  0  0  0  0  0
    4.8042   15.4624    3.6603 C   0  0  0  0  0  0  0  0  0  0  0  0
    5.8978   16.4792    4.1065 C   0  0  0  0  0  0  0  0  0  0  0  0
    7.2257   15.7408    4.1854 C   0  0  0  0  0  0  0  0  0  0  0  0
    6.8157   14.1530    4.8633 S   0  0  0  0  0  0  0  0  0  0  0  0
    6.9731   14.2630    6.3046 O   0  0  0  0  0  0  0  0  0  0  0  0
    7.5054   13.1265    4.1188 O   0  0  0  0  0  0  0  0  0  0  0  0
    3.4448   15.9352    4.0041 N   0  0  0  0  0  0  0  0  0  0  0  0
    2.4095   15.1995    4.5222 C   0  0  0  0  0  0  0  0  0  0  0  0
    1.4256   16.0927    4.8730 C   0  0  0  0  0  0  0  0  0  0  0  0
    1.9524   17.3497    4.5461 C   0  0  0  0  0  0  0  0  0  0  0  0
    3.1787   17.2633    4.0291 N   0  0  0  0  0  0  0  0  0  0  0  0
    4.9254   15.3124    2.1405 C   0  0  0  0  0  0  0  0  0  0  0  0
    4.0769   15.5467    1.2966 O   0  0  0  0  0  0  0  0  0  0  0  0
    6.1492   14.9244    1.7326 O   0  0  0  0  0  0  0  0  0  0  0  0
    6.8165   14.7391    2.3637 H   0  0  0  0  0  0  0  0  0  0  0  0
  2  1  1  0  0  0
  2  3  1  0  0  0
  3 14  1  0  0  0
 14 15  2  0  0  0
 14 16  1  0  0  0
  3  9  1  0  0  0
  9 10  1  0  0  0
 10 11  2  0  0  0
 11 12  1  0  0  0
 12 13  2  0  0  0
  3  4  1  0  0  0
  4  5  1  0  0  0
  5  6  1  0  0  0
  6  7  2  0  0  0
  6  8  2  0  0  0
  6  2  1  0  0  0
 13  9  1  0  0  0
 16 17  1  0  0  0
M  END
> <minimizedAffinity>
-3.12346

> <minimizedRMSD>
1.69190

$$$$
C7652-P325


 13 13  0  0  0  0  0  0  0  0999 V2000
    9.7147   13.9400   24.6908 N   0  0  0  0  0  0  0  0  0  0  0  0
    9.1212   14.5733   25.2265 H   0  0  0  0  0  0  0  0  0  0  0  0
    9.4569   12.6274   25.2321 C   0  0  0  0  0  0  0  0  0  0  0  0
    9.9255   11.4594   24.4359 C   0  0  0  0  0  0  0  0  0  0  0  0
    9.0098   10.4814   24.4418 C   0  0  0  0  0  0  0  0  0  0  0  0
    7.7996   10.8775   25.2228 C   0  0  0  0  0  0  0  0  0  0  0  0
    7.9604   12.3809   25.3747 C   0  0  0  0  0  0  0  0  0  0  0  0
    9.5149   14.3877   23.1079 S   0  0  0  0  0  0  0  0  0  0  0  0
    9.2420   15.8046   23.1889 O   0  0  0  0  0  0  0  0  0  0  0  0
    8.5956   13.4731   22.4637 O   0  0  0  0  0  0  0  0  0  0  0  0
   11.1331   14.1712   22.3859 C   0  0  0  0  0  0  0  0  0  0  0  0
   12.3716   16.1127   21.4468 C   0  0  0  0  0  0  0  0  0  0  0  0
   12.1206   15.2864   22.6939 C   0  0  0  0  0  0  0  0  0  0  0  0
 12 13  1  0  0  0
 13 11  1  0  0  0
 11  8  1  0  0  0
  8  9  2  0  0  0
  8 10  2  0  0  0
  8  1  1  0  0  0
  3  1  1  0  0  0
  3  4  1  0  0  0
  4  5  2  0  0  0
  5  6  1  0  0  0
  6  7  1  0  0  0
  7  3  1  0  0  0
  1  2  1  0  0  0
M  END
> <minimizedAffinity>
-4.45087

> <minimizedRMSD>
1.24568

$$$$
C8173-P244


 19 19  0  0  0  0  0  0  0  0999 V2000
    7.6052   13.1605   22.6447 O   0  0  0  0  0  0  0  0  0  0  0  0
    8.6966   13.2824   23.0471 C   0  0  0  0  0  0  0  0  0  0  0  0
    9.8686   14.1833   22.5380 N   0  0  0  0  0  0  0  0  0  0  0  0
   10.6772   14.1645   23.0993 H   0  0  0  0  0  0  0  0  0  0  0  0
    9.3269   12.4617   24.1875 C   0  0  0  0  0  0  0  0  0  0  0  0
   10.2624   13.2012   24.8609 F   0  0  0  0  0  0  0  0  0  0  0  0
    8.4439   11.7738   25.2199 C   0  0  0  0  0  0  0  0  0  0  0  0
    7.9219   10.4026   24.8135 C   0  0  0  0  0  0  0  0  0  0  0  0
    7.1271    9.7613   25.9449 C   0  0  0  0  0  0  0  0  0  0  0  0
    6.0708   10.6038   26.4843 N   0  0  0  0  0  0  0  0  0  0  0  0
    6.5336   11.9355   26.8636 C   0  0  0  0  0  0  0  0  0  0  0  0
    7.3210   12.6540   25.7629 C   0  0  0  0  0  0  0  0  0  0  0  0
    5.6828   10.1481   27.3102 H   0  0  0  0  0  0  0  0  0  0  0  0
    9.9570   15.0384   21.3778 C   0  0  0  0  0  0  0  0  0  0  0  0
   11.4178   15.2200   20.9925 C   0  0  0  0  0  0  0  0  0  0  0  0
   11.5797   15.6667   19.5644 C   0  0  0  0  0  0  0  0  0  0  0  0
   11.0583   14.7944   18.6830 F   0  0  0  0  0  0  0  0  0  0  0  0
   10.9903   16.8600   19.3423 F   0  0  0  0  0  0  0  0  0  0  0  0
   12.8864   15.7944   19.2491 F   0  0  0  0  0  0  0  0  0  0  0  0
  1  2  2  0  0  0
  2  3  1  0  0  0
  3 14  1  0  0  0
 14 15  1  0  0  0
 15 16  1  0  0  0
 16 17  1  0  0  0
 16 18  1  0  0  0
 16 19  1  0  0  0
  2  5  1  0  0  0
  5  6  1  0  0  0
  5  7  1  0  0  0
  7  8  1  0  0  0
  8  9  1  0  0  0
  9 10  1  0  0  0
 10 11  1  0  0  0
 11 12  1  0  0  0
 12  7  1  0  0  0
  3  4  1  0  0  0
 10 13  1  0  0  0
M  END
> <minimizedAffinity>
-5.40877

> <minimizedRMSD>
0.85705

$$$$
C7674-P192


 15 16  0  0  0  0  0  0  0  0999 V2000
    9.3277   15.9985   24.6306 C   0  0  0  0  0  0  0  0  0  0  0  0
    7.8755   16.0619   24.1644 C   0  0  0  0  0  0  0  0  0  0  0  0
    6.1989   16.9082   22.2772 N   0  0  0  0  0  0  0  0  0  0  0  0
    7.7165   16.1900   22.3823 S   0  0  0  0  0  0  0  0  0  0  0  0
    8.6500   17.1767   21.8960 O   0  0  0  0  0  0  0  0  0  0  0  0
    7.5679   14.8959   21.7604 O   0  0  0  0  0  0  0  0  0  0  0  0
    5.9577   17.0512   21.2965 H   0  0  0  0  0  0  0  0  0  0  0  0
    6.2144   17.8076   22.7581 H   0  0  0  0  0  0  0  0  0  0  0  0
    9.7128   14.6575   25.2360 C   0  0  0  0  0  0  0  0  0  0  0  0
    9.0538   13.5573   24.5840 N   0  0  0  0  0  0  0  0  0  0  0  0
    9.8974   12.7879   23.6532 C   0  0  0  0  0  0  0  0  0  0  0  0
    9.1489   11.4561   23.4956 C   0  0  0  0  0  0  0  0  0  0  0  0
    8.3672   11.2705   24.7483 C   0  0  0  0  0  0  0  0  0  0  0  0
    7.1215   12.0317   25.0796 C   0  0  0  0  0  0  0  0  0  0  0  0
    8.4341   12.5766   25.4698 C   0  0  0  0  0  0  0  0  0  0  0  0
  3  4  1  0  0  0
  4  5  2  0  0  0
  4  6  2  0  0  0
  4  2  1  0  0  0
  2  1  1  0  0  0
  1  9  1  0  0  0
  9 10  1  0  0  0
 10 11  1  0  0  0
 11 12  1  0  0  0
 13 12  1  0  0  0
 13 14  1  0  0  0
 15 14  1  0  0  0
 15 10  1  0  0  0
 15 13  1  0  0  0
  3  7  1  0  0  0
  3  8  1  0  0  0
M  END
> <minimizedAffinity>
-3.66311

> <minimizedRMSD>
1.39156

$$$$
C8138-P270


 17 17  0  0  0  0  0  0  0  0999 V2000
    8.2255   13.6088   24.4663 C   0  0  0  0  0  0  0  0  0  0  0  0
    7.1235   14.1808   25.1736 O   0  0  0  0  0  0  0  0  0  0  0  0
    6.2945   13.8027   24.8409 H   0  0  0  0  0  0  0  0  0  0  0  0
    8.4128   12.0968   24.7390 C   0  0  0  0  0  0  0  0  0  0  0  0
    7.1060   11.4009   25.0950 C   0  0  0  0  0  0  0  0  0  0  0  0
    7.2538    9.8990   25.2362 C   0  0  0  0  0  0  0  0  0  0  0  0
    7.9100    9.2734   24.1120 N   0  0  0  0  0  0  0  0  0  0  0  0
    9.2044    9.8354   23.7731 C   0  0  0  0  0  0  0  0  0  0  0  0
    9.1748   11.3515   23.6333 C   0  0  0  0  0  0  0  0  0  0  0  0
    7.3015    9.3646   23.2985 H   0  0  0  0  0  0  0  0  0  0  0  0
    8.0195   13.9789   22.9985 C   0  0  0  0  0  0  0  0  0  0  0  0
    7.0257   13.5593   22.3914 O   0  0  0  0  0  0  0  0  0  0  0  0
    8.9778   14.9403   22.3239 C   0  0  0  0  0  0  0  0  0  0  0  0
   10.4280   14.8613   22.8164 C   0  0  0  0  0  0  0  0  0  0  0  0
   10.7162   15.8970   23.9012 C   0  0  0  0  0  0  0  0  0  0  0  0
   12.2424   16.2830   21.6422 C   0  0  0  0  0  0  0  0  0  0  0  0
   11.4396   14.9951   21.6747 C   0  0  0  0  0  0  0  0  0  0  0  0
 16 17  1  0  0  0
 17 14  1  0  0  0
 14 15  1  0  0  0
 14 13  1  0  0  0
 13 11  1  0  0  0
 11 12  2  0  0  0
 11  1  1  0  0  0
  1  2  1  0  0  0
  1  4  1  0  0  0
  4  5  1  0  0  0
  5  6  1  0  0  0
  6  7  1  0  0  0
  7  8  1  0  0  0
  8  9  1  0  0  0
  9  4  1  0  0  0
  2  3  1  0  0  0
  7 10  1  0  0  0
M  END
> <minimizedAffinity>
-5.36995

> <minimizedRMSD>
0.50003

$$$$
C8144-P270


 17 17  0  0  0  0  0  0  0  0999 V2000
    9.1584   15.0258   23.1792 C   0  0  0  0  0  0  0  0  0  0  0  0
    8.7393   15.9897   23.8290 O   0  0  0  0  0  0  0  0  0  0  0  0
    9.4610   13.6817   23.8412 C   0  0  0  0  0  0  0  0  0  0  0  0
    8.5977   13.4633   25.0719 C   0  0  0  0  0  0  0  0  0  0  0  0
    7.5375   12.4043   24.9730 C   0  0  0  0  0  0  0  0  0  0  0  0
    8.1836   11.0970   24.5493 C   0  0  0  0  0  0  0  0  0  0  0  0
    9.3519   11.2551   23.5757 C   0  0  0  0  0  0  0  0  0  0  0  0
    9.3353   12.5549   22.9013 N   0  0  0  0  0  0  0  0  0  0  0  0
    8.4552   12.6488   22.3944 H   0  0  0  0  0  0  0  0  0  0  0  0
    9.4371   15.1017   21.6809 C   0  0  0  0  0  0  0  0  0  0  0  0
    8.2146   14.7116   21.0328 O   0  0  0  0  0  0  0  0  0  0  0  0
    7.4966   15.2988   21.3166 H   0  0  0  0  0  0  0  0  0  0  0  0
    9.9356   16.5145   21.3119 C   0  0  0  0  0  0  0  0  0  0  0  0
   12.2763   16.1732   21.8018 C   0  0  0  0  0  0  0  0  0  0  0  0
   11.0929   16.9015   22.0712 O   0  0  0  0  0  0  0  0  0  0  0  0
   10.0474   16.7955   19.9169 O   0  0  0  0  0  0  0  0  0  0  0  0
   10.5269   15.7693   19.0651 C   0  0  0  0  0  0  0  0  0  0  0  0
 14 15  1  0  0  0
 15 13  1  0  0  0
 13 16  1  0  0  0
 16 17  1  0  0  0
 13 10  1  0  0  0
 10 11  1  0  0  0
 10  1  1  0  0  0
  1  2  2  0  0  0
  3  1  1  0  0  0
  3  4  1  0  0  0
  4  5  1  0  0  0
  5  6  1  0  0  0
  6  7  1  0  0  0
  7  8  1  0  0  0
  8  3  1  0  0  0
 11 12  1  0  0  0
  8  9  1  0  0  0
M  END
> <minimizedAffinity>
-5.14128

> <minimizedRMSD>
1.85869

$$$$
C8152-P270


 15 15  0  0  0  0  0  0  0  0999 V2000
    8.3802   13.7065   24.6112 C   0  0  0  0  0  0  0  0  0  0  0  0
    7.4481   14.7465   24.9363 O   0  0  0  0  0  0  0  0  0  0  0  0
    6.7390   14.7636   24.2747 H   0  0  0  0  0  0  0  0  0  0  0  0
    7.7656   12.3005   24.6980 C   0  0  0  0  0  0  0  0  0  0  0  0
    6.8995   11.9613   25.4972 O   0  0  0  0  0  0  0  0  0  0  0  0
    8.3746   11.4346   23.8328 O   0  0  0  0  0  0  0  0  0  0  0  0
    9.2662    9.2267   23.4359 C   0  0  0  0  0  0  0  0  0  0  0  0
    8.2987   10.0633   24.2426 C   0  0  0  0  0  0  0  0  0  0  0  0
    8.9748   14.0295   23.2242 C   0  0  0  0  0  0  0  0  0  0  0  0
    9.3073   15.4740   23.1472 N   0  0  0  0  0  0  0  0  0  0  0  0
   10.5559   15.8074   23.8569 C   0  0  0  0  0  0  0  0  0  0  0  0
   11.8322   15.3479   23.1526 C   0  0  0  0  0  0  0  0  0  0  0  0
   11.8843   15.8704   21.7241 C   0  0  0  0  0  0  0  0  0  0  0  0
   10.6037   15.5179   20.9798 C   0  0  0  0  0  0  0  0  0  0  0  0
    9.3670   15.9649   21.7569 C   0  0  0  0  0  0  0  0  0  0  0  0
  7  8  1  0  0  0
  8  6  1  0  0  0
  6  4  1  0  0  0
  4  5  2  0  0  0
  4  1  1  0  0  0
  1  2  1  0  0  0
  1  9  1  0  0  0
  9 10  1  0  0  0
 10 11  1  0  0  0
 11 12  1  0  0  0
 12 13  1  0  0  0
 13 14  1  0  0  0
 14 15  1  0  0  0
 15 10  1  0  0  0
  2  3  1  0  0  0
M  END
> <minimizedAffinity>
-4.64204

> <minimizedRMSD>
0.31843

$$$$
C8160-P270


 15 15  0  0  0  0  0  0  0  0999 V2000
    8.5252   14.7227   23.6745 S   0  0  0  0  0  0  0  0  0  0  0  0
    8.7053   15.0874   25.0606 O   0  0  0  0  0  0  0  0  0  0  0  0
    7.4798   15.2766   22.8548 O   0  0  0  0  0  0  0  0  0  0  0  0
    8.3204   13.0520   23.6560 N   0  0  0  0  0  0  0  0  0  0  0  0
    7.1983   12.6806   24.5698 C   0  0  0  0  0  0  0  0  0  0  0  0
    7.3988   11.3835   25.3235 C   0  0  0  0  0  0  0  0  0  0  0  0
    8.0092   10.2941   24.4786 C   0  0  0  0  0  0  0  0  0  0  0  0
    9.2194   10.7661   23.7000 C   0  0  0  0  0  0  0  0  0  0  0  0
    9.5393   12.2535   23.8351 C   0  0  0  0  0  0  0  0  0  0  0  0
    9.9898   14.9765   22.9510 N   0  0  0  0  0  0  0  0  0  0  0  0
   10.4077   15.7947   23.3941 H   0  0  0  0  0  0  0  0  0  0  0  0
   10.0203   15.2057   21.4940 C   0  0  0  0  0  0  0  0  0  0  0  0
   11.5482   15.3583   19.5015 C   0  0  0  0  0  0  0  0  0  0  0  0
   11.4836   15.2309   21.0226 C   0  0  0  0  0  0  0  0  0  0  0  0
   12.2925   16.3545   21.6737 C   0  0  0  0  0  0  0  0  0  0  0  0
 13 14  1  0  0  0
 14 15  1  0  0  0
 14 12  1  0  0  0
 12 10  1  0  0  0
 10  1  1  0  0  0
  1  2  2  0  0  0
  1  3  2  0  0  0
  1  4  1  0  0  0
  4  5  1  0  0  0
  5  6  1  0  0  0
  6  7  1  0  0  0
  7  8  1  0  0  0
  8  9  1  0  0  0
  9  4  1  0  0  0
 10 11  1  0  0  0
M  END
> <minimizedAffinity>
-4.96188

> <minimizedRMSD>
0.44927

$$$$
C8163-P270


 17 17  0  0  0  0  0  0  0  0999 V2000
    8.6884   14.8107   23.1443 S   0  0  0  0  0  0  0  0  0  0  0  0
    8.3999   14.0092   21.9858 O   0  0  0  0  0  0  0  0  0  0  0  0
    7.6325   15.5451   23.7941 O   0  0  0  0  0  0  0  0  0  0  0  0
    9.8295   15.9631   22.7370 N   0  0  0  0  0  0  0  0  0  0  0  0
    9.7101   16.1404   21.7396 H   0  0  0  0  0  0  0  0  0  0  0  0
   11.2757   15.7531   22.9466 C   0  0  0  0  0  0  0  0  0  0  0  0
   12.1700   16.1814   21.7976 C   0  0  0  0  0  0  0  0  0  0  0  0
   11.2923   15.3372   19.4311 C   0  0  0  0  0  0  0  0  0  0  0  0
   11.6682   15.6760   20.5187 C   0  0  0  0  0  0  0  0  0  0  0  0
    9.5650   13.8207   24.3239 C   0  0  0  0  0  0  0  0  0  0  0  0
    8.9903   12.4453   24.5950 C   0  0  0  0  0  0  0  0  0  0  0  0
    7.5104   12.4434   24.9535 C   0  0  0  0  0  0  0  0  0  0  0  0
    7.1200   11.0667   25.4756 C   0  0  0  0  0  0  0  0  0  0  0  0
    7.6543    9.9210   24.6190 C   0  0  0  0  0  0  0  0  0  0  0  0
    9.0114   10.0755   24.1249 N   0  0  0  0  0  0  0  0  0  0  0  0
    9.2712   11.3848   23.5334 C   0  0  0  0  0  0  0  0  0  0  0  0
    9.1799    9.3619   23.4158 H   0  0  0  0  0  0  0  0  0  0  0  0
  8  9  3  0  0  0
  9  7  1  0  0  0
  7  6  1  0  0  0
  6  4  1  0  0  0
  4  1  1  0  0  0
  1  2  2  0  0  0
  1  3  2  0  0  0
  1 10  1  0  0  0
 11 10  1  0  0  0
 11 12  1  0  0  0
 12 13  1  0  0  0
 13 14  1  0  0  0
 14 15  1  0  0  0
 15 16  1  0  0  0
 16 11  1  0  0  0
  4  5  1  0  0  0
 15 17  1  0  0  0
M  END
> <minimizedAffinity>
-5.20325

> <minimizedRMSD>
0.84192

$$$$
C8169-P270


 15 15  0  0  0  0  0  0  0  0999 V2000
    7.6809   15.0345   24.0865 O   0  0  0  0  0  0  0  0  0  0  0  0
    7.9556   14.2102   22.9344 S   0  0  0  0  0  0  0  0  0  0  0  0
    7.1596   14.2365   21.7351 O   0  0  0  0  0  0  0  0  0  0  0  0
    7.9724   12.6045   23.4487 N   0  0  0  0  0  0  0  0  0  0  0  0
    9.2786   11.9597   23.5912 C   0  0  0  0  0  0  0  0  0  0  0  0
    9.0873   10.4508   23.7054 C   0  0  0  0  0  0  0  0  0  0  0  0
    7.9220   10.0031   24.5598 C   0  0  0  0  0  0  0  0  0  0  0  0
    7.2877   11.1104   25.3659 C   0  0  0  0  0  0  0  0  0  0  0  0
    7.1062   12.4358   24.6488 C   0  0  0  0  0  0  0  0  0  0  0  0
    9.5215   14.4617   22.4806 N   0  0  0  0  0  0  0  0  0  0  0  0
    9.5444   14.4668   21.4608 H   0  0  0  0  0  0  0  0  0  0  0  0
   10.1826   15.6861   22.9368 C   0  0  0  0  0  0  0  0  0  0  0  0
   11.6857   15.5408   22.7622 C   0  0  0  0  0  0  0  0  0  0  0  0
   12.2271   16.2302   21.5203 C   0  0  0  0  0  0  0  0  0  0  0  0
   11.8852   15.3312   20.0251 Cl  0  0  0  0  0  0  0  0  0  0  0  0
  1  2  2  0  0  0
  2  3  2  0  0  0
  2 10  1  0  0  0
 10 12  1  0  0  0
 12 13  1  0  0  0
 13 14  1  0  0  0
 14 15  1  0  0  0
  2  4  1  0  0  0
  4  5  1  0  0  0
  5  6  1  0  0  0
  6  7  1  0  0  0
  7  8  1  0  0  0
  8  9  1  0  0  0
  9  4  1  0  0  0
 10 11  1  0  0  0
M  END
> <minimizedAffinity>
-4.97107

> <minimizedRMSD>
0.65861

$$$$
C8176-P270


 17 17  0  0  0  0  0  0  0  0999 V2000
    8.3754   15.7068   24.6001 C   0  0  0  0  0  0  0  0  0  0  0  0
    8.8257   14.6007   23.6450 C   0  0  0  0  0  0  0  0  0  0  0  0
    7.7798   14.5671   22.6510 O   0  0  0  0  0  0  0  0  0  0  0  0
    7.7400   15.4220   22.1945 H   0  0  0  0  0  0  0  0  0  0  0  0
    8.9024   13.2265   24.3910 C   0  0  0  0  0  0  0  0  0  0  0  0
    7.9245   13.1534   25.5751 C   0  0  0  0  0  0  0  0  0  0  0  0
    6.8445   12.1104   25.4318 C   0  0  0  0  0  0  0  0  0  0  0  0
    7.4292   10.7390   25.1391 C   0  0  0  0  0  0  0  0  0  0  0  0
    8.4730   10.7422   24.1365 N   0  0  0  0  0  0  0  0  0  0  0  0
    8.6856   12.0104   23.4795 C   0  0  0  0  0  0  0  0  0  0  0  0
    8.2295   10.0539   23.4242 H   0  0  0  0  0  0  0  0  0  0  0  0
   10.1061   14.8832   22.8296 C   0  0  0  0  0  0  0  0  0  0  0  0
   10.0623   14.6724   21.6040 O   0  0  0  0  0  0  0  0  0  0  0  0
   11.3730   15.3519   23.5212 C   0  0  0  0  0  0  0  0  0  0  0  0
   11.1784   16.4522   24.2920 F   0  0  0  0  0  0  0  0  0  0  0  0
   12.3426   15.6804   22.6253 F   0  0  0  0  0  0  0  0  0  0  0  0
   12.0400   13.9458   24.6880 Br  0  0  0  0  0  0  0  0  0  0  0  0
  2  1  1  0  0  0
  2  3  1  0  0  0
  2 12  1  0  0  0
 12 13  2  0  0  0
 12 14  1  0  0  0
 14 15  1  0  0  0
 14 16  1  0  0  0
 14 17  1  0  0  0
  2  5  1  0  0  0
  5  6  1  0  0  0
  6  7  1  0  0  0
  7  8  1  0  0  0
  8  9  1  0  0  0
  9 10  1  0  0  0
 10  5  1  0  0  0
  3  4  1  0  0  0
  9 11  1  0  0  0
M  END
> <minimizedAffinity>
-4.99647

> <minimizedRMSD>
1.63013

$$$$
C9352-P171


 15 15  0  0  0  0  0  0  0  0999 V2000
    8.6424   13.7095   23.9230 C   0  0  0  0  0  0  0  0  0  0  0  0
    7.5286   14.7477   24.0774 C   0  0  0  0  0  0  0  0  0  0  0  0
    8.7541   13.4261   22.5194 O   0  0  0  0  0  0  0  0  0  0  0  0
    8.9039   14.2522   22.0336 H   0  0  0  0  0  0  0  0  0  0  0  0
    8.4017   12.3597   24.6786 C   0  0  0  0  0  0  0  0  0  0  0  0
    7.2319   12.3357   25.6677 C   0  0  0  0  0  0  0  0  0  0  0  0
    6.8436   10.8637   25.7909 C   0  0  0  0  0  0  0  0  0  0  0  0
    7.7346   10.1329   24.8034 C   0  0  0  0  0  0  0  0  0  0  0  0
    8.1117   11.1697   23.8601 N   0  0  0  0  0  0  0  0  0  0  0  0
    7.3457   11.3596   23.2139 H   0  0  0  0  0  0  0  0  0  0  0  0
    9.9582   14.3012   24.4863 C   0  0  0  0  0  0  0  0  0  0  0  0
   10.2419   14.3577   25.6793 O   0  0  0  0  0  0  0  0  0  0  0  0
   12.5002   15.9744   21.7350 C   0  0  0  0  0  0  0  0  0  0  0  0
   11.6603   15.3371   22.7435 C   0  0  0  0  0  0  0  0  0  0  0  0
   10.9008   14.8557   23.5384 C   0  0  0  0  0  0  0  0  0  0  0  0
 13 14  1  0  0  0
 14 15  3  0  0  0
 15 11  1  0  0  0
 11 12  2  0  0  0
 11  1  1  0  0  0
  1  2  1  0  0  0
  1  3  1  0  0  0
  1  5  1  0  0  0
  5  6  1  0  0  0
  6  7  1  0  0  0
  7  8  1  0  0  0
  8  9  1  0  0  0
  9  5  1  0  0  0
  3  4  1  0  0  0
  9 10  1  0  0  0
M  END
> <minimizedAffinity>
-4.97907

> <minimizedRMSD>
0.85372

$$$$
C9379-P171


 16 16  0  0  0  0  0  0  0  0999 V2000
   10.5318   14.1867   24.7286 C   0  0  0  0  0  0  0  0  0  0  0  0
   10.7704   14.9779   25.9007 O   0  0  0  0  0  0  0  0  0  0  0  0
   10.1306   15.7061   25.9350 H   0  0  0  0  0  0  0  0  0  0  0  0
    9.0924   13.6887   24.8261 C   0  0  0  0  0  0  0  0  0  0  0  0
    8.4065   14.0424   25.7998 O   0  0  0  0  0  0  0  0  0  0  0  0
    8.4776   12.8174   23.7319 C   0  0  0  0  0  0  0  0  0  0  0  0
    9.3920   11.8365   23.0326 C   0  0  0  0  0  0  0  0  0  0  0  0
    9.3189   10.6104   23.8952 C   0  0  0  0  0  0  0  0  0  0  0  0
    7.9382   10.6056   24.5022 C   0  0  0  0  0  0  0  0  0  0  0  0
    7.4442   11.9610   24.3606 N   0  0  0  0  0  0  0  0  0  0  0  0
    7.2122   12.3334   25.2814 H   0  0  0  0  0  0  0  0  0  0  0  0
   10.6911   15.0378   23.4798 C   0  0  0  0  0  0  0  0  0  0  0  0
   12.1372   15.1390   22.9770 C   0  0  0  0  0  0  0  0  0  0  0  0
   12.2348   16.0009   21.7125 C   0  0  0  0  0  0  0  0  0  0  0  0
   10.6456   15.6870   19.7415 C   0  0  0  0  0  0  0  0  0  0  0  0
   11.8832   15.2035   20.4623 C   0  0  0  0  0  0  0  0  0  0  0  0
 15 16  1  0  0  0
 16 14  1  0  0  0
 14 13  1  0  0  0
 13 12  1  0  0  0
 12  1  1  0  0  0
  1  2  1  0  0  0
  1  4  1  0  0  0
  4  5  2  0  0  0
  6  4  1  0  0  0
  6  7  1  0  0  0
  7  8  1  0  0  0
  8  9  1  0  0  0
  9 10  1  0  0  0
 10  6  1  0  0  0
  2  3  1  0  0  0
 10 11  1  0  0  0
M  END
> <minimizedAffinity>
-5.10898

> <minimizedRMSD>
1.38379

$$$$
C961-P265


 20 22  0  0  0  0  0  0  0  0999 V2000
   25.5237   13.2780   -1.3597 O   0  0  0  0  0  0  0  0  0  0  0  0
   24.6692   12.7306   -0.7773 C   0  0  0  0  0  0  0  0  0  0  0  0
   23.4287   11.9469   -1.3052 N   0  0  0  0  0  0  0  0  0  0  0  0
   22.8909   11.5074   -0.6075 H   0  0  0  0  0  0  0  0  0  0  0  0
   24.6588   12.5786    0.7524 C   0  0  0  0  0  0  0  0  0  0  0  0
   25.9941   12.9924    1.3942 C   0  0  0  0  0  0  0  0  0  0  0  0
   25.8976   12.9148    2.9229 C   0  0  0  0  0  0  0  0  0  0  0  0
   24.8121   13.8530    3.4580 C   0  0  0  0  0  0  0  0  0  0  0  0
   23.6222   13.8445    2.6395 N   0  0  0  0  0  0  0  0  0  0  0  0
   22.4159   14.3975    2.9166 C   0  0  0  0  0  0  0  0  0  0  0  0
   21.6135   14.2172    1.8910 N   0  0  0  0  0  0  0  0  0  0  0  0
   22.3124   13.5256    0.9257 N   0  0  0  0  0  0  0  0  0  0  0  0
   23.5324   13.3255    1.3771 C   0  0  0  0  0  0  0  0  0  0  0  0
   22.9659   11.7710   -2.5824 N   0  0  0  0  0  0  0  0  0  0  0  0
   23.0355   12.4619   -3.2803 H   0  0  0  0  0  0  0  0  0  0  0  0
   22.3975   10.5435   -2.7974 C   0  0  0  0  0  0  0  0  0  0  0  0
   21.4660    9.9852   -2.0901 N   0  0  0  0  0  0  0  0  0  0  0  0
   21.2091    8.6257   -2.6030 C   0  0  0  0  0  0  0  0  0  0  0  0
   21.5773    8.5490   -4.0740 C   0  0  0  0  0  0  0  0  0  0  0  0
   22.9914    9.6566   -4.1826 S   0  0  0  0  0  0  0  0  0  0  0  0
  1  2  2  0  0  0
  2  3  1  0  0  0
  3 14  1  0  0  0
 14 16  1  0  0  0
 16 17  2  0  0  0
 17 18  1  0  0  0
 18 19  1  0  0  0
 19 20  1  0  0  0
  5  2  1  0  0  0
  5  6  1  0  0  0
  6  7  1  0  0  0
  7  8  1  0  0  0
  8  9  1  0  0  0
  9 10  1  0  0  0
 10 11  2  0  0  0
 11 12  1  0  0  0
 12 13  2  0  0  0
 20 16  1  0  0  0
 13  5  1  0  0  0
 13  9  1  0  0  0
  3  4  1  0  0  0
 14 15  1  0  0  0
M  END
> <minimizedAffinity>
-3.93104

> <minimizedRMSD>
1.27120

$$$$
C25757-P277


 16 16  0  0  0  0  0  0  0  0999 V2000
    9.9952   12.8814   24.2741 C   0  0  0  0  0  0  0  0  0  0  0  0
    9.7513   13.8704   25.4113 C   0  0  0  0  0  0  0  0  0  0  0  0
   11.2261   12.3208   24.4571 F   0  0  0  0  0  0  0  0  0  0  0  0
    8.9205   11.7556   24.2386 C   0  0  0  0  0  0  0  0  0  0  0  0
    9.5113   10.3950   23.8862 C   0  0  0  0  0  0  0  0  0  0  0  0
    8.4694    9.3946   24.3438 C   0  0  0  0  0  0  0  0  0  0  0  0
    7.5263   10.1670   25.2418 C   0  0  0  0  0  0  0  0  0  0  0  0
    8.2061   11.4387   25.4954 N   0  0  0  0  0  0  0  0  0  0  0  0
    8.8659   11.3436   26.2674 H   0  0  0  0  0  0  0  0  0  0  0  0
   10.0229   13.6146   22.9225 C   0  0  0  0  0  0  0  0  0  0  0  0
   10.3929   15.0916   23.0257 C   0  0  0  0  0  0  0  0  0  0  0  0
    9.7810   15.9090   21.8857 C   0  0  0  0  0  0  0  0  0  0  0  0
   12.2334   16.3801   21.4039 C   0  0  0  0  0  0  0  0  0  0  0  0
   10.8286   16.3234   20.8659 C   0  0  0  0  0  0  0  0  0  0  0  0
   10.4983   17.5272   20.3417 F   0  0  0  0  0  0  0  0  0  0  0  0
   10.8014   15.4274   19.8464 F   0  0  0  0  0  0  0  0  0  0  0  0
 13 14  1  0  0  0
 14 15  1  0  0  0
 14 16  1  0  0  0
 14 12  1  0  0  0
 12 11  1  0  0  0
 11 10  1  0  0  0
 10  1  1  0  0  0
  1  2  1  0  0  0
  1  3  1  0  0  0
  1  4  1  0  0  0
  4  5  1  0  0  0
  5  6  1  0  0  0
  6  7  1  0  0  0
  7  8  1  0  0  0
  8  4  1  0  0  0
  8  9  1  0  0  0
M  END
> <minimizedAffinity>
-5.37123

> <minimizedRMSD>
1.65567

$$$$
C842-P405


 25 28  0  0  0  0  0  0  0  0999 V2000
   30.0330   22.0441   18.9105 C   0  0  0  0  0  0  0  0  0  0  0  0
   30.3060   22.4337   17.6523 N   0  0  0  0  0  0  0  0  0  0  0  0
   29.1156   22.7628   17.1378 N   0  0  0  0  0  0  0  0  0  0  0  0
   28.0860   22.6285   18.0100 C   0  0  0  0  0  0  0  0  0  0  0  0
   28.6331   22.1816   19.1980 C   0  0  0  0  0  0  0  0  0  0  0  0
   28.9980   23.0738   16.2112 H   0  0  0  0  0  0  0  0  0  0  0  0
   31.4154   22.2641   20.9722 C   0  0  0  0  0  0  0  0  0  0  0  0
   32.4111   21.8082   21.8441 C   0  0  0  0  0  0  0  0  0  0  0  0
   33.0650   20.6429   21.5115 C   0  0  0  0  0  0  0  0  0  0  0  0
   32.7823   19.9644   20.3504 C   0  0  0  0  0  0  0  0  0  0  0  0
   31.8230   20.4016   19.4625 C   0  0  0  0  0  0  0  0  0  0  0  0
   31.1017   21.5595   19.7867 C   0  0  0  0  0  0  0  0  0  0  0  0
   33.5433   18.8486   20.2009 O   0  0  0  0  0  0  0  0  0  0  0  0
   34.2666   18.8470   21.4479 C   0  0  0  0  0  0  0  0  0  0  0  0
   34.0285   20.0285   22.2489 O   0  0  0  0  0  0  0  0  0  0  0  0
   27.9267   21.8810   20.4807 C   0  0  0  0  0  0  0  0  0  0  0  0
   26.5550   22.4007   20.4679 N   0  0  0  0  0  0  0  0  0  0  0  0
   26.2386   22.4587   19.5000 H   0  0  0  0  0  0  0  0  0  0  0  0
   25.6113   21.5553   21.2204 C   0  0  0  0  0  0  0  0  0  0  0  0
   26.1640   20.1482   21.4615 C   0  0  0  0  0  0  0  0  0  0  0  0
   25.1196   19.2373   22.1004 C   0  0  0  0  0  0  0  0  0  0  0  0
   23.8892   19.1677   21.3071 N   0  0  0  0  0  0  0  0  0  0  0  0
   23.3291   20.4995   21.0828 C   0  0  0  0  0  0  0  0  0  0  0  0
   24.3176   21.4441   20.4037 C   0  0  0  0  0  0  0  0  0  0  0  0
   23.2045   18.5982   21.8042 H   0  0  0  0  0  0  0  0  0  0  0  0
  7  8  2  0  0  0
  8  9  1  0  0  0
  9 10  2  0  0  0
 10 11  1  0  0  0
 11 12  2  0  0  0
 12  1  1  0  0  0
  1  2  2  0  0  0
  2  3  1  0  0  0
  3  4  1  0  0  0
  4  5  2  0  0  0
  5 16  1  0  0  0
 16 17  1  0  0  0
 17 19  1  0  0  0
 19 20  1  0  0  0
 20 21  1  0  0  0
 21 22  1  0  0  0
 22 23  1  0  0  0
 23 24  1  0  0  0
 10 13  1  0  0  0
 13 14  1  0  0  0
 14 15  1  0  0  0
 12  7  1  0  0  0
  5  1  1  0  0  0
 24 19  1  0  0  0
 15  9  1  0  0  0
  3  6  1  0  0  0
 17 18  1  0  0  0
 22 25  1  0  0  0
M  END
> <minimizedAffinity>
-4.10974

> <minimizedRMSD>
2.61538

$$$$
C901-P405


 24 27  0  0  0  0  0  0  0  0999 V2000
   26.6829   17.5687   24.3386 O   0  0  0  0  0  0  0  0  0  0  0  0
   25.7766   18.0639   23.7879 C   0  0  0  0  0  0  0  0  0  0  0  0
   24.2502   17.8259   23.9469 N   0  0  0  0  0  0  0  0  0  0  0  0
   23.6815   18.4292   23.4162 H   0  0  0  0  0  0  0  0  0  0  0  0
   23.5737   16.9224   24.6976 C   0  0  0  0  0  0  0  0  0  0  0  0
   23.8480   15.5493   24.8495 C   0  0  0  0  0  0  0  0  0  0  0  0
   22.8889   15.0922   25.7230 C   0  0  0  0  0  0  0  0  0  0  0  0
   22.0989   16.1720   26.0033 N   0  0  0  0  0  0  0  0  0  0  0  0
   22.5286   17.3084   25.4278 N   0  0  0  0  0  0  0  0  0  0  0  0
   20.9948   16.1580   26.9805 C   0  0  0  0  0  0  0  0  0  0  0  0
   20.6101   14.7457   27.4898 C   0  0  0  0  0  0  0  0  0  0  0  0
   19.1400   15.2123   27.4241 C   0  0  0  0  0  0  0  0  0  0  0  0
   19.5881   16.2010   26.3276 C   0  0  0  0  0  0  0  0  0  0  0  0
   25.9464   19.1945   22.7835 C   0  0  0  0  0  0  0  0  0  0  0  0
   24.6892   20.0466   22.6161 C   0  0  0  0  0  0  0  0  0  0  0  0
   24.7511   20.8271   21.3271 C   0  0  0  0  0  0  0  0  0  0  0  0
   23.5786   21.2834   20.6900 C   0  0  0  0  0  0  0  0  0  0  0  0
   23.6534   22.0517   19.5223 C   0  0  0  0  0  0  0  0  0  0  0  0
   24.9036   22.3470   19.0219 C   0  0  0  0  0  0  0  0  0  0  0  0
   26.0482   21.9076   19.6373 C   0  0  0  0  0  0  0  0  0  0  0  0
   26.0050   21.1457   20.7822 C   0  0  0  0  0  0  0  0  0  0  0  0
   27.1749   22.3141   18.9971 O   0  0  0  0  0  0  0  0  0  0  0  0
   26.6078   23.0041   17.8690 C   0  0  0  0  0  0  0  0  0  0  0  0
   25.1656   23.0820   17.9079 O   0  0  0  0  0  0  0  0  0  0  0  0
  1  2  2  0  0  0
  2 14  1  0  0  0
 14 15  1  0  0  0
 15 16  1  0  0  0
 16 17  2  0  0  0
 17 18  1  0  0  0
 18 19  2  0  0  0
 19 20  1  0  0  0
 20 21  2  0  0  0
 20 22  1  0  0  0
 22 23  1  0  0  0
 23 24  1  0  0  0
  2  3  1  0  0  0
  3  5  1  0  0  0
  5  6  1  0  0  0
  6  7  2  0  0  0
  7  8  1  0  0  0
  8 10  1  0  0  0
 10 11  1  0  0  0
 11 12  1  0  0  0
 12 13  1  0  0  0
  8  9  1  0  0  0
 21 16  1  0  0  0
  9  5  2  0  0  0
 24 19  1  0  0  0
 13 10  1  0  0  0
  3  4  1  0  0  0
M  END
> <minimizedAffinity>
-4.63244

> <minimizedRMSD>
1.84515

$$$$
C83889-P135


 20 22  0  0  0  0  0  0  0  0999 V2000
   12.1692   14.5269   20.9242 C   0  0  0  0  0  0  0  0  0  0  0  0
   12.9260   15.7394   20.4188 C   0  0  0  0  0  0  0  0  0  0  0  0
   13.5167   16.5746   21.3480 C   0  0  0  0  0  0  0  0  0  0  0  0
   14.0285   17.8107   20.9742 C   0  0  0  0  0  0  0  0  0  0  0  0
   13.8947   18.3864   19.7357 C   0  0  0  0  0  0  0  0  0  0  0  0
   13.3973   17.5537   18.7638 C   0  0  0  0  0  0  0  0  0  0  0  0
   13.2389   17.7781   17.3854 C   0  0  0  0  0  0  0  0  0  0  0  0
   12.6751   16.6445   16.8852 C   0  0  0  0  0  0  0  0  0  0  0  0
   12.5648   15.7262   17.8956 N   0  0  0  0  0  0  0  0  0  0  0  0
   12.9647   16.2601   19.0940 C   0  0  0  0  0  0  0  0  0  0  0  0
   12.2411   14.8040   17.7771 H   0  0  0  0  0  0  0  0  0  0  0  0
   11.8231   14.5591   22.3667 N   0  0  0  0  0  0  0  0  0  0  0  0
   12.2583   15.1983   22.9760 H   0  0  0  0  0  0  0  0  0  0  0  0
    8.9460   15.5723   23.1385 Cl  0  0  0  0  0  0  0  0  0  0  0  0
    9.5509   13.9900   23.2429 C   0  0  0  0  0  0  0  0  0  0  0  0
    8.7039   13.0274   23.7913 C   0  0  0  0  0  0  0  0  0  0  0  0
    9.0439   11.7373   23.9892 N   0  0  0  0  0  0  0  0  0  0  0  0
   10.2962   11.4087   23.6103 C   0  0  0  0  0  0  0  0  0  0  0  0
   11.2056   12.3058   23.0552 C   0  0  0  0  0  0  0  0  0  0  0  0
   10.8481   13.6445   22.8462 C   0  0  0  0  0  0  0  0  0  0  0  0
 14 15  1  0  0  0
 15 16  2  0  0  0
 16 17  1  0  0  0
 17 18  2  0  0  0
 18 19  1  0  0  0
 19 20  2  0  0  0
 20 12  1  0  0  0
 12  1  1  0  0  0
  1  2  1  0  0  0
  2  3  2  0  0  0
  3  4  1  0  0  0
  4  5  2  0  0  0
  5  6  1  0  0  0
  6  7  1  0  0  0
  7  8  2  0  0  0
  8  9  1  0  0  0
  9 10  1  0  0  0
 20 15  1  0  0  0
 10  2  1  0  0  0
 10  6  2  0  0  0
 12 13  1  0  0  0
  9 11  1  0  0  0
M  END
> <minimizedAffinity>
-5.55326

> <minimizedRMSD>
1.65065

$$$$
C53105-P135


 20 22  0  0  0  0  0  0  0  0999 V2000
   11.0424   13.6823   22.5590 C   0  0  0  0  0  0  0  0  0  0  0  0
   11.9586   14.2579   21.4992 C   0  0  0  0  0  0  0  0  0  0  0  0
   11.8562   13.8531   20.1665 C   0  0  0  0  0  0  0  0  0  0  0  0
   12.3524   14.6197   19.1086 C   0  0  0  0  0  0  0  0  0  0  0  0
   13.0021   15.8228   19.3904 C   0  0  0  0  0  0  0  0  0  0  0  0
   13.5563   16.8617   18.5986 C   0  0  0  0  0  0  0  0  0  0  0  0
   14.0684   17.8052   19.4576 C   0  0  0  0  0  0  0  0  0  0  0  0
   13.8816   17.3471   20.7320 N   0  0  0  0  0  0  0  0  0  0  0  0
   13.1894   16.1671   20.7249 C   0  0  0  0  0  0  0  0  0  0  0  0
   12.7162   15.3944   21.7923 C   0  0  0  0  0  0  0  0  0  0  0  0
   14.2013   17.8037   21.5435 H   0  0  0  0  0  0  0  0  0  0  0  0
   11.5086   12.4447   23.1876 N   0  0  0  0  0  0  0  0  0  0  0  0
   12.4630   12.2403   23.3169 H   0  0  0  0  0  0  0  0  0  0  0  0
    9.6345   13.0752   25.4528 C   0  0  0  0  0  0  0  0  0  0  0  0
    9.5576   11.8471   24.6242 C   0  0  0  0  0  0  0  0  0  0  0  0
    8.5660   10.9178   24.9357 C   0  0  0  0  0  0  0  0  0  0  0  0
    8.4638    9.7052   24.3688 N   0  0  0  0  0  0  0  0  0  0  0  0
    9.4017    9.4133   23.4435 C   0  0  0  0  0  0  0  0  0  0  0  0
   10.3946   10.2900   23.0304 C   0  0  0  0  0  0  0  0  0  0  0  0
   10.4711   11.5619   23.5964 C   0  0  0  0  0  0  0  0  0  0  0  0
 14 15  1  0  0  0
 15 16  2  0  0  0
 16 17  1  0  0  0
 17 18  2  0  0  0
 18 19  1  0  0  0
 19 20  2  0  0  0
 20 12  1  0  0  0
 12  1  1  0  0  0
  1  2  1  0  0  0
  2  3  2  0  0  0
  3  4  1  0  0  0
  4  5  2  0  0  0
  5  6  1  0  0  0
  6  7  2  0  0  0
  7  8  1  0  0  0
  8  9  1  0  0  0
  9 10  2  0  0  0
 20 15  1  0  0  0
 10  2  1  0  0  0
  9  5  1  0  0  0
 12 13  1  0  0  0
  8 11  1  0  0  0
M  END
> <minimizedAffinity>
-6.85387

> <minimizedRMSD>
0.59438

$$$$
C7492-P161


 15 15  0  0  0  0  0  0  0  0999 V2000
    8.2643   14.0565   25.2021 N   0  0  0  0  0  0  0  0  0  0  0  0
    7.6716   14.8772   25.0774 H   0  0  0  0  0  0  0  0  0  0  0  0
    7.4671   12.8430   25.0437 N   0  0  0  0  0  0  0  0  0  0  0  0
    8.1309   11.9057   24.1347 C   0  0  0  0  0  0  0  0  0  0  0  0
    8.2778   10.4925   24.6587 C   0  0  0  0  0  0  0  0  0  0  0  0
    7.1068    9.9259   25.4314 C   0  0  0  0  0  0  0  0  0  0  0  0
    6.4237   10.9430   26.3294 C   0  0  0  0  0  0  0  0  0  0  0  0
    7.1251   12.2961   26.3595 C   0  0  0  0  0  0  0  0  0  0  0  0
    9.3327   14.0490   24.1745 C   0  0  0  0  0  0  0  0  0  0  0  0
    9.5992   15.4625   23.6032 C   0  0  0  0  0  0  0  0  0  0  0  0
    9.0214   15.7261   22.3258 O   0  0  0  0  0  0  0  0  0  0  0  0
    8.5668   14.6082   21.5901 C   0  0  0  0  0  0  0  0  0  0  0  0
   11.0666   15.9222   23.6653 C   0  0  0  0  0  0  0  0  0  0  0  0
   12.3396   16.3003   21.4718 C   0  0  0  0  0  0  0  0  0  0  0  0
   12.0194   15.3458   22.6203 C   0  0  0  0  0  0  0  0  0  0  0  0
 14 15  1  0  0  0
 15 13  1  0  0  0
 10 13  1  0  0  0
 10  9  1  0  0  0
  9  1  1  0  0  0
  1  3  1  0  0  0
  3  4  1  0  0  0
  4  5  1  0  0  0
  5  6  1  0  0  0
  6  7  1  0  0  0
  7  8  1  0  0  0
 10 11  1  0  0  0
 11 12  1  0  0  0
  8  3  1  0  0  0
  1  2  1  0  0  0
M  END
> <minimizedAffinity>
-4.33767

> <minimizedRMSD>
0.85429

$$$$
C38594-P122


 13 13  0  0  0  0  0  0  0  0999 V2000
   10.1369   13.1398   23.9910 N   0  0  0  0  0  0  0  0  0  0  0  0
   10.8784   12.7544   22.8020 C   0  0  0  0  0  0  0  0  0  0  0  0
   12.3288   13.1694   22.7601 C   0  0  0  0  0  0  0  0  0  0  0  0
   12.5479   14.3565   23.6574 C   0  0  0  0  0  0  0  0  0  0  0  0
   12.1882   13.9207   25.0659 C   0  0  0  0  0  0  0  0  0  0  0  0
   10.7264   13.5958   25.1548 C   0  0  0  0  0  0  0  0  0  0  0  0
   10.1152   13.6889   26.2199 O   0  0  0  0  0  0  0  0  0  0  0  0
    8.8062   12.6138   24.0870 C   0  0  0  0  0  0  0  0  0  0  0  0
    8.7592   11.2402   24.7120 C   0  0  0  0  0  0  0  0  0  0  0  0
    9.5522   10.3402   24.4311 O   0  0  0  0  0  0  0  0  0  0  0  0
    7.7230   11.0026   25.7767 C   0  0  0  0  0  0  0  0  0  0  0  0
    7.0858   12.4998   27.7510 C   0  0  0  0  0  0  0  0  0  0  0  0
    6.8968   12.1821   26.2775 C   0  0  0  0  0  0  0  0  0  0  0  0
 12 13  1  0  0  0
 13 11  1  0  0  0
 11  9  1  0  0  0
  9 10  2  0  0  0
  9  8  1  0  0  0
  8  1  1  0  0  0
  1  2  1  0  0  0
  2  3  1  0  0  0
  3  4  1  0  0  0
  4  5  1  0  0  0
  5  6  1  0  0  0
  6  7  2  0  0  0
  6  1  1  0  0  0
M  END
> <minimizedAffinity>
-4.43984

> <minimizedRMSD>
1.29887

$$$$
C38598-P404


 13 13  0  0  0  0  0  0  0  0999 V2000
   10.1071   14.9137   23.3514 N   0  0  0  0  0  0  0  0  0  0  0  0
    9.8090   15.4789   22.0395 C   0  0  0  0  0  0  0  0  0  0  0  0
   10.9740   15.3006   21.0895 C   0  0  0  0  0  0  0  0  0  0  0  0
   12.1619   16.0247   21.6839 C   0  0  0  0  0  0  0  0  0  0  0  0
   12.4874   15.5314   23.0790 C   0  0  0  0  0  0  0  0  0  0  0  0
   11.3350   15.1410   23.9778 C   0  0  0  0  0  0  0  0  0  0  0  0
   11.5642   14.9571   25.1791 O   0  0  0  0  0  0  0  0  0  0  0  0
    8.6973   13.2260   23.9261 C   0  0  0  0  0  0  0  0  0  0  0  0
    8.9980   14.4763   24.0386 N   0  0  0  0  0  0  0  0  0  0  0  0
    7.4599   12.7078   24.6056 C   0  0  0  0  0  0  0  0  0  0  0  0
    7.7766   11.3192   25.1104 C   0  0  0  0  0  0  0  0  0  0  0  0
    5.6645   13.9164   25.5186 C   0  0  0  0  0  0  0  0  0  0  0  0
    7.0231   13.5166   25.6833 O   0  0  0  0  0  0  0  0  0  0  0  0
 12 13  1  0  0  0
 13 10  1  0  0  0
 10 11  1  0  0  0
 10  8  1  0  0  0
  8  9  2  0  0  0
  9  1  1  0  0  0
  1  2  1  0  0  0
  2  3  1  0  0  0
  3  4  1  0  0  0
  4  5  1  0  0  0
  5  6  1  0  0  0
  6  7  2  0  0  0
  6  1  1  0  0  0
M  END
> <minimizedAffinity>
-4.71011

> <minimizedRMSD>
1.35088

$$$$
C89701-P12


 25 28  0  0  0  0  0  0  0  0999 V2000
   17.1396   -5.8387   18.5434 N   0  0  0  0  0  0  0  0  0  0  0  0
   18.0491   -4.7456   19.2087 C   0  0  0  0  0  0  0  0  0  0  0  0
   19.2166   -4.6561   19.2562 O   0  0  0  0  0  0  0  0  0  0  0  0
   16.1753   -5.7293   18.7086 H   0  0  0  0  0  0  0  0  0  0  0  0
   17.0109   -8.5688   16.5373 N   0  0  0  0  0  0  0  0  0  0  0  0
   16.4829   -7.7679   17.4791 N   0  0  0  0  0  0  0  0  0  0  0  0
   17.4691   -6.9157   17.7732 C   0  0  0  0  0  0  0  0  0  0  0  0
   18.6515   -7.1930   17.0291 C   0  0  0  0  0  0  0  0  0  0  0  0
   19.9279   -6.6169   16.8707 C   0  0  0  0  0  0  0  0  0  0  0  0
   20.7759   -7.0718   15.8540 C   0  0  0  0  0  0  0  0  0  0  0  0
   20.3778   -8.0979   15.0034 C   0  0  0  0  0  0  0  0  0  0  0  0
   19.1291   -8.7068   15.1499 C   0  0  0  0  0  0  0  0  0  0  0  0
   18.2855   -8.2282   16.1646 C   0  0  0  0  0  0  0  0  0  0  0  0
   16.4244  -10.9554   16.6751 C   0  0  0  0  0  0  0  0  0  0  0  0
   16.1901   -9.6268   15.9794 C   0  0  0  0  0  0  0  0  0  0  0  0
   17.0664   -3.7049   19.7265 C   0  0  0  0  0  0  0  0  0  0  0  0
   17.6384   -2.4484   20.1611 N   0  0  0  0  0  0  0  0  0  0  0  0
   17.2773   -1.3069   19.5282 N   0  0  0  0  0  0  0  0  0  0  0  0
   17.7790   -0.2915   20.2192 N   0  0  0  0  0  0  0  0  0  0  0  0
   18.3734   -0.7955   21.3451 C   0  0  0  0  0  0  0  0  0  0  0  0
   18.9965   -0.1458   22.4200 C   0  0  0  0  0  0  0  0  0  0  0  0
   19.4623   -0.9221   23.4896 C   0  0  0  0  0  0  0  0  0  0  0  0
   19.3112   -2.3111   23.4869 C   0  0  0  0  0  0  0  0  0  0  0  0
   18.7064   -2.9754   22.4144 C   0  0  0  0  0  0  0  0  0  0  0  0
   18.2582   -2.1806   21.3549 C   0  0  0  0  0  0  0  0  0  0  0  0
 14 15  1  0  0  0
 15  5  1  0  0  0
  5  6  1  0  0  0
  6  7  2  0  0  0
  7  1  1  0  0  0
  1  2  1  0  0  0
  2  3  2  0  0  0
  2 16  1  0  0  0
 16 17  1  0  0  0
 17 18  1  0  0  0
 18 19  2  0  0  0
 19 20  1  0  0  0
 20 21  2  0  0  0
 21 22  1  0  0  0
 22 23  2  0  0  0
 23 24  1  0  0  0
 24 25  2  0  0  0
  7  8  1  0  0  0
  8  9  2  0  0  0
  9 10  1  0  0  0
 10 11  2  0  0  0
 11 12  1  0  0  0
 12 13  2  0  0  0
 13  5  1  0  0  0
 25 17  1  0  0  0
 13  8  1  0  0  0
 25 20  1  0  0  0
  1  4  1  0  0  0
M  END
> <minimizedAffinity>
-4.42113

> <minimizedRMSD>
0.55622

$$$$
C89709-P12


 24 27  0  0  0  0  0  0  0  0999 V2000
   17.6000   -4.9436   22.5621 O   0  0  0  0  0  0  0  0  0  0  0  0
   18.0652   -4.1940   21.7948 C   0  0  0  0  0  0  0  0  0  0  0  0
   18.3384   -4.3498   20.2807 N   0  0  0  0  0  0  0  0  0  0  0  0
   18.6716   -3.5369   19.8364 H   0  0  0  0  0  0  0  0  0  0  0  0
   18.1921   -5.4375   19.4549 C   0  0  0  0  0  0  0  0  0  0  0  0
   17.2929   -5.3737   18.4630 N   0  0  0  0  0  0  0  0  0  0  0  0
   17.4183   -6.5466   17.8211 N   0  0  0  0  0  0  0  0  0  0  0  0
   18.3897   -7.3659   18.3208 C   0  0  0  0  0  0  0  0  0  0  0  0
   18.8818   -8.6002   17.8768 C   0  0  0  0  0  0  0  0  0  0  0  0
   19.9465   -9.1443   18.5923 C   0  0  0  0  0  0  0  0  0  0  0  0
   20.4653  -10.3138   18.1919 F   0  0  0  0  0  0  0  0  0  0  0  0
   20.4811   -8.5098   19.7054 C   0  0  0  0  0  0  0  0  0  0  0  0
   19.9587   -7.2834   20.1405 C   0  0  0  0  0  0  0  0  0  0  0  0
   18.8945   -6.6862   19.4313 C   0  0  0  0  0  0  0  0  0  0  0  0
   16.8555   -6.7955   17.0526 H   0  0  0  0  0  0  0  0  0  0  0  0
   18.3962   -2.7848   22.2412 C   0  0  0  0  0  0  0  0  0  0  0  0
   19.0694   -2.6557   23.4122 C   0  0  0  0  0  0  0  0  0  0  0  0
   19.6602   -1.3914   23.8392 C   0  0  0  0  0  0  0  0  0  0  0  0
   19.6149   -0.3457   22.9985 C   0  0  0  0  0  0  0  0  0  0  0  0
   18.9185   -0.4820   21.8026 N   0  0  0  0  0  0  0  0  0  0  0  0
   18.7248    0.4089   20.7868 C   0  0  0  0  0  0  0  0  0  0  0  0
   17.8764   -0.0857   19.9146 N   0  0  0  0  0  0  0  0  0  0  0  0
   17.5630   -1.3692   20.3150 N   0  0  0  0  0  0  0  0  0  0  0  0
   18.2324   -1.6305   21.4187 C   0  0  0  0  0  0  0  0  0  0  0  0
  1  2  2  0  0  0
  2  3  1  0  0  0
  3  5  1  0  0  0
  5  6  2  0  0  0
  6  7  1  0  0  0
  7  8  1  0  0  0
  8  9  2  0  0  0
  9 10  1  0  0  0
 10 11  1  0  0  0
 10 12  2  0  0  0
 12 13  1  0  0  0
 13 14  2  0  0  0
  2 16  1  0  0  0
 16 17  2  0  0  0
 17 18  1  0  0  0
 18 19  2  0  0  0
 19 20  1  0  0  0
 20 21  1  0  0  0
 21 22  2  0  0  0
 22 23  1  0  0  0
 23 24  2  0  0  0
 14  5  1  0  0  0
 24 16  1  0  0  0
 14  8  1  0  0  0
 24 20  1  0  0  0
  3  4  1  0  0  0
  7 15  1  0  0  0
M  END
> <minimizedAffinity>
-4.83338

> <minimizedRMSD>
2.38493

$$$$
C89730-P12


 23 26  0  0  0  0  0  0  0  0999 V2000
   17.8969   -4.7232   19.7179 N   0  0  0  0  0  0  0  0  0  0  0  0
   18.8864   -4.6501   20.9047 C   0  0  0  0  0  0  0  0  0  0  0  0
   19.6368   -5.4467   21.3159 O   0  0  0  0  0  0  0  0  0  0  0  0
   17.3122   -3.9373   19.6199 H   0  0  0  0  0  0  0  0  0  0  0  0
   15.3726   -7.4680   16.8581 C   0  0  0  0  0  0  0  0  0  0  0  0
   16.5679   -6.9350   17.4655 N   0  0  0  0  0  0  0  0  0  0  0  0
   16.4444   -5.9673   18.3927 N   0  0  0  0  0  0  0  0  0  0  0  0
   17.7009   -5.7071   18.7775 C   0  0  0  0  0  0  0  0  0  0  0  0
   18.6348   -6.5293   18.0677 C   0  0  0  0  0  0  0  0  0  0  0  0
   20.0367   -6.6593   17.9889 C   0  0  0  0  0  0  0  0  0  0  0  0
   20.6088   -7.5208   17.0431 C   0  0  0  0  0  0  0  0  0  0  0  0
   19.8085   -8.2684   16.1851 C   0  0  0  0  0  0  0  0  0  0  0  0
   18.4159   -8.1774   16.2471 C   0  0  0  0  0  0  0  0  0  0  0  0
   17.8606   -7.2923   17.1880 C   0  0  0  0  0  0  0  0  0  0  0  0
   18.7115   -3.3409   21.6406 C   0  0  0  0  0  0  0  0  0  0  0  0
   19.2192   -3.2679   22.8963 C   0  0  0  0  0  0  0  0  0  0  0  0
   19.3507   -2.0021   23.6115 C   0  0  0  0  0  0  0  0  0  0  0  0
   19.0501   -0.8647   22.9641 C   0  0  0  0  0  0  0  0  0  0  0  0
   18.5265   -0.9483   21.6782 N   0  0  0  0  0  0  0  0  0  0  0  0
   18.1472    0.0359   20.8118 C   0  0  0  0  0  0  0  0  0  0  0  0
   17.5631   -0.4943   19.7615 N   0  0  0  0  0  0  0  0  0  0  0  0
   17.6314   -1.8666   19.8910 N   0  0  0  0  0  0  0  0  0  0  0  0
   18.2616   -2.1417   21.0142 C   0  0  0  0  0  0  0  0  0  0  0  0
  5  6  1  0  0  0
  6  7  1  0  0  0
  7  8  2  0  0  0
  8  1  1  0  0  0
  1  2  1  0  0  0
  2  3  2  0  0  0
  2 15  1  0  0  0
 15 16  2  0  0  0
 16 17  1  0  0  0
 17 18  2  0  0  0
 18 19  1  0  0  0
 19 20  1  0  0  0
 20 21  2  0  0  0
 21 22  1  0  0  0
 22 23  2  0  0  0
  8  9  1  0  0  0
  9 10  2  0  0  0
 10 11  1  0  0  0
 11 12  2  0  0  0
 12 13  1  0  0  0
 13 14  2  0  0  0
 14  6  1  0  0  0
 23 15  1  0  0  0
 14  9  1  0  0  0
 23 19  1  0  0  0
  1  4  1  0  0  0
M  END
> <minimizedAffinity>
-4.46197

> <minimizedRMSD>
0.95282

$$$$
C89732-P12


 25 28  0  0  0  0  0  0  0  0999 V2000
   18.0834   -5.3725   22.3969 O   0  0  0  0  0  0  0  0  0  0  0  0
   18.3264   -4.5183   21.6366 C   0  0  0  0  0  0  0  0  0  0  0  0
   18.5173   -4.5657   20.1027 N   0  0  0  0  0  0  0  0  0  0  0  0
   18.7939   -3.7132   19.6953 H   0  0  0  0  0  0  0  0  0  0  0  0
   18.3638   -5.6036   19.2160 C   0  0  0  0  0  0  0  0  0  0  0  0
   17.3066   -5.6056   18.3924 N   0  0  0  0  0  0  0  0  0  0  0  0
   17.4972   -6.6831   17.6109 N   0  0  0  0  0  0  0  0  0  0  0  0
   18.6510   -7.3693   17.8605 C   0  0  0  0  0  0  0  0  0  0  0  0
   19.2431   -8.4587   17.2078 C   0  0  0  0  0  0  0  0  0  0  0  0
   20.4861   -8.8745   17.6805 C   0  0  0  0  0  0  0  0  0  0  0  0
   21.0859   -9.9155   17.0299 O   0  0  0  0  0  0  0  0  0  0  0  0
   21.0996   -8.2591   18.7659 C   0  0  0  0  0  0  0  0  0  0  0  0
   20.4741   -7.1830   19.4130 C   0  0  0  0  0  0  0  0  0  0  0  0
   19.2268   -6.7154   18.9495 C   0  0  0  0  0  0  0  0  0  0  0  0
   16.8565   -6.9554   16.9148 H   0  0  0  0  0  0  0  0  0  0  0  0
   20.6596  -10.3198   16.2999 H   0  0  0  0  0  0  0  0  0  0  0  0
   18.4519   -3.0935   22.1338 C   0  0  0  0  0  0  0  0  0  0  0  0
   19.0556   -2.9104   23.3347 C   0  0  0  0  0  0  0  0  0  0  0  0
   19.4775   -1.5938   23.8036 C   0  0  0  0  0  0  0  0  0  0  0  0
   19.3526   -0.5460   22.9733 C   0  0  0  0  0  0  0  0  0  0  0  0
   18.7300   -0.7395   21.7449 N   0  0  0  0  0  0  0  0  0  0  0  0
   18.4828    0.1399   20.7304 C   0  0  0  0  0  0  0  0  0  0  0  0
   17.7374   -0.4336   19.8137 N   0  0  0  0  0  0  0  0  0  0  0  0
   17.5534   -1.7497   20.1856 N   0  0  0  0  0  0  0  0  0  0  0  0
   18.1953   -1.9509   21.3179 C   0  0  0  0  0  0  0  0  0  0  0  0
  1  2  2  0  0  0
  2  3  1  0  0  0
  3  5  1  0  0  0
  5  6  2  0  0  0
  6  7  1  0  0  0
  7  8  1  0  0  0
  8  9  2  0  0  0
  9 10  1  0  0  0
 10 11  1  0  0  0
 10 12  2  0  0  0
 12 13  1  0  0  0
 13 14  2  0  0  0
  2 17  1  0  0  0
 17 18  2  0  0  0
 18 19  1  0  0  0
 19 20  2  0  0  0
 20 21  1  0  0  0
 21 22  1  0  0  0
 22 23  2  0  0  0
 23 24  1  0  0  0
 24 25  2  0  0  0
 14  5  1  0  0  0
 25 17  1  0  0  0
 14  8  1  0  0  0
 25 21  1  0  0  0
  3  4  1  0  0  0
  7 15  1  0  0  0
 11 16  1  0  0  0
M  END
> <minimizedAffinity>
-4.67591

> <minimizedRMSD>
1.91771

$$$$
C2408-P324


 15 15  0  0  0  0  0  0  0  0999 V2000
    8.4757   14.9707   23.1047 C   0  0  0  0  0  0  0  0  0  0  0  0
    7.5372   14.1060   22.2466 C   0  0  0  0  0  0  0  0  0  0  0  0
    7.7906   16.3660   23.1830 C   0  0  0  0  0  0  0  0  0  0  0  0
    9.8513   15.0261   22.5153 N   0  0  0  0  0  0  0  0  0  0  0  0
   10.7920   15.8249   23.3250 C   0  0  0  0  0  0  0  0  0  0  0  0
   12.2109   15.7295   22.7805 C   0  0  0  0  0  0  0  0  0  0  0  0
   12.2853   16.2289   21.3489 C   0  0  0  0  0  0  0  0  0  0  0  0
   11.2836   15.4711   20.4962 C   0  0  0  0  0  0  0  0  0  0  0  0
    9.8814   15.5018   21.1104 C   0  0  0  0  0  0  0  0  0  0  0  0
    8.5709   14.4437   24.5821 C   0  0  0  0  0  0  0  0  0  0  0  0
    8.3689   15.2146   25.5366 O   0  0  0  0  0  0  0  0  0  0  0  0
    8.8740   12.9897   24.9466 C   0  0  0  0  0  0  0  0  0  0  0  0
    7.6125   12.2528   25.3624 C   0  0  0  0  0  0  0  0  0  0  0  0
    9.4686   10.7699   23.8174 C   0  0  0  0  0  0  0  0  0  0  0  0
    9.7997   12.2444   24.0004 C   0  0  0  0  0  0  0  0  0  0  0  0
 14 15  1  0  0  0
 15 12  1  0  0  0
 12 13  1  0  0  0
 12 10  1  0  0  0
 10 11  2  0  0  0
 10  1  1  0  0  0
  1  2  1  0  0  0
  1  3  1  0  0  0
  1  4  1  0  0  0
  4  5  1  0  0  0
  5  6  1  0  0  0
  6  7  1  0  0  0
  7  8  1  0  0  0
  8  9  1  0  0  0
  9  4  1  0  0  0
M  END
> <minimizedAffinity>
-5.14920

> <minimizedRMSD>
0.90410

$$$$
C18995-P38


 19 20  0  0  0  0  0  0  0  0999 V2000
   21.5526   14.9017    1.3393 C   0  0  0  0  0  0  0  0  0  0  0  0
   22.5986   13.9481    0.9101 C   0  0  0  0  0  0  0  0  0  0  0  0
   22.7959   13.4426   -0.2924 N   0  0  0  0  0  0  0  0  0  0  0  0
   23.8933   12.6124   -0.2376 N   0  0  0  0  0  0  0  0  0  0  0  0
   24.3577   12.6386    0.9912 C   0  0  0  0  0  0  0  0  0  0  0  0
   23.5799   13.4745    1.7444 N   0  0  0  0  0  0  0  0  0  0  0  0
   23.8717   13.8486    3.1132 C   0  0  0  0  0  0  0  0  0  0  0  0
   24.9111   12.9367    3.7741 C   0  0  0  0  0  0  0  0  0  0  0  0
   26.0526   12.6006    2.8124 C   0  0  0  0  0  0  0  0  0  0  0  0
   25.5216   11.9104    1.5540 C   0  0  0  0  0  0  0  0  0  0  0  0
   19.2073   13.7206    2.0597 C   0  0  0  0  0  0  0  0  0  0  0  0
   19.2842   13.4950    3.2033 O   0  0  0  0  0  0  0  0  0  0  0  0
   20.2101   14.4210    1.1032 N   0  0  0  0  0  0  0  0  0  0  0  0
   19.8775   14.5602    0.1871 H   0  0  0  0  0  0  0  0  0  0  0  0
   17.9040   13.4098    1.2680 C   0  0  0  0  0  0  0  0  0  0  0  0
   18.1058   13.0039   -0.1851 C   0  0  0  0  0  0  0  0  0  0  0  0
   16.9741   12.4116    2.0224 C   0  0  0  0  0  0  0  0  0  0  0  0
   15.4689   10.8926    0.6636 C   0  0  0  0  0  0  0  0  0  0  0  0
   16.8105   11.0289    1.3766 C   0  0  0  0  0  0  0  0  0  0  0  0
 18 19  1  0  0  0
 19 17  1  0  0  0
 17 15  1  0  0  0
 15 16  1  0  0  0
 15 11  1  0  0  0
 11 12  2  0  0  0
 11 13  1  0  0  0
 13  1  1  0  0  0
  1  2  1  0  0  0
  2  3  2  0  0  0
  3  4  1  0  0  0
  4  5  2  0  0  0
  5  6  1  0  0  0
  6  7  1  0  0  0
  7  8  1  0  0  0
  8  9  1  0  0  0
  9 10  1  0  0  0
  6  2  1  0  0  0
 10  5  1  0  0  0
 13 14  1  0  0  0
M  END
> <minimizedAffinity>
-4.74177

> <minimizedRMSD>
1.68453

$$$$
C18997-P51


 20 21  0  0  0  0  0  0  0  0999 V2000
   23.1875   14.5798    1.9845 C   0  0  0  0  0  0  0  0  0  0  0  0
   24.0689   15.7752    1.5708 C   0  0  0  0  0  0  0  0  0  0  0  0
   23.4623   14.2711    3.4450 C   0  0  0  0  0  0  0  0  0  0  0  0
   23.4497   13.4454    1.0282 C   0  0  0  0  0  0  0  0  0  0  0  0
   22.8031   13.2875   -0.1177 N   0  0  0  0  0  0  0  0  0  0  0  0
   23.4693   12.3671   -0.8787 N   0  0  0  0  0  0  0  0  0  0  0  0
   24.5089   11.9630   -0.1890 C   0  0  0  0  0  0  0  0  0  0  0  0
   24.4744   12.5285    1.0610 N   0  0  0  0  0  0  0  0  0  0  0  0
   25.4908   12.3013    2.0661 C   0  0  0  0  0  0  0  0  0  0  0  0
   26.4920   11.2027    1.7017 C   0  0  0  0  0  0  0  0  0  0  0  0
   26.8551   11.2523    0.2202 C   0  0  0  0  0  0  0  0  0  0  0  0
   25.6084   11.0799   -0.6462 C   0  0  0  0  0  0  0  0  0  0  0  0
   20.5433   14.4874    2.6337 C   0  0  0  0  0  0  0  0  0  0  0  0
   20.4398   13.6945    3.4807 O   0  0  0  0  0  0  0  0  0  0  0  0
   21.7787   14.9417    1.8390 N   0  0  0  0  0  0  0  0  0  0  0  0
   21.5902   15.5804    1.1139 H   0  0  0  0  0  0  0  0  0  0  0  0
   17.6805   16.9502    1.5725 C   0  0  0  0  0  0  0  0  0  0  0  0
   18.9860   16.4511    2.1134 C   0  0  0  0  0  0  0  0  0  0  0  0
   19.9931   17.6979    2.7638 Cl  0  0  0  0  0  0  0  0  0  0  0  0
   19.3214   15.1536    2.1008 C   0  0  0  0  0  0  0  0  0  0  0  0
 17 18  1  0  0  0
 18 19  1  0  0  0
 18 20  2  0  0  0
 20 13  1  0  0  0
 13 14  2  0  0  0
 13 15  1  0  0  0
 15  1  1  0  0  0
  1  2  1  0  0  0
  1  3  1  0  0  0
  1  4  1  0  0  0
  4  5  2  0  0  0
  5  6  1  0  0  0
  6  7  2  0  0  0
  7  8  1  0  0  0
  8  9  1  0  0  0
  9 10  1  0  0  0
 10 11  1  0  0  0
 11 12  1  0  0  0
  8  4  1  0  0  0
 12  7  1  0  0  0
 15 16  1  0  0  0
M  END
> <minimizedAffinity>
-4.27906

> <minimizedRMSD>
0.57073

$$$$
C7181-P440


 22 23  0  0  0  0  0  0  0  0999 V2000
    6.5283   10.7477   26.7917 C   0  0  0  0  0  0  0  0  0  0  0  0
    6.7312   11.8400   27.1499 O   0  0  0  0  0  0  0  0  0  0  0  0
    7.2078    9.9125   25.6675 N   0  0  0  0  0  0  0  0  0  0  0  0
    6.9066    8.9770   25.6095 H   0  0  0  0  0  0  0  0  0  0  0  0
    8.1516   10.2661   24.7510 C   0  0  0  0  0  0  0  0  0  0  0  0
    8.7241    9.3647   23.8322 C   0  0  0  0  0  0  0  0  0  0  0  0
    9.4739   10.1322   22.9796 C   0  0  0  0  0  0  0  0  0  0  0  0
    9.2936   11.4176   23.3995 N   0  0  0  0  0  0  0  0  0  0  0  0
    8.5921   11.5066   24.5486 N   0  0  0  0  0  0  0  0  0  0  0  0
    9.7572   12.6015   22.6916 C   0  0  0  0  0  0  0  0  0  0  0  0
   10.7057   13.4416   23.5543 C   0  0  0  0  0  0  0  0  0  0  0  0
   10.9194   14.8524   23.0023 C   0  0  0  0  0  0  0  0  0  0  0  0
   10.6040   14.9637   21.5156 C   0  0  0  0  0  0  0  0  0  0  0  0
    9.1662   14.5477   21.1956 C   0  0  0  0  0  0  0  0  0  0  0  0
    8.6231   13.4528   22.1167 C   0  0  0  0  0  0  0  0  0  0  0  0
    5.3922    9.8655   27.3244 C   0  0  0  0  0  0  0  0  0  0  0  0
    3.5188   11.3272   28.3444 C   0  0  0  0  0  0  0  0  0  0  0  0
    4.6317   10.3090   28.5849 C   0  0  0  0  0  0  0  0  0  0  0  0
    4.0200    9.0744   29.2438 C   0  0  0  0  0  0  0  0  0  0  0  0
    3.1697    9.4106   30.2333 F   0  0  0  0  0  0  0  0  0  0  0  0
    4.9811    8.2809   29.7736 F   0  0  0  0  0  0  0  0  0  0  0  0
    3.3511    8.3291   28.3385 F   0  0  0  0  0  0  0  0  0  0  0  0
 18 17  1  0  0  0
 18 16  1  0  0  0
 16  1  1  0  0  0
  1  2  2  0  0  0
  1  3  1  0  0  0
  3  5  1  0  0  0
  5  6  1  0  0  0
  6  7  2  0  0  0
  7  8  1  0  0  0
  8 10  1  0  0  0
 10 11  1  0  0  0
 11 12  1  0  0  0
 12 13  1  0  0  0
 13 14  1  0  0  0
 14 15  1  0  0  0
  8  9  1  0  0  0
 18 19  1  0  0  0
 19 20  1  0  0  0
 19 21  1  0  0  0
 19 22  1  0  0  0
  9  5  2  0  0  0
 15 10  1  0  0  0
  3  4  1  0  0  0
M  END
> <minimizedAffinity>
-5.98627

> <minimizedRMSD>
2.01554

$$$$
C4728-P276


  9  9  0  0  0  0  0  0  0  0999 V2000
   10.0179   15.0472   22.4593 N   0  0  0  0  0  0  0  0  0  0  0  0
   11.4623   14.7594   22.5696 C   0  0  0  0  0  0  0  0  0  0  0  0
   12.1107   15.8304   21.7697 C   0  0  0  0  0  0  0  0  0  0  0  0
   11.2028   16.4790   21.0388 C   0  0  0  0  0  0  0  0  0  0  0  0
    9.8519   15.9048   21.2661 C   0  0  0  0  0  0  0  0  0  0  0  0
    9.1749   13.8581   22.4231 C   0  0  0  0  0  0  0  0  0  0  0  0
    9.8054   12.7064   23.1966 C   0  0  0  0  0  0  0  0  0  0  0  0
    8.3335   10.9492   23.9345 O   0  0  0  0  0  0  0  0  0  0  0  0
    8.7819   12.0793   24.1022 C   0  0  0  0  0  0  0  0  0  0  0  0
  8  9  2  0  0  0
  9  7  1  0  0  0
  7  6  1  0  0  0
  6  1  1  0  0  0
  1  2  1  0  0  0
  2  3  1  0  0  0
  3  4  2  0  0  0
  4  5  1  0  0  0
  5  1  1  0  0  0
M  END
> <minimizedAffinity>
-3.87474

> <minimizedRMSD>
1.44364

$$$$
C25758-P259


 13 13  0  0  0  0  0  0  0  0999 V2000
    8.9990   14.5487   24.7143 C   0  0  0  0  0  0  0  0  0  0  0  0
    7.9295   13.7682   25.4567 C   0  0  0  0  0  0  0  0  0  0  0  0
    7.1734   14.3181   26.2638 O   0  0  0  0  0  0  0  0  0  0  0  0
    7.9811    9.9501   24.5736 C   0  0  0  0  0  0  0  0  0  0  0  0
    8.3623   11.4007   24.5039 C   0  0  0  0  0  0  0  0  0  0  0  0
    9.4321   11.6310   23.4984 C   0  0  0  0  0  0  0  0  0  0  0  0
    7.7707   12.2939   25.3137 C   0  0  0  0  0  0  0  0  0  0  0  0
    8.4695   15.3958   23.5550 C   0  0  0  0  0  0  0  0  0  0  0  0
    9.5395   16.1418   22.8837 N   0  0  0  0  0  0  0  0  0  0  0  0
    9.0520   16.8756   21.7086 C   0  0  0  0  0  0  0  0  0  0  0  0
   10.3093   17.2252   20.9211 C   0  0  0  0  0  0  0  0  0  0  0  0
   11.3961   16.3165   21.4761 C   0  0  0  0  0  0  0  0  0  0  0  0
   10.6516   15.3406   22.3700 C   0  0  0  0  0  0  0  0  0  0  0  0
  4  5  1  0  0  0
  5  6  1  0  0  0
  5  7  2  0  0  0
  7  2  1  0  0  0
  2  3  2  0  0  0
  2  1  1  0  0  0
  1  8  1  0  0  0
  8  9  1  0  0  0
  9 10  1  0  0  0
 10 11  1  0  0  0
 11 12  1  0  0  0
 12 13  1  0  0  0
 13  9  1  0  0  0
M  END
> <minimizedAffinity>
-4.19017

> <minimizedRMSD>
1.21542

$$$$
C20430-P22


 22 24  0  0  0  0  0  0  0  0999 V2000
   22.6948   12.8799    0.6806 C   0  0  0  0  0  0  0  0  0  0  0  0
   22.1576   12.6050   -0.4928 N   0  0  0  0  0  0  0  0  0  0  0  0
   22.9061   11.6403   -1.1039 N   0  0  0  0  0  0  0  0  0  0  0  0
   23.8922   11.3321   -0.2973 C   0  0  0  0  0  0  0  0  0  0  0  0
   23.7929   12.0691    0.8520 N   0  0  0  0  0  0  0  0  0  0  0  0
   24.7859   12.0412    1.9101 C   0  0  0  0  0  0  0  0  0  0  0  0
   25.8341   10.9086    1.7719 C   0  0  0  0  0  0  0  0  0  0  0  0
   26.2142   10.7231    0.2930 C   0  0  0  0  0  0  0  0  0  0  0  0
   24.9819   10.3614   -0.5312 C   0  0  0  0  0  0  0  0  0  0  0  0
   21.0529   14.7481    0.9791 C   0  0  0  0  0  0  0  0  0  0  0  0
   22.1157   13.8608    1.6637 C   0  0  0  0  0  0  0  0  0  0  0  0
   23.2000   14.8037    2.1949 C   0  0  0  0  0  0  0  0  0  0  0  0
   21.3779   13.0521    2.7275 C   0  0  0  0  0  0  0  0  0  0  0  0
   27.0715   11.2515    2.6214 C   0  0  0  0  0  0  0  0  0  0  0  0
   27.1100   12.1996    3.3025 O   0  0  0  0  0  0  0  0  0  0  0  0
   28.1576   10.1757    2.3290 N   0  0  0  0  0  0  0  0  0  0  0  0
   27.9044    9.5075    1.6517 H   0  0  0  0  0  0  0  0  0  0  0  0
   29.4945    9.9963    2.8976 C   0  0  0  0  0  0  0  0  0  0  0  0
   29.9873   11.1091    3.8744 C   0  0  0  0  0  0  0  0  0  0  0  0
   31.3770   11.1229    3.1959 C   0  0  0  0  0  0  0  0  0  0  0  0
   30.6968   10.4398    1.9924 C   0  0  0  0  0  0  0  0  0  0  0  0
   31.0007   10.3310    0.8233 O   0  0  0  0  0  0  0  0  0  0  0  0
 10 11  1  0  0  0
 11 12  1  0  0  0
 11 13  1  0  0  0
 11  1  1  0  0  0
  1  2  2  0  0  0
  2  3  1  0  0  0
  3  4  2  0  0  0
  4  5  1  0  0  0
  5  6  1  0  0  0
  6  7  1  0  0  0
  7 14  1  0  0  0
 14 15  2  0  0  0
 14 16  1  0  0  0
 18 16  1  0  0  0
 18 19  1  0  0  0
 19 20  1  0  0  0
 20 21  1  0  0  0
 21 22  2  0  0  0
  7  8  1  0  0  0
  8  9  1  0  0  0
  5  1  1  0  0  0
 21 18  1  0  0  0
  9  4  1  0  0  0
 16 17  1  0  0  0
M  END
> <minimizedAffinity>
-3.85440

> <minimizedRMSD>
0.68901

$$$$
C6315-P170


 16 16  0  0  0  0  0  0  0  0999 V2000
    8.8306   14.2849   23.7757 C   0  0  0  0  0  0  0  0  0  0  0  0
    8.8471   12.9013   24.4422 C   0  0  0  0  0  0  0  0  0  0  0  0
    7.4457   12.4955   24.8807 C   0  0  0  0  0  0  0  0  0  0  0  0
    7.4675   11.1043   25.4829 C   0  0  0  0  0  0  0  0  0  0  0  0
    8.0736   10.1412   24.6037 N   0  0  0  0  0  0  0  0  0  0  0  0
    9.1429   10.4071   23.8053 C   0  0  0  0  0  0  0  0  0  0  0  0
    9.7863    9.4981   23.2932 O   0  0  0  0  0  0  0  0  0  0  0  0
    9.4817   11.8461   23.5297 C   0  0  0  0  0  0  0  0  0  0  0  0
    7.6916    9.2342   24.5779 H   0  0  0  0  0  0  0  0  0  0  0  0
   11.5247   15.2812   25.2738 O   0  0  0  0  0  0  0  0  0  0  0  0
   11.3995   15.0531   24.1363 C   0  0  0  0  0  0  0  0  0  0  0  0
   10.1536   14.6192   23.3338 N   0  0  0  0  0  0  0  0  0  0  0  0
   10.2895   14.5629   22.3603 H   0  0  0  0  0  0  0  0  0  0  0  0
   12.5712   15.0445   23.1707 C   0  0  0  0  0  0  0  0  0  0  0  0
   12.4220   15.9649   21.9808 C   0  0  0  0  0  0  0  0  0  0  0  0
   12.1198   15.0600   20.4733 Cl  0  0  0  0  0  0  0  0  0  0  0  0
 10 11  2  0  0  0
 11 14  1  0  0  0
 14 15  1  0  0  0
 15 16  1  0  0  0
 11 12  1  0  0  0
 12  1  1  0  0  0
  2  1  1  0  0  0
  2  3  1  0  0  0
  3  4  1  0  0  0
  4  5  1  0  0  0
  5  6  1  0  0  0
  6  7  2  0  0  0
  6  8  1  0  0  0
  8  2  1  0  0  0
 12 13  1  0  0  0
  5  9  1  0  0  0
M  END
> <minimizedAffinity>
-5.27831

> <minimizedRMSD>
0.41455

$$$$
C6329-P170


 19 19  0  0  0  0  0  0  0  0999 V2000
   11.9820   14.9579   22.6936 C   0  0  0  0  0  0  0  0  0  0  0  0
   12.9470   15.2958   23.2443 O   0  0  0  0  0  0  0  0  0  0  0  0
   10.6897   14.3546   23.2396 N   0  0  0  0  0  0  0  0  0  0  0  0
    9.9810   14.2233   22.5690 H   0  0  0  0  0  0  0  0  0  0  0  0
   10.9901   15.3699   18.9835 C   0  0  0  0  0  0  0  0  0  0  0  0
   11.0535   15.6642   20.4364 C   0  0  0  0  0  0  0  0  0  0  0  0
   11.9241   14.9859   21.2100 C   0  0  0  0  0  0  0  0  0  0  0  0
   10.0341   16.6902   20.8218 C   0  0  0  0  0  0  0  0  0  0  0  0
    9.6660   17.4399   19.7479 F   0  0  0  0  0  0  0  0  0  0  0  0
    8.8816   16.1062   21.2451 F   0  0  0  0  0  0  0  0  0  0  0  0
   10.3391   13.9472   24.5727 C   0  0  0  0  0  0  0  0  0  0  0  0
    9.0124   13.1684   24.5051 C   0  0  0  0  0  0  0  0  0  0  0  0
    8.0632   13.5581   25.6308 C   0  0  0  0  0  0  0  0  0  0  0  0
    6.8514   12.6561   25.5610 C   0  0  0  0  0  0  0  0  0  0  0  0
    7.1728   11.1808   25.6073 C   0  0  0  0  0  0  0  0  0  0  0  0
    8.2418   10.8004   24.6242 C   0  0  0  0  0  0  0  0  0  0  0  0
    8.3161    9.6986   24.0985 O   0  0  0  0  0  0  0  0  0  0  0  0
    9.2358   11.7229   24.4511 N   0  0  0  0  0  0  0  0  0  0  0  0
   10.1495   11.3981   24.2812 H   0  0  0  0  0  0  0  0  0  0  0  0
  5  6  1  0  0  0
  6  7  2  0  0  0
  7  1  1  0  0  0
  1  2  2  0  0  0
  1  3  1  0  0  0
  3 11  1  0  0  0
 12 11  1  0  0  0
 12 13  1  0  0  0
 13 14  1  0  0  0
 14 15  1  0  0  0
 15 16  1  0  0  0
 16 17  2  0  0  0
 16 18  1  0  0  0
  6  8  1  0  0  0
  8  9  1  0  0  0
  8 10  1  0  0  0
 18 12  1  0  0  0
  3  4  1  0  0  0
 18 19  1  0  0  0
M  END
> <minimizedAffinity>
-6.65903

> <minimizedRMSD>
1.75522

$$$$
C8881-P274


 26 28  0  0  0  0  0  0  0  0999 V2000
    9.7296   15.8102   22.5560 C   0  0  0  0  0  0  0  0  0  0  0  0
   10.7446   15.4244   21.6171 O   0  0  0  0  0  0  0  0  0  0  0  0
   10.7553   14.4582   21.5313 H   0  0  0  0  0  0  0  0  0  0  0  0
   10.0729   15.2135   23.9368 C   0  0  0  0  0  0  0  0  0  0  0  0
   10.4818   12.0171   24.0016 O   0  0  0  0  0  0  0  0  0  0  0  0
    9.4939   12.5950   24.1906 C   0  0  0  0  0  0  0  0  0  0  0  0
    9.2151   14.1012   24.2232 N   0  0  0  0  0  0  0  0  0  0  0  0
    8.2974   14.3448   24.4833 H   0  0  0  0  0  0  0  0  0  0  0  0
    8.1122   11.9138   24.3635 C   0  0  0  0  0  0  0  0  0  0  0  0
    7.3012   12.4431   25.5630 C   0  0  0  0  0  0  0  0  0  0  0  0
    6.6414   11.4137   26.4729 C   0  0  0  0  0  0  0  0  0  0  0  0
    6.4382   10.0633   25.8245 C   0  0  0  0  0  0  0  0  0  0  0  0
    7.6961    9.5834   25.3068 N   0  0  0  0  0  0  0  0  0  0  0  0
    8.2020   10.3894   24.2040 C   0  0  0  0  0  0  0  0  0  0  0  0
    7.5685    8.6263   24.9781 H   0  0  0  0  0  0  0  0  0  0  0  0
    8.3410   15.3620   22.0121 C   0  0  0  0  0  0  0  0  0  0  0  0
    7.1438   15.5868   22.8517 N   0  0  0  0  0  0  0  0  0  0  0  0
    6.9976   16.9765   23.3006 C   0  0  0  0  0  0  0  0  0  0  0  0
    5.9657   17.0263   24.4342 C   0  0  0  0  0  0  0  0  0  0  0  0
    4.6613   16.3952   24.0144 C   0  0  0  0  0  0  0  0  0  0  0  0
    3.4793   16.6781   24.7115 C   0  0  0  0  0  0  0  0  0  0  0  0
    2.2747   16.0972   24.3167 C   0  0  0  0  0  0  0  0  0  0  0  0
    2.2453   15.2246   23.2314 C   0  0  0  0  0  0  0  0  0  0  0  0
    3.4218   14.9260   22.5427 C   0  0  0  0  0  0  0  0  0  0  0  0
    4.6425   15.4940   22.9339 C   0  0  0  0  0  0  0  0  0  0  0  0
    5.9070   15.1793   22.1542 C   0  0  0  0  0  0  0  0  0  0  0  0
  5  6  2  0  0  0
  6  7  1  0  0  0
  7  4  1  0  0  0
  4  1  1  0  0  0
  1  2  1  0  0  0
  1 16  1  0  0  0
 16 17  1  0  0  0
 17 18  1  0  0  0
 18 19  1  0  0  0
 19 20  1  0  0  0
 20 21  2  0  0  0
 21 22  1  0  0  0
 22 23  2  0  0  0
 23 24  1  0  0  0
 24 25  2  0  0  0
 25 26  1  0  0  0
  9  6  1  0  0  0
  9 10  1  0  0  0
 10 11  1  0  0  0
 11 12  1  0  0  0
 12 13  1  0  0  0
 13 14  1  0  0  0
 26 17  1  0  0  0
 14  9  1  0  0  0
 25 20  1  0  0  0
  7  8  1  0  0  0
  2  3  1  0  0  0
 13 15  1  0  0  0
M  END
> <minimizedAffinity>
-5.52062

> <minimizedRMSD>
0.68832

$$$$
C660-P103


 15 17  0  0  0  0  0  0  0  0999 V2000
   14.0610   -4.2103   17.4033 C   0  0  0  0  0  0  0  0  0  0  0  0
   15.2908   -3.7501   17.8739 C   0  0  0  0  0  0  0  0  0  0  0  0
   16.3644   -4.6377   18.0715 C   0  0  0  0  0  0  0  0  0  0  0  0
   16.1823   -6.0009   17.7647 C   0  0  0  0  0  0  0  0  0  0  0  0
   16.9696   -7.1759   17.7906 C   0  0  0  0  0  0  0  0  0  0  0  0
   16.2982   -8.2598   17.3886 N   0  0  0  0  0  0  0  0  0  0  0  0
   15.0613   -7.7843   17.1587 N   0  0  0  0  0  0  0  0  0  0  0  0
   14.9367   -6.4315   17.3235 C   0  0  0  0  0  0  0  0  0  0  0  0
   13.8556   -5.5664   17.1351 C   0  0  0  0  0  0  0  0  0  0  0  0
   14.3087   -8.3611   16.8941 H   0  0  0  0  0  0  0  0  0  0  0  0
   17.6077   -4.2500   18.7256 C   0  0  0  0  0  0  0  0  0  0  0  0
   18.0625   -4.8063   19.8355 N   0  0  0  0  0  0  0  0  0  0  0  0
   19.2212   -4.1745   20.2345 C   0  0  0  0  0  0  0  0  0  0  0  0
   19.6521   -3.1554   19.4148 C   0  0  0  0  0  0  0  0  0  0  0  0
   18.5705   -2.9772   18.1030 S   0  0  0  0  0  0  0  0  0  0  0  0
  1  2  2  0  0  0
  2  3  1  0  0  0
  3 11  1  0  0  0
 11 12  2  0  0  0
 12 13  1  0  0  0
 13 14  2  0  0  0
 14 15  1  0  0  0
  3  4  2  0  0  0
  4  5  1  0  0  0
  5  6  2  0  0  0
  6  7  1  0  0  0
  7  8  1  0  0  0
  8  9  2  0  0  0
  9  1  1  0  0  0
 15 11  1  0  0  0
  8  4  1  0  0  0
  7 10  1  0  0  0
M  END
> <minimizedAffinity>
-4.15441

> <minimizedRMSD>
0.26089

$$$$
C684-P103


 25 27  0  0  0  0  0  0  0  0999 V2000
   18.4421   -5.8414   17.9373 C   0  0  0  0  0  0  0  0  0  0  0  0
   18.1708   -7.1297   17.6863 N   0  0  0  0  0  0  0  0  0  0  0  0
   16.8411   -7.1556   17.5494 N   0  0  0  0  0  0  0  0  0  0  0  0
   16.2515   -5.9321   17.6703 C   0  0  0  0  0  0  0  0  0  0  0  0
   14.9542   -5.5146   17.3655 C   0  0  0  0  0  0  0  0  0  0  0  0
   14.6334   -4.1824   17.6054 C   0  0  0  0  0  0  0  0  0  0  0  0
   15.5446   -3.3441   18.2396 C   0  0  0  0  0  0  0  0  0  0  0  0
   16.8331   -3.8036   18.6009 C   0  0  0  0  0  0  0  0  0  0  0  0
   17.2453   -5.0905   18.1777 C   0  0  0  0  0  0  0  0  0  0  0  0
   16.3344   -7.9819   17.3772 H   0  0  0  0  0  0  0  0  0  0  0  0
   17.5535   -3.0481   19.5605 N   0  0  0  0  0  0  0  0  0  0  0  0
   17.9763   -3.4982   20.8023 C   0  0  0  0  0  0  0  0  0  0  0  0
   18.4562   -2.4088   21.4871 C   0  0  0  0  0  0  0  0  0  0  0  0
   18.2488   -1.3313   20.6151 C   0  0  0  0  0  0  0  0  0  0  0  0
   17.6292   -1.6903   19.4925 N   0  0  0  0  0  0  0  0  0  0  0  0
   20.3777   -4.1376   17.3166 C   0  0  0  0  0  0  0  0  0  0  0  0
   19.8791   -3.1011   17.1162 O   0  0  0  0  0  0  0  0  0  0  0  0
   19.7497   -5.4878   17.7568 N   0  0  0  0  0  0  0  0  0  0  0  0
   20.3992   -6.2059   17.9349 H   0  0  0  0  0  0  0  0  0  0  0  0
   22.1988   -5.8642   17.3847 C   0  0  0  0  0  0  0  0  0  0  0  0
   21.9067   -4.3783   17.1916 C   0  0  0  0  0  0  0  0  0  0  0  0
   22.6541   -3.6165   18.1386 O   0  0  0  0  0  0  0  0  0  0  0  0
   23.4588   -2.6319   17.5147 C   0  0  0  0  0  0  0  0  0  0  0  0
   24.7388   -3.0645   17.5700 F   0  0  0  0  0  0  0  0  0  0  0  0
   23.1207   -2.5371   16.2108 F   0  0  0  0  0  0  0  0  0  0  0  0
 21 20  1  0  0  0
 21 22  1  0  0  0
 22 23  1  0  0  0
 23 24  1  0  0  0
 23 25  1  0  0  0
 21 16  1  0  0  0
 16 17  2  0  0  0
 16 18  1  0  0  0
 18  1  1  0  0  0
  1  2  2  0  0  0
  2  3  1  0  0  0
  3  4  1  0  0  0
  4  5  2  0  0  0
  5  6  1  0  0  0
  6  7  2  0  0  0
  7  8  1  0  0  0
  8 11  1  0  0  0
 11 12  1  0  0  0
 12 13  2  0  0  0
 13 14  1  0  0  0
 14 15  2  0  0  0
  8  9  2  0  0  0
  9  1  1  0  0  0
  9  4  1  0  0  0
 15 11  1  0  0  0
 18 19  1  0  0  0
  3 10  1  0  0  0
M  END
> <minimizedAffinity>
-4.69761

> <minimizedRMSD>
3.40298

$$$$
C542-P199


 19 22  0  0  0  0  0  0  0  0999 V2000
   23.3879   22.6622   18.3015 N   0  0  0  0  0  0  0  0  0  0  0  0
   23.0478   23.3610   17.0531 C   0  0  0  0  0  0  0  0  0  0  0  0
   21.6702   24.0598   17.1660 C   0  0  0  0  0  0  0  0  0  0  0  0
   20.5749   23.1444   17.5953 N   0  0  0  0  0  0  0  0  0  0  0  0
   20.9789   22.5527   18.8945 C   0  0  0  0  0  0  0  0  0  0  0  0
   22.3147   21.7891   18.8011 C   0  0  0  0  0  0  0  0  0  0  0  0
   28.4766   20.5632   20.5980 C   0  0  0  0  0  0  0  0  0  0  0  0
   29.1560   20.9808   19.4582 C   0  0  0  0  0  0  0  0  0  0  0  0
   28.4724   21.5900   18.4002 C   0  0  0  0  0  0  0  0  0  0  0  0
   27.0831   21.7656   18.5163 C   0  0  0  0  0  0  0  0  0  0  0  0
   25.9748   22.4656   17.4078 S   0  0  0  0  0  0  0  0  0  0  0  0
   24.6653   22.2069   18.5116 C   0  0  0  0  0  0  0  0  0  0  0  0
   25.0246   21.6032   19.6265 N   0  0  0  0  0  0  0  0  0  0  0  0
   26.3840   21.3544   19.6472 C   0  0  0  0  0  0  0  0  0  0  0  0
   27.0938   20.7455   20.7030 C   0  0  0  0  0  0  0  0  0  0  0  0
   19.3409   23.9278   17.7860 C   0  0  0  0  0  0  0  0  0  0  0  0
   18.3934   23.7473   16.5695 C   0  0  0  0  0  0  0  0  0  0  0  0
   17.2453   23.5992   17.5901 C   0  0  0  0  0  0  0  0  0  0  0  0
   18.3073   23.0909   18.5876 C   0  0  0  0  0  0  0  0  0  0  0  0
  7  8  2  0  0  0
  8  9  1  0  0  0
  9 10  2  0  0  0
 10 11  1  0  0  0
 11 12  1  0  0  0
 12  1  1  0  0  0
  1  2  1  0  0  0
  2  3  1  0  0  0
  3  4  1  0  0  0
  4 16  1  0  0  0
 16 17  1  0  0  0
 17 18  1  0  0  0
 18 19  1  0  0  0
  4  5  1  0  0  0
  5  6  1  0  0  0
 12 13  2  0  0  0
 13 14  1  0  0  0
 14 15  2  0  0  0
 15  7  1  0  0  0
 14 10  1  0  0  0
  6  1  1  0  0  0
 19 16  1  0  0  0
M  END
> <minimizedAffinity>
-4.11722

> <minimizedRMSD>
1.62929

$$$$
C3646-P239


 11 12  0  0  0  0  0  0  0  0999 V2000
    9.0061   11.0614   24.1736 C   0  0  0  0  0  0  0  0  0  0  0  0
    8.4403   12.0952   24.9097 C   0  0  0  0  0  0  0  0  0  0  0  0
    7.4541   11.8065   25.8493 C   0  0  0  0  0  0  0  0  0  0  0  0
    7.0499   10.4868   26.0098 C   0  0  0  0  0  0  0  0  0  0  0  0
    7.5817    9.4644   25.2958 N   0  0  0  0  0  0  0  0  0  0  0  0
    8.5520    9.7739   24.4016 C   0  0  0  0  0  0  0  0  0  0  0  0
    6.0506   10.1127   26.9920 C   0  0  0  0  0  0  0  0  0  0  0  0
    4.7107    9.8069   26.9630 C   0  0  0  0  0  0  0  0  0  0  0  0
    4.4047    9.4428   28.2838 C   0  0  0  0  0  0  0  0  0  0  0  0
    5.4649    9.5520   29.0878 N   0  0  0  0  0  0  0  0  0  0  0  0
    6.5024    9.9760   28.2688 O   0  0  0  0  0  0  0  0  0  0  0  0
  1  2  2  0  0  0
  2  3  1  0  0  0
  3  4  2  0  0  0
  4  7  1  0  0  0
  7  8  2  0  0  0
  8  9  1  0  0  0
  9 10  2  0  0  0
 10 11  1  0  0  0
  4  5  1  0  0  0
  5  6  2  0  0  0
  6  1  1  0  0  0
 11  7  1  0  0  0
M  END
> <minimizedAffinity>
-3.96976

> <minimizedRMSD>
1.08243

$$$$
C7625-P159


 20 22  0  0  0  0  0  0  0  0999 V2000
    8.3776   13.6534   23.1114 N   0  0  0  0  0  0  0  0  0  0  0  0
    8.2323   12.3516   23.8044 C   0  0  0  0  0  0  0  0  0  0  0  0
    9.4485   11.4482   23.5807 C   0  0  0  0  0  0  0  0  0  0  0  0
    9.3834   10.2145   24.4769 C   0  0  0  0  0  0  0  0  0  0  0  0
    8.0164    9.9369   24.8718 N   0  0  0  0  0  0  0  0  0  0  0  0
    7.4004   10.9747   25.6884 C   0  0  0  0  0  0  0  0  0  0  0  0
    7.8447   12.3793   25.2753 C   0  0  0  0  0  0  0  0  0  0  0  0
    8.0091    9.0667   25.4039 H   0  0  0  0  0  0  0  0  0  0  0  0
    8.7434   16.1423   23.0286 O   0  0  0  0  0  0  0  0  0  0  0  0
    8.9828   15.0115   23.8953 S   0  0  0  0  0  0  0  0  0  0  0  0
    8.4547   14.9844   25.2476 O   0  0  0  0  0  0  0  0  0  0  0  0
   10.7349   14.8307   24.0897 C   0  0  0  0  0  0  0  0  0  0  0  0
   11.5233   14.3179   22.9045 C   0  0  0  0  0  0  0  0  0  0  0  0
   11.6019   15.3015   21.7303 C   0  0  0  0  0  0  0  0  0  0  0  0
   10.7430   14.8573   20.5837 C   0  0  0  0  0  0  0  0  0  0  0  0
   11.2466   15.0635   19.1759 C   0  0  0  0  0  0  0  0  0  0  0  0
   10.0744   15.8373   19.6692 C   0  0  0  0  0  0  0  0  0  0  0  0
    7.2380   14.0381   22.2162 C   0  0  0  0  0  0  0  0  0  0  0  0
    6.0122   14.7522   22.7513 C   0  0  0  0  0  0  0  0  0  0  0  0
    5.8783   13.3935   22.1586 C   0  0  0  0  0  0  0  0  0  0  0  0
  9 10  2  0  0  0
 10 11  2  0  0  0
 10 12  1  0  0  0
 12 13  1  0  0  0
 13 14  1  0  0  0
 14 15  1  0  0  0
 15 16  1  0  0  0
 16 17  1  0  0  0
 10  1  1  0  0  0
  1  2  1  0  0  0
  2  3  1  0  0  0
  3  4  1  0  0  0
  4  5  1  0  0  0
  5  6  1  0  0  0
  6  7  1  0  0  0
  1 18  1  0  0  0
 18 19  1  0  0  0
 19 20  1  0  0  0
 17 15  1  0  0  0
  7  2  1  0  0  0
 20 18  1  0  0  0
  5  8  1  0  0  0
M  END
> <minimizedAffinity>
-5.04775

> <minimizedRMSD>
0.86421

$$$$
C9375-P356


 15 15  0  0  0  0  0  0  0  0999 V2000
    8.4328   14.2947   24.1663 S   0  0  0  0  0  0  0  0  0  0  0  0
    7.2138   14.3867   23.4052 O   0  0  0  0  0  0  0  0  0  0  0  0
    8.6648   15.0044   25.3987 O   0  0  0  0  0  0  0  0  0  0  0  0
    8.7259   12.6701   24.4692 N   0  0  0  0  0  0  0  0  0  0  0  0
    7.5260   11.9194   24.9299 C   0  0  0  0  0  0  0  0  0  0  0  0
    7.8138   10.4611   24.6010 C   0  0  0  0  0  0  0  0  0  0  0  0
    9.0726   10.4513   23.7574 C   0  0  0  0  0  0  0  0  0  0  0  0
    9.2572   11.8899   23.3425 C   0  0  0  0  0  0  0  0  0  0  0  0
    9.6988   14.6623   23.1441 N   0  0  0  0  0  0  0  0  0  0  0  0
   10.3131   15.3200   23.6241 H   0  0  0  0  0  0  0  0  0  0  0  0
    9.2958   15.2715   21.8355 C   0  0  0  0  0  0  0  0  0  0  0  0
   10.1300   15.9363   19.5442 C   0  0  0  0  0  0  0  0  0  0  0  0
   10.4321   15.1612   20.8135 C   0  0  0  0  0  0  0  0  0  0  0  0
   11.6294   15.6335   21.4935 C   0  0  0  0  0  0  0  0  0  0  0  0
   12.3587   16.1519   22.2255 N   0  0  0  0  0  0  0  0  0  0  0  0
 13 12  1  0  0  0
 13 14  1  0  0  0
 14 15  3  0  0  0
 13 11  1  0  0  0
 11  9  1  0  0  0
  9  1  1  0  0  0
  1  2  2  0  0  0
  1  3  2  0  0  0
  1  4  1  0  0  0
  4  5  1  0  0  0
  5  6  1  0  0  0
  6  7  1  0  0  0
  7  8  1  0  0  0
  8  4  1  0  0  0
  9 10  1  0  0  0
M  END
> <minimizedAffinity>
-5.21624

> <minimizedRMSD>
0.62595

$$$$
C9394-P356


 14 14  0  0  0  0  0  0  0  0999 V2000
    9.0110   14.9064   23.5985 C   0  0  0  0  0  0  0  0  0  0  0  0
    7.6058   14.9162   23.3637 O   0  0  0  0  0  0  0  0  0  0  0  0
    7.3289   14.0512   23.0231 H   0  0  0  0  0  0  0  0  0  0  0  0
    9.7536   14.7284   22.2793 C   0  0  0  0  0  0  0  0  0  0  0  0
   11.1663   14.8853   22.4383 O   0  0  0  0  0  0  0  0  0  0  0  0
   11.7061   15.7649   21.4429 C   0  0  0  0  0  0  0  0  0  0  0  0
   10.9174   15.4728   19.0722 C   0  0  0  0  0  0  0  0  0  0  0  0
   11.7173   15.1256   20.0893 C   0  0  0  0  0  0  0  0  0  0  0  0
    9.3705   13.9266   24.7154 C   0  0  0  0  0  0  0  0  0  0  0  0
    8.9240   12.5453   24.6428 N   0  0  0  0  0  0  0  0  0  0  0  0
    9.2860   11.7579   23.4846 C   0  0  0  0  0  0  0  0  0  0  0  0
    8.7563   10.3913   23.8754 C   0  0  0  0  0  0  0  0  0  0  0  0
    7.5979   10.6788   24.8269 C   0  0  0  0  0  0  0  0  0  0  0  0
    7.5637   12.1923   24.9990 C   0  0  0  0  0  0  0  0  0  0  0  0
  7  8  2  0  0  0
  8  6  1  0  0  0
  6  5  1  0  0  0
  5  4  1  0  0  0
  4  1  1  0  0  0
  1  2  1  0  0  0
  1  9  1  0  0  0
  9 10  1  0  0  0
 10 11  1  0  0  0
 11 12  1  0  0  0
 12 13  1  0  0  0
 13 14  1  0  0  0
 14 10  1  0  0  0
  2  3  1  0  0  0
M  END
> <minimizedAffinity>
-4.52054

> <minimizedRMSD>
0.36238

$$$$
C8155-P271


 17 17  0  0  0  0  0  0  0  0999 V2000
    8.1366   13.9500   23.8082 S   0  0  0  0  0  0  0  0  0  0  0  0
    7.5434   15.0751   24.4842 O   0  0  0  0  0  0  0  0  0  0  0  0
    7.4347   13.2008   22.7962 O   0  0  0  0  0  0  0  0  0  0  0  0
    8.6584   12.9029   24.9871 N   0  0  0  0  0  0  0  0  0  0  0  0
    7.9602   12.9695   26.2621 C   0  0  0  0  0  0  0  0  0  0  0  0
    6.7507   12.0771   26.2599 C   0  0  0  0  0  0  0  0  0  0  0  0
    7.1808   10.6399   26.0686 C   0  0  0  0  0  0  0  0  0  0  0  0
    8.1291   10.4486   24.8959 C   0  0  0  0  0  0  0  0  0  0  0  0
    9.1406   11.5614   24.6327 C   0  0  0  0  0  0  0  0  0  0  0  0
    9.5932   14.4358   23.2020 N   0  0  0  0  0  0  0  0  0  0  0  0
   10.3188   13.8517   23.6176 H   0  0  0  0  0  0  0  0  0  0  0  0
    9.9347   15.8246   23.4544 C   0  0  0  0  0  0  0  0  0  0  0  0
   12.2203   15.9426   22.2486 C   0  0  0  0  0  0  0  0  0  0  0  0
   11.3939   16.0619   23.2935 C   0  0  0  0  0  0  0  0  0  0  0  0
   10.9646   15.6121   18.6774 C   0  0  0  0  0  0  0  0  0  0  0  0
   11.0013   15.9735   20.1170 C   0  0  0  0  0  0  0  0  0  0  0  0
   11.9536   15.4865   20.9172 C   0  0  0  0  0  0  0  0  0  0  0  0
 15 16  1  0  0  0
 16 17  2  0  0  0
 17 13  1  0  0  0
 13 14  2  0  0  0
 14 12  1  0  0  0
 12 10  1  0  0  0
 10  1  1  0  0  0
  1  2  2  0  0  0
  1  3  2  0  0  0
  1  4  1  0  0  0
  4  5  1  0  0  0
  5  6  1  0  0  0
  6  7  1  0  0  0
  7  8  1  0  0  0
  8  9  1  0  0  0
  9  4  1  0  0  0
 10 11  1  0  0  0
M  END
> <minimizedAffinity>
-5.22383

> <minimizedRMSD>
0.95495

$$$$
C4732-P405


  9  9  0  0  0  0  0  0  0  0999 V2000
    8.8671   12.8347   23.5278 C   0  0  0  0  0  0  0  0  0  0  0  0
    7.6107   12.5830   23.7557 N   0  0  0  0  0  0  0  0  0  0  0  0
    7.6405   11.6101   24.8630 C   0  0  0  0  0  0  0  0  0  0  0  0
    9.0047   10.9578   24.8438 C   0  0  0  0  0  0  0  0  0  0  0  0
    9.8843   12.0465   24.2816 C   0  0  0  0  0  0  0  0  0  0  0  0
    9.3366   13.9200   22.5903 C   0  0  0  0  0  0  0  0  0  0  0  0
   10.5440   14.0902   22.4670 O   0  0  0  0  0  0  0  0  0  0  0  0
    8.4705   16.2388   22.1726 C   0  0  0  0  0  0  0  0  0  0  0  0
    8.2670   14.7534   21.9289 C   0  0  0  0  0  0  0  0  0  0  0  0
  8  9  1  0  0  0
  9  6  1  0  0  0
  6  7  2  0  0  0
  6  1  1  0  0  0
  1  2  2  0  0  0
  2  3  1  0  0  0
  3  4  1  0  0  0
  4  5  1  0  0  0
  5  1  1  0  0  0
M  END
> <minimizedAffinity>
-3.25874

> <minimizedRMSD>
1.98683

$$$$
C3665-P182


 11 12  0  0  0  0  0  0  0  0999 V2000
    7.9460   10.3959   24.7758 C   0  0  0  0  0  0  0  0  0  0  0  0
    7.6130   11.5854   25.3796 C   0  0  0  0  0  0  0  0  0  0  0  0
    8.2814   12.7364   24.9703 C   0  0  0  0  0  0  0  0  0  0  0  0
    9.3123   12.6334   24.0333 C   0  0  0  0  0  0  0  0  0  0  0  0
    9.5947   11.3843   23.5111 C   0  0  0  0  0  0  0  0  0  0  0  0
    8.9170   10.2697   23.8523 N   0  0  0  0  0  0  0  0  0  0  0  0
    7.8095   14.0164   25.4604 C   0  0  0  0  0  0  0  0  0  0  0  0
    8.3371   14.8147   26.3697 N   0  0  0  0  0  0  0  0  0  0  0  0
    7.3668   15.7677   26.5612 C   0  0  0  0  0  0  0  0  0  0  0  0
    6.2881   15.5083   25.7545 C   0  0  0  0  0  0  0  0  0  0  0  0
    6.5706   14.3990   25.0178 O   0  0  0  0  0  0  0  0  0  0  0  0
  1  2  2  0  0  0
  2  3  1  0  0  0
  3  7  1  0  0  0
  7  8  2  0  0  0
  8  9  1  0  0  0
  9 10  2  0  0  0
 10 11  1  0  0  0
  3  4  2  0  0  0
  4  5  1  0  0  0
  5  6  2  0  0  0
  6  1  1  0  0  0
 11  7  1  0  0  0
M  END
> <minimizedAffinity>
-4.04684

> <minimizedRMSD>
1.21598

$$$$
C16361-P182


 23 25  0  0  0  0  0  0  0  0999 V2000
   10.2204   14.2872   25.4067 O   0  0  0  0  0  0  0  0  0  0  0  0
   10.2449   13.6466   24.4344 C   0  0  0  0  0  0  0  0  0  0  0  0
   11.1778   13.7170   23.2226 N   0  0  0  0  0  0  0  0  0  0  0  0
   11.0398   13.0070   22.5547 H   0  0  0  0  0  0  0  0  0  0  0  0
    9.2731   12.5073   24.3585 C   0  0  0  0  0  0  0  0  0  0  0  0
    9.5750   11.3007   23.7293 C   0  0  0  0  0  0  0  0  0  0  0  0
    8.7815   10.2112   24.0200 C   0  0  0  0  0  0  0  0  0  0  0  0
    7.7297   10.2545   24.8688 N   0  0  0  0  0  0  0  0  0  0  0  0
    7.4034   11.4540   25.4142 C   0  0  0  0  0  0  0  0  0  0  0  0
    8.1295   12.6035   25.1600 C   0  0  0  0  0  0  0  0  0  0  0  0
    6.3309   11.4871   26.3448 N   0  0  0  0  0  0  0  0  0  0  0  0
    5.5228   12.5355   26.7161 C   0  0  0  0  0  0  0  0  0  0  0  0
    4.6606   12.0268   27.6644 C   0  0  0  0  0  0  0  0  0  0  0  0
    4.9294   10.7181   27.9208 N   0  0  0  0  0  0  0  0  0  0  0  0
    5.9146   10.4240   27.1046 C   0  0  0  0  0  0  0  0  0  0  0  0
   12.2217   14.6498   22.9010 C   0  0  0  0  0  0  0  0  0  0  0  0
   12.2806   15.0194   21.4281 C   0  0  0  0  0  0  0  0  0  0  0  0
   10.9538   15.2709   20.7966 C   0  0  0  0  0  0  0  0  0  0  0  0
   10.6603   15.2167   19.4198 C   0  0  0  0  0  0  0  0  0  0  0  0
    9.4674   15.8799   19.3068 C   0  0  0  0  0  0  0  0  0  0  0  0
    9.0438   16.1416   20.5724 N   0  0  0  0  0  0  0  0  0  0  0  0
    9.8892   15.6757   21.4990 N   0  0  0  0  0  0  0  0  0  0  0  0
    8.2094   16.6199   20.7829 H   0  0  0  0  0  0  0  0  0  0  0  0
  1  2  2  0  0  0
  2  3  1  0  0  0
  3 16  1  0  0  0
 16 17  1  0  0  0
 17 18  1  0  0  0
 18 19  1  0  0  0
 19 20  2  0  0  0
 20 21  1  0  0  0
 21 22  1  0  0  0
  2  5  1  0  0  0
  5  6  2  0  0  0
  6  7  1  0  0  0
  7  8  2  0  0  0
  8  9  1  0  0  0
  9 11  1  0  0  0
 11 12  1  0  0  0
 12 13  2  0  0  0
 13 14  1  0  0  0
 14 15  2  0  0  0
  9 10  2  0  0  0
 22 18  2  0  0  0
 10  5  1  0  0  0
 15 11  1  0  0  0
  3  4  1  0  0  0
 21 23  1  0  0  0
M  END
> <minimizedAffinity>
-6.84743

> <minimizedRMSD>
0.44443

$$$$
C2086-P207


 17 19  0  0  0  0  0  0  0  0999 V2000
    8.8500   14.2083   23.9648 C   0  0  0  0  0  0  0  0  0  0  0  0
    7.7711   14.0605   24.7176 N   0  0  0  0  0  0  0  0  0  0  0  0
    7.5352   12.7208   24.7739 C   0  0  0  0  0  0  0  0  0  0  0  0
    8.4934   12.0246   24.0841 C   0  0  0  0  0  0  0  0  0  0  0  0
    9.3039   12.9784   23.5289 N   0  0  0  0  0  0  0  0  0  0  0  0
    8.6197   10.5570   23.9931 C   0  0  0  0  0  0  0  0  0  0  0  0
    7.4734    9.8454   24.7329 C   0  0  0  0  0  0  0  0  0  0  0  0
    6.7295   10.6360   25.8246 C   0  0  0  0  0  0  0  0  0  0  0  0
    6.4115   12.0989   25.5023 C   0  0  0  0  0  0  0  0  0  0  0  0
   10.0685   12.8175   22.9299 H   0  0  0  0  0  0  0  0  0  0  0  0
   11.5176   15.7837   21.5565 C   0  0  0  0  0  0  0  0  0  0  0  0
   11.8983   15.0459   22.8333 C   0  0  0  0  0  0  0  0  0  0  0  0
   11.0320   15.5022   24.0026 C   0  0  0  0  0  0  0  0  0  0  0  0
    9.5302   15.5252   23.6887 C   0  0  0  0  0  0  0  0  0  0  0  0
    9.2196   16.1078   22.3876 N   0  0  0  0  0  0  0  0  0  0  0  0
   10.0259   15.6459   21.2709 C   0  0  0  0  0  0  0  0  0  0  0  0
    9.3398   17.1179   22.4619 H   0  0  0  0  0  0  0  0  0  0  0  0
 11 12  1  0  0  0
 12 13  1  0  0  0
 13 14  1  0  0  0
 14  1  1  0  0  0
  1  2  2  0  0  0
  2  3  1  0  0  0
  3  4  2  0  0  0
  4  5  1  0  0  0
  4  6  1  0  0  0
  6  7  1  0  0  0
  7  8  1  0  0  0
  8  9  1  0  0  0
 14 15  1  0  0  0
 15 16  1  0  0  0
 16 11  1  0  0  0
  5  1  1  0  0  0
  9  3  1  0  0  0
  5 10  1  0  0  0
 15 17  1  0  0  0
M  END
> <minimizedAffinity>
-5.88565

> <minimizedRMSD>
0.53321

$$$$
C2091-P207


 17 19  0  0  0  0  0  0  0  0999 V2000
    8.6873   14.1871   24.0137 C   0  0  0  0  0  0  0  0  0  0  0  0
    7.6115   14.1818   24.7785 N   0  0  0  0  0  0  0  0  0  0  0  0
    7.2635   12.8691   24.9525 C   0  0  0  0  0  0  0  0  0  0  0  0
    8.1606   12.0521   24.3056 C   0  0  0  0  0  0  0  0  0  0  0  0
    9.0355   12.8984   23.6701 N   0  0  0  0  0  0  0  0  0  0  0  0
    8.2221   10.5753   24.3102 C   0  0  0  0  0  0  0  0  0  0  0  0
    7.0393    9.9153   25.0231 C   0  0  0  0  0  0  0  0  0  0  0  0
    6.2232   10.7747   26.4145 S   0  0  0  0  0  0  0  0  0  0  0  0
    6.0827   12.4668   25.7520 C   0  0  0  0  0  0  0  0  0  0  0  0
    9.7757   12.6333   23.0776 H   0  0  0  0  0  0  0  0  0  0  0  0
   11.8905   14.7192   23.2484 C   0  0  0  0  0  0  0  0  0  0  0  0
   10.9018   15.3647   24.2118 C   0  0  0  0  0  0  0  0  0  0  0  0
    9.4717   15.4241   23.6628 C   0  0  0  0  0  0  0  0  0  0  0  0
    9.4121   15.8211   22.1838 C   0  0  0  0  0  0  0  0  0  0  0  0
   10.5117   15.1937   21.3343 C   0  0  0  0  0  0  0  0  0  0  0  0
   11.8237   15.3664   21.9510 N   0  0  0  0  0  0  0  0  0  0  0  0
   12.0066   16.3630   22.0679 H   0  0  0  0  0  0  0  0  0  0  0  0
 11 12  1  0  0  0
 12 13  1  0  0  0
 13  1  1  0  0  0
  1  2  2  0  0  0
  2  3  1  0  0  0
  3  4  2  0  0  0
  4  5  1  0  0  0
  4  6  1  0  0  0
  6  7  1  0  0  0
  7  8  1  0  0  0
  8  9  1  0  0  0
 13 14  1  0  0  0
 14 15  1  0  0  0
 15 16  1  0  0  0
 16 11  1  0  0  0
  5  1  1  0  0  0
  9  3  1  0  0  0
  5 10  1  0  0  0
 16 17  1  0  0  0
M  END
> <minimizedAffinity>
-5.45342

> <minimizedRMSD>
0.22300

$$$$
C8142-P190


 14 14  0  0  0  0  0  0  0  0999 V2000
    6.3125   12.6283   25.9775 C   0  0  0  0  0  0  0  0  0  0  0  0
    6.0314   12.1060   27.2817 O   0  0  0  0  0  0  0  0  0  0  0  0
    6.7780   12.2921   27.8724 H   0  0  0  0  0  0  0  0  0  0  0  0
    7.4869   11.8400   25.3272 C   0  0  0  0  0  0  0  0  0  0  0  0
    7.1014   10.3593   25.1866 C   0  0  0  0  0  0  0  0  0  0  0  0
    7.9540    9.5298   24.2367 C   0  0  0  0  0  0  0  0  0  0  0  0
    9.1443   10.2458   23.6508 C   0  0  0  0  0  0  0  0  0  0  0  0
    8.8088   11.5638   23.1761 N   0  0  0  0  0  0  0  0  0  0  0  0
    8.0350   12.4365   24.0314 C   0  0  0  0  0  0  0  0  0  0  0  0
    8.2803   11.4456   22.3117 H   0  0  0  0  0  0  0  0  0  0  0  0
    6.3730   14.1563   26.0624 C   0  0  0  0  0  0  0  0  0  0  0  0
    7.1012   15.2136   28.3106 C   0  0  0  0  0  0  0  0  0  0  0  0
    7.4549   14.7584   26.9259 C   0  0  0  0  0  0  0  0  0  0  0  0
    8.5856   14.9473   26.4722 O   0  0  0  0  0  0  0  0  0  0  0  0
 12 13  1  0  0  0
 13 14  2  0  0  0
 13 11  1  0  0  0
 11  1  1  0  0  0
  1  2  1  0  0  0
  1  4  1  0  0  0
  4  5  1  0  0  0
  5  6  1  0  0  0
  6  7  1  0  0  0
  7  8  1  0  0  0
  8  9  1  0  0  0
  9  4  1  0  0  0
  2  3  1  0  0  0
  8 10  1  0  0  0
M  END
> <minimizedAffinity>
-3.29195

> <minimizedRMSD>
1.10387

$$$$
